MODEL 1
REMARK VINA RESULT:      -6.0      0.000      0.000
REMARK  Name = 
REMARK  3 active torsions:
REMARK  status: ('A' for Active; 'I' for Inactive)
REMARK    1  A    between atoms: N_2  and  C_4
REMARK    2  A    between atoms: C_6  and  N_7
REMARK    3  A    between atoms: C_12  and  N_13
REMARK                            x       y       z     vdW  Elec       q    Type
REMARK                         _______ _______ _______ _____ _____    ______ ____
ROOT
ATOM      1  C   UNL     1       6.038   5.604 -12.009  0.00  0.00    +0.303 A 
ATOM      2  C   UNL     1       5.510   5.821 -10.742  0.00  0.00    +0.154 A 
ATOM      3  C   UNL     1       4.134   5.747 -10.552  0.00  0.00    +0.341 A 
ATOM      4  C   UNL     1       3.367   5.963 -11.686  0.00  0.00    +0.333 A 
ATOM      5  O   UNL     1       2.015   6.159 -11.490  0.00  0.00    -0.273 OA
ATOM      6  C   UNL     1       3.870   5.813 -12.971  0.00  0.00    +0.341 A 
ATOM      7  C   UNL     1       5.195   5.413 -13.097  0.00  0.00    +0.154 A 
ENDROOT
BRANCH   1   9
ATOM      8  O   UNL     1       7.619   4.705 -13.348  0.00  0.00    +0.041 OA
ATOM      9  N   UNL     1       7.355   5.057 -12.169  0.00  0.00    +0.081 N 
ATOM     10  O   UNL     1       8.343   5.358 -11.279  0.00  0.00    -0.576 OA
ENDBRANCH   1   9
BRANCH   3  11
ATOM     11  N   UNL     1       3.568   5.264  -9.328  0.00  0.00    +0.085 N 
ATOM     12  O   UNL     1       3.692   3.912  -9.055  0.00  0.00    -0.576 OA
ATOM     13  O   UNL     1       3.127   6.061  -8.486  0.00  0.00    +0.042 OA
ENDBRANCH   3  11
BRANCH   6  14
ATOM     14  N   UNL     1       2.964   5.352 -13.984  0.00  0.00    +0.085 N 
ATOM     15  O   UNL     1       2.710   6.269 -14.991  0.00  0.00    -0.576 OA
ATOM     16  O   UNL     1       3.053   4.159 -14.337  0.00  0.00    +0.042 OA
ENDBRANCH   6  14
TORSDOF 3
ENDMDL
MODEL 2
REMARK VINA RESULT:      -5.9      7.422     10.772
REMARK  Name = 
REMARK  3 active torsions:
REMARK  status: ('A' for Active; 'I' for Inactive)
REMARK    1  A    between atoms: N_2  and  C_4
REMARK    2  A    between atoms: C_6  and  N_7
REMARK    3  A    between atoms: C_12  and  N_13
REMARK                            x       y       z     vdW  Elec       q    Type
REMARK                         _______ _______ _______ _____ _____    ______ ____
ROOT
ATOM      1  C   UNL     1      -0.893   5.575  -3.136  0.00  0.00    +0.303 A 
ATOM      2  C   UNL     1      -0.364   5.728  -4.412  0.00  0.00    +0.154 A 
ATOM      3  C   UNL     1       1.004   5.579  -4.609  0.00  0.00    +0.341 A 
ATOM      4  C   UNL     1       1.791   5.788  -3.486  0.00  0.00    +0.333 A 
ATOM      5  O   UNL     1       3.149   5.909  -3.695  0.00  0.00    -0.273 OA
ATOM      6  C   UNL     1       1.290   5.700  -2.194  0.00  0.00    +0.341 A 
ATOM      7  C   UNL     1      -0.053   5.372  -2.048  0.00  0.00    +0.154 A 
ENDROOT
BRANCH   1   9
ATOM      8  O   UNL     1      -2.583   5.017  -1.746  0.00  0.00    +0.041 OA
ATOM      9  N   UNL     1      -2.235   5.101  -2.952  0.00  0.00    +0.081 N 
ATOM     10  O   UNL     1      -3.154   5.219  -3.952  0.00  0.00    -0.576 OA
ENDBRANCH   1   9
BRANCH   3  11
ATOM     11  N   UNL     1       1.537   5.032  -5.821  0.00  0.00    +0.085 N 
ATOM     12  O   UNL     1       1.457   3.661  -5.994  0.00  0.00    -0.576 OA
ATOM     13  O   UNL     1       1.906   5.785  -6.736  0.00  0.00    +0.042 OA
ENDBRANCH   3  11
BRANCH   6  14
ATOM     14  N   UNL     1       2.179   5.223  -1.174  0.00  0.00    +0.085 N 
ATOM     15  O   UNL     1       2.636   6.199  -0.303  0.00  0.00    -0.576 OA
ATOM     16  O   UNL     1       1.932   4.109  -0.669  0.00  0.00    +0.042 OA
ENDBRANCH   6  14
TORSDOF 3
ENDMDL
MODEL 3
REMARK VINA RESULT:      -5.6      7.466      9.678
REMARK  Name = 
REMARK  3 active torsions:
REMARK  status: ('A' for Active; 'I' for Inactive)
REMARK    1  A    between atoms: N_2  and  C_4
REMARK    2  A    between atoms: C_6  and  N_7
REMARK    3  A    between atoms: C_12  and  N_13
REMARK                            x       y       z     vdW  Elec       q    Type
REMARK                         _______ _______ _______ _____ _____    ______ ____
ROOT
ATOM      1  C   UNL     1       1.346   5.738  -2.540  0.00  0.00    +0.303 A 
ATOM      2  C   UNL     1       0.082   6.167  -2.149  0.00  0.00    +0.154 A 
ATOM      3  C   UNL     1      -0.985   6.046  -3.032  0.00  0.00    +0.341 A 
ATOM      4  C   UNL     1      -0.641   5.986  -4.374  0.00  0.00    +0.333 A 
ATOM      5  O   UNL     1      -1.669   6.132  -5.283  0.00  0.00    -0.273 OA
ATOM      6  C   UNL     1       0.626   5.618  -4.806  0.00  0.00    +0.341 A 
ATOM      7  C   UNL     1       1.563   5.284  -3.835  0.00  0.00    +0.154 A 
ENDROOT
BRANCH   1   9
ATOM      8  O   UNL     1       1.765   4.573  -0.651  0.00  0.00    +0.041 OA
ATOM      9  N   UNL     1       2.287   5.255  -1.571  0.00  0.00    +0.081 N 
ATOM     10  O   UNL     1       3.606   5.124  -1.892  0.00  0.00    -0.576 OA
ENDBRANCH   1   9
BRANCH   3  11
ATOM     11  N   UNL     1      -2.316   5.778  -2.573  0.00  0.00    +0.085 N 
ATOM     12  O   UNL     1      -3.123   6.864  -2.283  0.00  0.00    -0.576 OA
ATOM     13  O   UNL     1      -2.761   4.620  -2.592  0.00  0.00    +0.042 OA
ENDBRANCH   3  11
BRANCH   6  14
ATOM     14  N   UNL     1       0.716   4.911  -6.051  0.00  0.00    +0.085 N 
ATOM     15  O   UNL     1       1.062   5.698  -7.138  0.00  0.00    -0.576 OA
ATOM     16  O   UNL     1       1.204   3.762  -6.028  0.00  0.00    +0.042 OA
ENDBRANCH   6  14
TORSDOF 3
ENDMDL
MODEL 4
REMARK VINA RESULT:      -5.5      7.928     10.425
REMARK  Name = 
REMARK  3 active torsions:
REMARK  status: ('A' for Active; 'I' for Inactive)
REMARK    1  A    between atoms: N_2  and  C_4
REMARK    2  A    between atoms: C_6  and  N_7
REMARK    3  A    between atoms: C_12  and  N_13
REMARK                            x       y       z     vdW  Elec       q    Type
REMARK                         _______ _______ _______ _____ _____    ______ ____
ROOT
ATOM      1  C   UNL     1       0.711   5.625  -4.296  0.00  0.00    +0.303 A 
ATOM      2  C   UNL     1       1.682   5.769  -3.312  0.00  0.00    +0.154 A 
ATOM      3  C   UNL     1       1.307   5.755  -1.973  0.00  0.00    +0.341 A 
ATOM      4  C   UNL     1      -0.012   6.100  -1.723  0.00  0.00    +0.333 A 
ATOM      5  O   UNL     1      -0.348   6.352  -0.409  0.00  0.00    -0.273 OA
ATOM      6  C   UNL     1      -1.003   6.024  -2.693  0.00  0.00    +0.341 A 
ATOM      7  C   UNL     1      -0.634   5.565  -3.952  0.00  0.00    +0.154 A 
ENDROOT
BRANCH   1   9
ATOM      8  O   UNL     1       0.025   4.699  -6.238  0.00  0.00    +0.041 OA
ATOM      9  N   UNL     1       1.032   5.023  -5.559  0.00  0.00    +0.081 N 
ATOM     10  O   UNL     1       2.244   5.246  -6.144  0.00  0.00    -0.576 OA
ENDBRANCH   1   9
BRANCH   3  11
ATOM     11  N   UNL     1       2.157   5.208  -0.958  0.00  0.00    +0.085 N 
ATOM     12  O   UNL     1       2.970   6.086  -0.263  0.00  0.00    -0.576 OA
ATOM     13  O   UNL     1       2.043   4.019  -0.622  0.00  0.00    +0.042 OA
ENDBRANCH   3  11
BRANCH   6  14
ATOM     14  N   UNL     1      -2.329   5.693  -2.256  0.00  0.00    +0.085 N 
ATOM     15  O   UNL     1      -3.195   6.771  -2.169  0.00  0.00    -0.576 OA
ATOM     16  O   UNL     1      -2.823   4.624  -2.670  0.00  0.00    +0.042 OA
ENDBRANCH   6  14
TORSDOF 3
ENDMDL
MODEL 5
REMARK VINA RESULT:      -5.5      5.290      7.765
REMARK  Name = 
REMARK  3 active torsions:
REMARK  status: ('A' for Active; 'I' for Inactive)
REMARK    1  A    between atoms: N_2  and  C_4
REMARK    2  A    between atoms: C_6  and  N_7
REMARK    3  A    between atoms: C_12  and  N_13
REMARK                            x       y       z     vdW  Elec       q    Type
REMARK                         _______ _______ _______ _____ _____    ______ ____
ROOT
ATOM      1  C   UNL     1       0.139   5.368  -5.862  0.00  0.00    +0.303 A 
ATOM      2  C   UNL     1       1.025   5.019  -4.849  0.00  0.00    +0.154 A 
ATOM      3  C   UNL     1       2.326   5.508  -4.880  0.00  0.00    +0.341 A 
ATOM      4  C   UNL     1       2.792   5.878  -6.132  0.00  0.00    +0.333 A 
ATOM      5  O   UNL     1       4.147   6.114  -6.244  0.00  0.00    -0.273 OA
ATOM      6  C   UNL     1       1.942   6.180  -7.187  0.00  0.00    +0.341 A 
ATOM      7  C   UNL     1       0.574   6.118  -6.947  0.00  0.00    +0.154 A 
ENDROOT
BRANCH   1   9
ATOM      8  O   UNL     1      -1.557   5.629  -4.393  0.00  0.00    +0.041 OA
ATOM      9  N   UNL     1      -1.270   5.450  -5.605  0.00  0.00    +0.081 N 
ATOM     10  O   UNL     1      -2.136   5.796  -6.600  0.00  0.00    -0.576 OA
ENDBRANCH   1   9
BRANCH   3  11
ATOM     11  N   UNL     1       3.044   5.815  -3.678  0.00  0.00    +0.085 N 
ATOM     12  O   UNL     1       3.891   4.844  -3.173  0.00  0.00    -0.576 OA
ATOM     13  O   UNL     1       3.018   6.965  -3.212  0.00  0.00    +0.042 OA
ENDBRANCH   3  11
BRANCH   6  14
ATOM     14  N   UNL     1       2.382   7.175  -8.123  0.00  0.00    +0.085 N 
ATOM     15  O   UNL     1       2.288   6.798  -9.454  0.00  0.00    -0.576 OA
ATOM     16  O   UNL     1       2.110   8.366  -7.870  0.00  0.00    +0.042 OA
ENDBRANCH   6  14
TORSDOF 3
ENDMDL
MODEL 6
REMARK VINA RESULT:      -5.5      1.984      3.302
REMARK  Name = 
REMARK  3 active torsions:
REMARK  status: ('A' for Active; 'I' for Inactive)
REMARK    1  A    between atoms: N_2  and  C_4
REMARK    2  A    between atoms: C_6  and  N_7
REMARK    3  A    between atoms: C_12  and  N_13
REMARK                            x       y       z     vdW  Elec       q    Type
REMARK                         _______ _______ _______ _____ _____    ______ ____
ROOT
ATOM      1  C   UNL     1       3.445   5.787 -12.338  0.00  0.00    +0.303 A 
ATOM      2  C   UNL     1       4.142   5.576 -11.154  0.00  0.00    +0.154 A 
ATOM      3  C   UNL     1       3.453   5.568  -9.947  0.00  0.00    +0.341 A 
ATOM      4  C   UNL     1       2.247   6.252  -9.947  0.00  0.00    +0.333 A 
ATOM      5  O   UNL     1       1.669   6.489  -8.716  0.00  0.00    -0.273 OA
ATOM      6  C   UNL     1       1.546   6.534 -11.112  0.00  0.00    +0.341 A 
ATOM      7  C   UNL     1       2.088   6.085 -12.310  0.00  0.00    +0.154 A 
ENDROOT
BRANCH   1   9
ATOM      8  O   UNL     1       5.018   4.634 -13.477  0.00  0.00    +0.041 OA
ATOM      9  N   UNL     1       3.907   5.216 -13.571  0.00  0.00    +0.081 N 
ATOM     10  O   UNL     1       3.025   4.909 -14.565  0.00  0.00    -0.576 OA
ENDBRANCH   1   9
BRANCH   3  11
ATOM     11  N   UNL     1       3.852   4.727  -8.857  0.00  0.00    +0.085 N 
ATOM     12  O   UNL     1       3.081   3.606  -8.598  0.00  0.00    -0.576 OA
ATOM     13  O   UNL     1       4.934   4.922  -8.282  0.00  0.00    +0.042 OA
ENDBRANCH   3  11
BRANCH   6  14
ATOM     14  N   UNL     1       0.114   6.560 -11.028  0.00  0.00    +0.085 N 
ATOM     15  O   UNL     1      -0.474   7.702 -11.549  0.00  0.00    -0.576 OA
ATOM     16  O   UNL     1      -0.495   5.490 -11.228  0.00  0.00    +0.042 OA
ENDBRANCH   6  14
TORSDOF 3
ENDMDL
MODEL 7
REMARK VINA RESULT:      -5.4      2.424      4.648
REMARK  Name = 
REMARK  3 active torsions:
REMARK  status: ('A' for Active; 'I' for Inactive)
REMARK    1  A    between atoms: N_2  and  C_4
REMARK    2  A    between atoms: C_6  and  N_7
REMARK    3  A    between atoms: C_12  and  N_13
REMARK                            x       y       z     vdW  Elec       q    Type
REMARK                         _______ _______ _______ _____ _____    ______ ____
ROOT
ATOM      1  C   UNL     1       4.235   6.277 -10.492  0.00  0.00    +0.303 A 
ATOM      2  C   UNL     1       3.430   5.804 -11.522  0.00  0.00    +0.154 A 
ATOM      3  C   UNL     1       2.050   5.949 -11.435  0.00  0.00    +0.341 A 
ATOM      4  C   UNL     1       1.548   6.087 -10.150  0.00  0.00    +0.333 A 
ATOM      5  O   UNL     1       0.181   5.969 -10.004  0.00  0.00    -0.273 OA
ATOM      6  C   UNL     1       2.330   6.502  -9.081  0.00  0.00    +0.341 A 
ATOM      7  C   UNL     1       3.662   6.803  -9.340  0.00  0.00    +0.154 A 
ENDROOT
BRANCH   1   9
ATOM      8  O   UNL     1       5.645   7.945 -11.066  0.00  0.00    +0.041 OA
ATOM      9  N   UNL     1       5.571   6.728 -10.755  0.00  0.00    +0.081 N 
ATOM     10  O   UNL     1       6.642   6.059 -10.239  0.00  0.00    -0.576 OA
ENDBRANCH   1   9
BRANCH   3  11
ATOM     11  N   UNL     1       1.241   6.167 -12.597  0.00  0.00    +0.085 N 
ATOM     12  O   UNL     1       0.960   7.477 -12.946  0.00  0.00    -0.576 OA
ATOM     13  O   UNL     1       0.944   5.216 -13.338  0.00  0.00    +0.042 OA
ENDBRANCH   3  11
BRANCH   6  14
ATOM     14  N   UNL     1       1.688   7.275  -8.057  0.00  0.00    +0.085 N 
ATOM     15  O   UNL     1       1.326   6.554  -6.930  0.00  0.00    -0.576 OA
ATOM     16  O   UNL     1       2.112   8.431  -7.855  0.00  0.00    +0.042 OA
ENDBRANCH   6  14
TORSDOF 3
ENDMDL
MODEL 8
REMARK VINA RESULT:      -5.4      6.481      9.722
REMARK  Name = 
REMARK  3 active torsions:
REMARK  status: ('A' for Active; 'I' for Inactive)
REMARK    1  A    between atoms: N_2  and  C_4
REMARK    2  A    between atoms: C_6  and  N_7
REMARK    3  A    between atoms: C_12  and  N_13
REMARK                            x       y       z     vdW  Elec       q    Type
REMARK                         _______ _______ _______ _____ _____    ______ ____
ROOT
ATOM      1  C   UNL     1      -0.733   6.379  -5.108  0.00  0.00    +0.303 A 
ATOM      2  C   UNL     1       0.280   6.162  -6.034  0.00  0.00    +0.154 A 
ATOM      3  C   UNL     1       1.464   5.558  -5.627  0.00  0.00    +0.341 A 
ATOM      4  C   UNL     1       1.753   5.671  -4.275  0.00  0.00    +0.333 A 
ATOM      5  O   UNL     1       3.028   5.320  -3.883  0.00  0.00    -0.273 OA
ATOM      6  C   UNL     1       0.781   5.942  -3.322  0.00  0.00    +0.341 A 
ATOM      7  C   UNL     1      -0.529   6.084  -3.765  0.00  0.00    +0.154 A 
ENDROOT
BRANCH   1   9
ATOM      8  O   UNL     1      -2.693   7.483  -5.301  0.00  0.00    +0.041 OA
ATOM      9  N   UNL     1      -2.108   6.390  -5.515  0.00  0.00    +0.081 N 
ATOM     10  O   UNL     1      -2.557   5.517  -6.462  0.00  0.00    -0.576 OA
ENDBRANCH   1   9
BRANCH   3  11
ATOM     11  N   UNL     1       2.208   4.695  -6.496  0.00  0.00    +0.085 N 
ATOM     12  O   UNL     1       3.227   5.262  -7.241  0.00  0.00    -0.576 OA
ATOM     13  O   UNL     1       2.037   3.467  -6.452  0.00  0.00    +0.042 OA
ENDBRANCH   3  11
BRANCH   6  14
ATOM     14  N   UNL     1       0.956   5.364  -2.020  0.00  0.00    +0.085 N 
ATOM     15  O   UNL     1       1.418   6.245  -1.055  0.00  0.00    -0.576 OA
ATOM     16  O   UNL     1       0.110   4.529  -1.641  0.00  0.00    +0.042 OA
ENDBRANCH   6  14
TORSDOF 3
ENDMDL
MODEL 9
REMARK VINA RESULT:      -5.4      5.592      7.827
REMARK  Name = 
REMARK  3 active torsions:
REMARK  status: ('A' for Active; 'I' for Inactive)
REMARK    1  A    between atoms: N_2  and  C_4
REMARK    2  A    between atoms: C_6  and  N_7
REMARK    3  A    between atoms: C_12  and  N_13
REMARK                            x       y       z     vdW  Elec       q    Type
REMARK                         _______ _______ _______ _____ _____    ______ ____
ROOT
ATOM      1  C   UNL     1       0.327   5.378  -7.898  0.00  0.00    +0.303 A 
ATOM      2  C   UNL     1      -0.856   5.359  -7.170  0.00  0.00    +0.154 A 
ATOM      3  C   UNL     1      -0.818   5.558  -5.795  0.00  0.00    +0.341 A 
ATOM      4  C   UNL     1       0.392   5.263  -5.186  0.00  0.00    +0.333 A 
ATOM      5  O   UNL     1       0.392   5.195  -3.808  0.00  0.00    -0.273 OA
ATOM      6  C   UNL     1       1.590   5.216  -5.886  0.00  0.00    +0.341 A 
ATOM      7  C   UNL     1       1.549   5.497  -7.247  0.00  0.00    +0.154 A 
ENDROOT
BRANCH   1   9
ATOM      8  O   UNL     1       1.074   6.795  -9.490  0.00  0.00    +0.041 OA
ATOM      9  N   UNL     1       0.337   5.800  -9.269  0.00  0.00    +0.081 N 
ATOM     10  O   UNL     1       0.000   4.930 -10.264  0.00  0.00    -0.576 OA
ENDBRANCH   1   9
BRANCH   3  11
ATOM     11  N   UNL     1      -1.876   6.230  -5.101  0.00  0.00    +0.085 N 
ATOM     12  O   UNL     1      -2.809   5.446  -4.443  0.00  0.00    -0.576 OA
ATOM     13  O   UNL     1      -1.854   7.464  -4.972  0.00  0.00    +0.042 OA
ENDBRANCH   3  11
BRANCH   6  14
ATOM     14  N   UNL     1       2.778   5.616  -5.187  0.00  0.00    +0.085 N 
ATOM     15  O   UNL     1       3.606   4.571  -4.810  0.00  0.00    -0.576 OA
ATOM     16  O   UNL     1       3.348   6.659  -5.568  0.00  0.00    +0.042 OA
ENDBRANCH   6  14
TORSDOF 3
ENDMDL
