MODEL 1
REMARK VINA RESULT:      -9.0      0.000      0.000
REMARK  Name = 
REMARK  10 active torsions:
REMARK  status: ('A' for Active; 'I' for Inactive)
REMARK    1  A    between atoms: C_2  and  O_3
REMARK    2  A    between atoms: O_3  and  C_4
REMARK    3  A    between atoms: C_4  and  C_6
REMARK    4  A    between atoms: C_6  and  C_7
REMARK    5  A    between atoms: C_6  and  N_15
REMARK    6  A    between atoms: C_7  and  C_8
REMARK    7  A    between atoms: C_8  and  C_9
REMARK    8  A    between atoms: N_15  and  CA_16
REMARK    9  A    between atoms: CA_16  and  C_18
REMARK   10  A    between atoms: C_29  and  C_30
REMARK                            x       y       z     vdW  Elec       q    Type
REMARK                         _______ _______ _______ _____ _____    ______ ____
ROOT
ATOM      1  CA  ALA A   1       2.977   5.648  -7.153  0.00  0.00    +0.149 C 
ATOM      2  CB  ALA A   1       2.544   7.245  -7.202  0.00  0.00    +0.029 C 
ENDROOT
BRANCH   1   3
ATOM      3  C   ALA A   1       1.938   5.346  -5.950  0.00  0.00    +0.242 C 
ATOM      4  N   UNK A   2       1.613   6.525  -5.295  0.00  0.00    -0.266 N 
ATOM      5  C   UNK A   2       1.768   6.638  -3.731  0.00  0.00    +0.184 C 
ATOM      6  C   UNK A   2       0.850   5.283  -3.490  0.00  0.00    +0.058 C 
ATOM      7  C   UNK A   2      -0.511   5.653  -3.926  0.00  0.00    -0.022 A 
ATOM      8  C   UNK A   2      -0.702   6.169  -5.203  0.00  0.00    -0.006 A 
ATOM      9  C   UNK A   2      -1.834   5.858  -5.925  0.00  0.00    -0.003 A 
ATOM     10  C   UNK A   2      -2.911   5.389  -5.183  0.00  0.00    -0.000 A 
ATOM     11  C   UNK A   2      -2.873   5.387  -3.792  0.00  0.00    -0.000 A 
ATOM     12  C   UNK A   2      -1.637   5.371  -3.161  0.00  0.00    -0.004 A 
ATOM     13  C   UNK A   2       0.338   7.131  -5.682  0.00  0.00    +0.120 C 
ATOM     14  O   ALA A   1       1.809   4.182  -5.586  0.00  0.00    -0.273 OA
BRANCH   5  15
ATOM     15  C   UNK A   2       3.197   5.873  -3.706  0.00  0.00    +0.383 C 
ATOM     16  O   UNK A   2       4.164   6.894  -3.796  0.00  0.00    -0.244 OA
ATOM     17  O   UNK A   2       3.436   5.138  -2.728  0.00  0.00    -0.244 OA
ENDBRANCH   5  15
ENDBRANCH   1   3
BRANCH   1  18
ATOM     18  N   ALA A   1       1.937   5.242  -8.261  0.00  0.00    -0.201 NA
BRANCH  18  19
ATOM     19  C   UNK A   0       2.098   6.361  -9.363  0.00  0.00    +0.172 C 
BRANCH  19  20
ATOM     20  C   UNK A   0       0.655   6.156 -10.083  0.00  0.00    +0.333 C 
ATOM     21  O   UNK A   0      -0.137   5.738  -9.176  0.00  0.00    -0.249 OA
BRANCH  20  22
ATOM     22  O   UNK A   0       0.165   7.366 -10.594  0.00  0.00    -0.448 OA
BRANCH  22  24
ATOM     23  C   UNK A   0       0.286   7.291 -12.594  0.00  0.00    +0.051 C 
ATOM     24  C   UNK A   0      -0.116   7.381 -11.971  0.00  0.00    +0.209 C 
ENDBRANCH  22  24
ENDBRANCH  20  22
ENDBRANCH  19  20
BRANCH  19  25
ATOM     25  C   UNK A   0       2.890   5.334 -10.380  0.00  0.00    +0.033 C 
BRANCH  25  26
ATOM     26  C   UNK A   0       3.761   6.087 -11.270  0.00  0.00    +0.028 C 
BRANCH  26  27
ATOM     27  C   UNK A   0       4.945   6.603 -10.538  0.00  0.00    -0.022 A 
ATOM     28  C   UNK A   0       5.653   5.725  -9.723  0.00  0.00    -0.004 A 
ATOM     29  C   UNK A   0       7.036   5.844  -9.645  0.00  0.00    -0.000 A 
ATOM     30  C   UNK A   0       7.727   6.780 -10.389  0.00  0.00    -0.000 A 
ATOM     31  C   UNK A   0       7.004   7.726 -11.107  0.00  0.00    -0.000 A 
ATOM     32  C   UNK A   0       5.618   7.719 -10.997  0.00  0.00    -0.004 A 
ENDBRANCH  26  27
ENDBRANCH  25  26
ENDBRANCH  19  25
ENDBRANCH  18  19
ENDBRANCH   1  18
TORSDOF 10
ENDMDL
MODEL 2
REMARK VINA RESULT:      -8.6      1.743      8.375
REMARK  Name = 
REMARK  10 active torsions:
REMARK  status: ('A' for Active; 'I' for Inactive)
REMARK    1  A    between atoms: C_2  and  O_3
REMARK    2  A    between atoms: O_3  and  C_4
REMARK    3  A    between atoms: C_4  and  C_6
REMARK    4  A    between atoms: C_6  and  C_7
REMARK    5  A    between atoms: C_6  and  N_15
REMARK    6  A    between atoms: C_7  and  C_8
REMARK    7  A    between atoms: C_8  and  C_9
REMARK    8  A    between atoms: N_15  and  CA_16
REMARK    9  A    between atoms: CA_16  and  C_18
REMARK   10  A    between atoms: C_29  and  C_30
REMARK                            x       y       z     vdW  Elec       q    Type
REMARK                         _______ _______ _______ _____ _____    ______ ____
ROOT
ATOM      1  CA  ALA A   1       3.208   6.607  -7.907  0.00  0.00    +0.149 C 
ATOM      2  CB  ALA A   1       4.349   5.855  -6.974  0.00  0.00    +0.029 C 
ENDROOT
BRANCH   1   3
ATOM      3  C   ALA A   1       3.801   5.950  -9.261  0.00  0.00    +0.242 C 
ATOM      4  N   UNK A   2       3.773   6.877 -10.293  0.00  0.00    -0.266 N 
ATOM      5  C   UNK A   2       3.089   6.523 -11.667  0.00  0.00    +0.184 C 
ATOM      6  C   UNK A   2       3.993   5.147 -11.822  0.00  0.00    +0.058 C 
ATOM      7  C   UNK A   2       5.381   5.614 -12.015  0.00  0.00    -0.022 A 
ATOM      8  C   UNK A   2       5.943   6.483 -11.087  0.00  0.00    -0.006 A 
ATOM      9  C   UNK A   2       7.277   6.387 -10.752  0.00  0.00    -0.003 A 
ATOM     10  C   UNK A   2       8.078   5.707 -11.661  0.00  0.00    -0.000 A 
ATOM     11  C   UNK A   2       7.572   5.292 -12.888  0.00  0.00    -0.000 A 
ATOM     12  C   UNK A   2       6.202   5.105 -13.014  0.00  0.00    -0.004 A 
ATOM     13  C   UNK A   2       5.042   7.557 -10.565  0.00  0.00    +0.120 C 
ATOM     14  O   ALA A   1       3.909   4.729  -9.303  0.00  0.00    -0.273 OA
BRANCH   5  15
ATOM     15  C   UNK A   2       1.814   5.802 -10.972  0.00  0.00    +0.383 C 
ATOM     16  O   UNK A   2       0.917   6.846 -10.673  0.00  0.00    -0.244 OA
ATOM     17  O   UNK A   2       1.236   4.910 -11.622  0.00  0.00    -0.244 OA
ENDBRANCH   5  15
ENDBRANCH   1   3
BRANCH   1  18
ATOM     18  N   ALA A   1       2.158   5.454  -7.711  0.00  0.00    -0.201 NA
BRANCH  18  19
ATOM     19  C   UNK A   0       1.283   5.939  -6.489  0.00  0.00    +0.172 C 
BRANCH  19  20
ATOM     20  C   UNK A   0       1.173   4.508  -5.727  0.00  0.00    +0.333 C 
ATOM     21  O   UNK A   0       1.899   3.697  -6.390  0.00  0.00    -0.249 OA
BRANCH  20  22
ATOM     22  O   UNK A   0       1.660   4.591  -4.416  0.00  0.00    -0.448 OA
BRANCH  22  24
ATOM     23  C   UNK A   0       0.997   5.696  -2.881  0.00  0.00    +0.051 C 
ATOM     24  C   UNK A   0       0.867   5.317  -3.511  0.00  0.00    +0.209 C 
ENDBRANCH  22  24
ENDBRANCH  20  22
ENDBRANCH  19  20
BRANCH  19  25
ATOM     25  C   UNK A   0      -0.119   5.739  -7.333  0.00  0.00    +0.033 C 
BRANCH  25  26
ATOM     26  C   UNK A   0      -1.073   4.977  -6.540  0.00  0.00    +0.028 C 
BRANCH  26  27
ATOM     27  C   UNK A   0      -1.954   5.883  -5.761  0.00  0.00    -0.022 A 
ATOM     28  C   UNK A   0      -2.717   5.340  -4.732  0.00  0.00    -0.004 A 
ATOM     29  C   UNK A   0      -2.921   6.087  -3.577  0.00  0.00    -0.000 A 
ATOM     30  C   UNK A   0      -2.349   7.332  -3.409  0.00  0.00    -0.000 A 
ATOM     31  C   UNK A   0      -1.688   7.914  -4.484  0.00  0.00    -0.000 A 
ATOM     32  C   UNK A   0      -1.684   7.237  -5.699  0.00  0.00    -0.004 A 
ENDBRANCH  26  27
ENDBRANCH  25  26
ENDBRANCH  19  25
ENDBRANCH  18  19
ENDBRANCH   1  18
TORSDOF 10
ENDMDL
MODEL 3
REMARK VINA RESULT:      -8.5      2.468      4.802
REMARK  Name = 
REMARK  10 active torsions:
REMARK  status: ('A' for Active; 'I' for Inactive)
REMARK    1  A    between atoms: C_2  and  O_3
REMARK    2  A    between atoms: O_3  and  C_4
REMARK    3  A    between atoms: C_4  and  C_6
REMARK    4  A    between atoms: C_6  and  C_7
REMARK    5  A    between atoms: C_6  and  N_15
REMARK    6  A    between atoms: C_7  and  C_8
REMARK    7  A    between atoms: C_8  and  C_9
REMARK    8  A    between atoms: N_15  and  CA_16
REMARK    9  A    between atoms: CA_16  and  C_18
REMARK   10  A    between atoms: C_29  and  C_30
REMARK                            x       y       z     vdW  Elec       q    Type
REMARK                         _______ _______ _______ _____ _____    ______ ____
ROOT
ATOM      1  CA  ALA A   1       0.993   5.190  -5.446  0.00  0.00    +0.149 C 
ATOM      2  CB  ALA A   1       2.433   5.583  -4.732  0.00  0.00    +0.029 C 
ENDROOT
BRANCH   1   3
ATOM      3  C   ALA A   1       0.164   6.119  -4.413  0.00  0.00    +0.242 C 
ATOM      4  N   UNK A   2      -0.815   5.368  -3.777  0.00  0.00    -0.266 N 
ATOM      5  C   UNK A   2      -2.316   5.846  -3.779  0.00  0.00    +0.184 C 
ATOM      6  C   UNK A   2      -1.899   7.329  -3.178  0.00  0.00    +0.058 C 
ATOM      7  C   UNK A   2      -1.415   7.071  -1.807  0.00  0.00    -0.022 A 
ATOM      8  C   UNK A   2      -0.400   6.144  -1.605  0.00  0.00    -0.006 A 
ATOM      9  C   UNK A   2       0.556   6.348  -0.633  0.00  0.00    -0.003 A 
ATOM     10  C   UNK A   2       0.217   7.255   0.364  0.00  0.00    -0.000 A 
ATOM     11  C   UNK A   2      -1.065   7.791   0.435  0.00  0.00    -0.000 A 
ATOM     12  C   UNK A   2      -1.836   7.828  -0.719  0.00  0.00    -0.004 A 
ATOM     13  C   UNK A   2      -0.476   4.900  -2.432  0.00  0.00    +0.120 C 
ATOM     14  O   ALA A   1       0.273   7.336  -4.524  0.00  0.00    -0.273 OA
BRANCH   5  15
ATOM     15  C   UNK A   2      -2.289   6.288  -5.338  0.00  0.00    +0.383 C 
ATOM     16  O   UNK A   2      -2.770   5.170  -6.048  0.00  0.00    -0.244 OA
ATOM     17  O   UNK A   2      -2.930   7.309  -5.655  0.00  0.00    -0.244 OA
ENDBRANCH   5  15
ENDBRANCH   1   3
BRANCH   1  18
ATOM     18  N   ALA A   1       1.107   6.339  -6.513  0.00  0.00    -0.201 NA
BRANCH  18  19
ATOM     19  C   UNK A   0       1.848   5.657  -7.729  0.00  0.00    +0.172 C 
BRANCH  19  20
ATOM     20  C   UNK A   0       2.398   7.017  -8.429  0.00  0.00    +0.333 C 
ATOM     21  O   UNK A   0       2.506   7.878  -7.496  0.00  0.00    -0.249 OA
BRANCH  20  22
ATOM     22  O   UNK A   0       3.657   6.816  -9.013  0.00  0.00    -0.448 OA
BRANCH  22  24
ATOM     23  C   UNK A   0       4.157   6.566 -10.938  0.00  0.00    +0.051 C 
ATOM     24  C   UNK A   0       3.656   6.518 -10.387  0.00  0.00    +0.209 C 
ENDBRANCH  22  24
ENDBRANCH  20  22
ENDBRANCH  19  20
BRANCH  19  25
ATOM     25  C   UNK A   0       0.466   5.606  -8.625  0.00  0.00    +0.033 C 
BRANCH  25  26
ATOM     26  C   UNK A   0       0.655   4.748  -9.785  0.00  0.00    +0.028 C 
BRANCH  26  27
ATOM     27  C   UNK A   0       0.111   5.387 -11.010  0.00  0.00    -0.022 A 
ATOM     28  C   UNK A   0      -0.418   6.669 -10.906  0.00  0.00    -0.004 A 
ATOM     29  C   UNK A   0      -0.235   7.562 -11.956  0.00  0.00    -0.000 A 
ATOM     30  C   UNK A   0       0.497   7.222 -13.077  0.00  0.00    -0.000 A 
ATOM     31  C   UNK A   0       0.922   5.906 -13.222  0.00  0.00    -0.000 A 
ATOM     32  C   UNK A   0       0.538   4.979 -12.258  0.00  0.00    -0.004 A 
ENDBRANCH  26  27
ENDBRANCH  25  26
ENDBRANCH  19  25
ENDBRANCH  18  19
ENDBRANCH   1  18
TORSDOF 10
ENDMDL
MODEL 4
REMARK VINA RESULT:      -8.3      1.557      2.051
REMARK  Name = 
REMARK  10 active torsions:
REMARK  status: ('A' for Active; 'I' for Inactive)
REMARK    1  A    between atoms: C_2  and  O_3
REMARK    2  A    between atoms: O_3  and  C_4
REMARK    3  A    between atoms: C_4  and  C_6
REMARK    4  A    between atoms: C_6  and  C_7
REMARK    5  A    between atoms: C_6  and  N_15
REMARK    6  A    between atoms: C_7  and  C_8
REMARK    7  A    between atoms: C_8  and  C_9
REMARK    8  A    between atoms: N_15  and  CA_16
REMARK    9  A    between atoms: CA_16  and  C_18
REMARK   10  A    between atoms: C_29  and  C_30
REMARK                            x       y       z     vdW  Elec       q    Type
REMARK                         _______ _______ _______ _____ _____    ______ ____
ROOT
ATOM      1  CA  ALA A   1       0.551   6.332  -7.772  0.00  0.00    +0.149 C 
ATOM      2  CB  ALA A   1      -0.596   5.231  -8.234  0.00  0.00    +0.029 C 
ENDROOT
BRANCH   1   3
ATOM      3  C   ALA A   1       0.449   5.872  -6.225  0.00  0.00    +0.242 C 
ATOM      4  N   UNK A   2       0.580   6.973  -5.391  0.00  0.00    -0.266 N 
ATOM      5  C   UNK A   2       1.646   6.974  -4.230  0.00  0.00    +0.184 C 
ATOM      6  C   UNK A   2       1.065   5.549  -3.625  0.00  0.00    +0.058 C 
ATOM      7  C   UNK A   2      -0.286   5.864  -3.118  0.00  0.00    -0.022 A 
ATOM      8  C   UNK A   2      -1.210   6.464  -3.966  0.00  0.00    -0.006 A 
ATOM      9  C   UNK A   2      -2.547   6.139  -3.891  0.00  0.00    -0.003 A 
ATOM     10  C   UNK A   2      -2.957   5.546  -2.703  0.00  0.00    -0.000 A 
ATOM     11  C   UNK A   2      -2.088   5.438  -1.622  0.00  0.00    -0.000 A 
ATOM     12  C   UNK A   2      -0.721   5.452  -1.864  0.00  0.00    -0.004 A 
ATOM     13  C   UNK A   2      -0.673   7.525  -4.873  0.00  0.00    +0.120 C 
ATOM     14  O   ALA A   1       0.570   4.677  -5.975  0.00  0.00    -0.273 OA
BRANCH   5  15
ATOM     15  C   UNK A   2       2.804   6.303  -5.144  0.00  0.00    +0.383 C 
ATOM     16  O   UNK A   2       3.571   7.383  -5.622  0.00  0.00    -0.244 OA
ATOM     17  O   UNK A   2       3.542   5.456  -4.603  0.00  0.00    -0.244 OA
ENDBRANCH   5  15
ENDBRANCH   1   3
BRANCH   1  18
ATOM     18  N   ALA A   1       1.742   5.350  -8.070  0.00  0.00    -0.201 NA
BRANCH  18  19
ATOM     19  C   UNK A   0       2.804   6.253  -8.812  0.00  0.00    +0.172 C 
BRANCH  19  20
ATOM     20  C   UNK A   0       2.048   6.330 -10.248  0.00  0.00    +0.333 C 
ATOM     21  O   UNK A   0       2.839   6.951 -11.032  0.00  0.00    -0.249 OA
BRANCH  20  22
ATOM     22  O   UNK A   0       1.804   5.050 -10.765  0.00  0.00    -0.448 OA
BRANCH  22  24
ATOM     23  C   UNK A   0       0.104   4.687 -11.763  0.00  0.00    +0.051 C 
ATOM     24  C   UNK A   0       0.797   4.964 -11.742  0.00  0.00    +0.209 C 
ENDBRANCH  22  24
ENDBRANCH  20  22
ENDBRANCH  19  20
BRANCH  19  25
ATOM     25  C   UNK A   0       3.720   4.946  -9.223  0.00  0.00    +0.033 C 
BRANCH  25  26
ATOM     26  C   UNK A   0       5.060   5.083  -8.671  0.00  0.00    +0.028 C 
BRANCH  26  27
ATOM     27  C   UNK A   0       6.047   5.369  -9.743  0.00  0.00    -0.022 A 
ATOM     28  C   UNK A   0       5.592   5.451 -11.055  0.00  0.00    -0.004 A 
ATOM     29  C   UNK A   0       6.171   6.379 -11.913  0.00  0.00    -0.000 A 
ATOM     30  C   UNK A   0       7.152   7.250 -11.482  0.00  0.00    -0.000 A 
ATOM     31  C   UNK A   0       7.680   7.083 -10.207  0.00  0.00    -0.000 A 
ATOM     32  C   UNK A   0       7.234   6.008  -9.446  0.00  0.00    -0.004 A 
ENDBRANCH  26  27
ENDBRANCH  25  26
ENDBRANCH  19  25
ENDBRANCH  18  19
ENDBRANCH   1  18
TORSDOF 10
ENDMDL
MODEL 5
REMARK VINA RESULT:      -8.0      2.448      4.612
REMARK  Name = 
REMARK  10 active torsions:
REMARK  status: ('A' for Active; 'I' for Inactive)
REMARK    1  A    between atoms: C_2  and  O_3
REMARK    2  A    between atoms: O_3  and  C_4
REMARK    3  A    between atoms: C_4  and  C_6
REMARK    4  A    between atoms: C_6  and  C_7
REMARK    5  A    between atoms: C_6  and  N_15
REMARK    6  A    between atoms: C_7  and  C_8
REMARK    7  A    between atoms: C_8  and  C_9
REMARK    8  A    between atoms: N_15  and  CA_16
REMARK    9  A    between atoms: CA_16  and  C_18
REMARK   10  A    between atoms: C_29  and  C_30
REMARK                            x       y       z     vdW  Elec       q    Type
REMARK                         _______ _______ _______ _____ _____    ______ ____
ROOT
ATOM      1  CA  ALA A   1       0.722   4.884  -5.333  0.00  0.00    +0.149 C 
ATOM      2  CB  ALA A   1       2.081   4.791  -4.393  0.00  0.00    +0.029 C 
ENDROOT
BRANCH   1   3
ATOM      3  C   ALA A   1       0.027   5.938  -4.322  0.00  0.00    +0.242 C 
ATOM      4  N   UNK A   2      -1.042   5.340  -3.671  0.00  0.00    -0.266 N 
ATOM      5  C   UNK A   2      -2.466   6.015  -3.685  0.00  0.00    +0.184 C 
ATOM      6  C   UNK A   2      -1.852   7.442  -3.118  0.00  0.00    +0.058 C 
ATOM      7  C   UNK A   2      -1.405   7.152  -1.740  0.00  0.00    -0.022 A 
ATOM      8  C   UNK A   2      -0.523   6.101  -1.516  0.00  0.00    -0.006 A 
ATOM      9  C   UNK A   2       0.453   6.197  -0.548  0.00  0.00    -0.003 A 
ATOM     10  C   UNK A   2       0.241   7.163   0.428  0.00  0.00    -0.000 A 
ATOM     11  C   UNK A   2      -0.957   7.868   0.486  0.00  0.00    -0.000 A 
ATOM     12  C   UNK A   2      -1.718   7.982  -0.670  0.00  0.00    -0.004 A 
ATOM     13  C   UNK A   2      -0.767   4.860  -2.315  0.00  0.00    +0.120 C 
ATOM     14  O   ALA A   1       0.299   7.127  -4.460  0.00  0.00    -0.273 OA
BRANCH   5  15
ATOM     15  C   UNK A   2      -2.382   6.415  -5.254  0.00  0.00    +0.383 C 
ATOM     16  O   UNK A   2      -2.876   5.293  -5.948  0.00  0.00    -0.244 OA
ATOM     17  O   UNK A   2      -2.983   7.445  -5.616  0.00  0.00    -0.244 OA
ENDBRANCH   5  15
ENDBRANCH   1   3
BRANCH   1  18
ATOM     18  N   ALA A   1       1.319   6.023  -6.239  0.00  0.00    -0.201 NA
BRANCH  18  19
ATOM     19  C   UNK A   0       2.831   5.607  -6.426  0.00  0.00    +0.172 C 
BRANCH  19  20
ATOM     20  C   UNK A   0       3.461   7.106  -6.442  0.00  0.00    +0.333 C 
ATOM     21  O   UNK A   0       2.665   7.817  -7.138  0.00  0.00    -0.249 OA
BRANCH  20  22
ATOM     22  O   UNK A   0       3.538   7.639  -5.148  0.00  0.00    -0.448 OA
BRANCH  22  24
ATOM     23  C   UNK A   0       5.400   7.483  -4.424  0.00  0.00    +0.051 C 
ATOM     24  C   UNK A   0       4.680   7.289  -4.407  0.00  0.00    +0.209 C 
ENDBRANCH  22  24
ENDBRANCH  20  22
ENDBRANCH  19  20
BRANCH  19  25
ATOM     25  C   UNK A   0       2.670   5.522  -8.064  0.00  0.00    +0.033 C 
BRANCH  25  26
ATOM     26  C   UNK A   0       3.822   4.846  -8.644  0.00  0.00    +0.028 C 
BRANCH  26  27
ATOM     27  C   UNK A   0       4.841   5.828  -9.093  0.00  0.00    -0.022 A 
ATOM     28  C   UNK A   0       6.184   5.521  -8.903  0.00  0.00    -0.004 A 
ATOM     29  C   UNK A   0       7.108   5.911  -9.865  0.00  0.00    -0.000 A 
ATOM     30  C   UNK A   0       6.720   6.553 -11.024  0.00  0.00    -0.000 A 
ATOM     31  C   UNK A   0       5.396   6.958 -11.152  0.00  0.00    -0.000 A 
ATOM     32  C   UNK A   0       4.537   6.748 -10.078  0.00  0.00    -0.004 A 
ENDBRANCH  26  27
ENDBRANCH  25  26
ENDBRANCH  19  25
ENDBRANCH  18  19
ENDBRANCH   1  18
TORSDOF 10
ENDMDL
MODEL 6
REMARK VINA RESULT:      -8.0      2.395      7.821
REMARK  Name = 
REMARK  10 active torsions:
REMARK  status: ('A' for Active; 'I' for Inactive)
REMARK    1  A    between atoms: C_2  and  O_3
REMARK    2  A    between atoms: O_3  and  C_4
REMARK    3  A    between atoms: C_4  and  C_6
REMARK    4  A    between atoms: C_6  and  C_7
REMARK    5  A    between atoms: C_6  and  N_15
REMARK    6  A    between atoms: C_7  and  C_8
REMARK    7  A    between atoms: C_8  and  C_9
REMARK    8  A    between atoms: N_15  and  CA_16
REMARK    9  A    between atoms: CA_16  and  C_18
REMARK   10  A    between atoms: C_29  and  C_30
REMARK                            x       y       z     vdW  Elec       q    Type
REMARK                         _______ _______ _______ _____ _____    ______ ____
ROOT
ATOM      1  CA  ALA A   1       1.828   7.461  -7.391  0.00  0.00    +0.149 C 
ATOM      2  CB  ALA A   1       3.388   7.130  -6.947  0.00  0.00    +0.029 C 
ENDROOT
BRANCH   1   3
ATOM      3  C   ALA A   1       2.062   6.853  -8.872  0.00  0.00    +0.242 C 
ATOM      4  N   UNK A   2       1.147   5.840  -9.121  0.00  0.00    -0.266 N 
ATOM      5  C   UNK A   2       1.636   4.421  -9.600  0.00  0.00    +0.184 C 
ATOM      6  C   UNK A   2       2.492   5.082 -10.851  0.00  0.00    +0.058 C 
ATOM      7  C   UNK A   2       1.476   5.640 -11.766  0.00  0.00    -0.022 A 
ATOM      8  C   UNK A   2       0.534   6.535 -11.274  0.00  0.00    -0.006 A 
ATOM      9  C   UNK A   2       0.094   7.589 -12.046  0.00  0.00    -0.003 A 
ATOM     10  C   UNK A   2       0.300   7.458 -13.415  0.00  0.00    -0.000 A 
ATOM     11  C   UNK A   2       0.782   6.270 -13.954  0.00  0.00    -0.000 A 
ATOM     12  C   UNK A   2       1.511   5.417 -13.138  0.00  0.00    -0.004 A 
ATOM     13  C   UNK A   2      -0.019   6.225  -9.919  0.00  0.00    +0.120 C 
ATOM     14  O   ALA A   1       3.120   7.114  -9.436  0.00  0.00    -0.273 OA
BRANCH   5  15
ATOM     15  C   UNK A   2       2.878   4.376  -8.559  0.00  0.00    +0.383 C 
ATOM     16  O   UNK A   2       2.451   3.539  -7.510  0.00  0.00    -0.244 OA
ATOM     17  O   UNK A   2       3.979   3.990  -8.998  0.00  0.00    -0.244 OA
ENDBRANCH   5  15
ENDBRANCH   1   3
BRANCH   1  18
ATOM     18  N   ALA A   1       1.285   6.097  -6.829  0.00  0.00    -0.201 NA
BRANCH  18  19
ATOM     19  C   UNK A   0       0.378   6.522  -5.608  0.00  0.00    +0.172 C 
BRANCH  19  20
ATOM     20  C   UNK A   0       1.232   5.777  -4.442  0.00  0.00    +0.333 C 
ATOM     21  O   UNK A   0       1.897   6.689  -3.852  0.00  0.00    -0.249 OA
BRANCH  20  22
ATOM     22  O   UNK A   0       0.388   5.153  -3.514  0.00  0.00    -0.448 OA
BRANCH  22  24
ATOM     23  C   UNK A   0       0.569   4.916  -1.531  0.00  0.00    +0.051 C 
ATOM     24  C   UNK A   0       0.783   5.243  -2.168  0.00  0.00    +0.209 C 
ENDBRANCH  22  24
ENDBRANCH  20  22
ENDBRANCH  19  20
BRANCH  19  25
ATOM     25  C   UNK A   0      -0.645   5.252  -5.844  0.00  0.00    +0.033 C 
BRANCH  25  26
ATOM     26  C   UNK A   0      -1.977   5.740  -6.171  0.00  0.00    +0.028 C 
BRANCH  26  27
ATOM     27  C   UNK A   0      -2.660   6.264  -4.961  0.00  0.00    -0.022 A 
ATOM     28  C   UNK A   0      -3.068   5.357  -3.988  0.00  0.00    -0.004 A 
ATOM     29  C   UNK A   0      -2.988   5.722  -2.649  0.00  0.00    -0.000 A 
ATOM     30  C   UNK A   0      -2.470   6.942  -2.261  0.00  0.00    -0.000 A 
ATOM     31  C   UNK A   0      -2.174   7.883  -3.240  0.00  0.00    -0.000 A 
ATOM     32  C   UNK A   0      -2.467   7.572  -4.563  0.00  0.00    -0.004 A 
ENDBRANCH  26  27
ENDBRANCH  25  26
ENDBRANCH  19  25
ENDBRANCH  18  19
ENDBRANCH   1  18
TORSDOF 10
ENDMDL
MODEL 7
REMARK VINA RESULT:      -7.9      2.297      7.262
REMARK  Name = 
REMARK  10 active torsions:
REMARK  status: ('A' for Active; 'I' for Inactive)
REMARK    1  A    between atoms: C_2  and  O_3
REMARK    2  A    between atoms: O_3  and  C_4
REMARK    3  A    between atoms: C_4  and  C_6
REMARK    4  A    between atoms: C_6  and  C_7
REMARK    5  A    between atoms: C_6  and  N_15
REMARK    6  A    between atoms: C_7  and  C_8
REMARK    7  A    between atoms: C_8  and  C_9
REMARK    8  A    between atoms: N_15  and  CA_16
REMARK    9  A    between atoms: CA_16  and  C_18
REMARK   10  A    between atoms: C_29  and  C_30
REMARK                            x       y       z     vdW  Elec       q    Type
REMARK                         _______ _______ _______ _____ _____    ______ ____
ROOT
ATOM      1  CA  ALA A   1       0.244   5.063  -6.212  0.00  0.00    +0.149 C 
ATOM      2  CB  ALA A   1      -0.848   5.311  -7.432  0.00  0.00    +0.029 C 
ENDROOT
BRANCH   1   3
ATOM      3  C   ALA A   1       1.443   5.719  -7.077  0.00  0.00    +0.242 C 
ATOM      4  N   UNK A   2       2.444   4.783  -7.289  0.00  0.00    -0.266 N 
ATOM      5  C   UNK A   2       3.939   5.114  -6.916  0.00  0.00    +0.184 C 
ATOM      6  C   UNK A   2       3.910   6.504  -7.811  0.00  0.00    +0.058 C 
ATOM      7  C   UNK A   2       3.789   6.060  -9.215  0.00  0.00    -0.022 A 
ATOM      8  C   UNK A   2       2.750   5.209  -9.574  0.00  0.00    -0.006 A 
ATOM      9  C   UNK A   2       2.133   5.331 -10.800  0.00  0.00    -0.003 A 
ATOM     10  C   UNK A   2       2.854   6.018 -11.771  0.00  0.00    -0.000 A 
ATOM     11  C   UNK A   2       4.167   6.413 -11.539  0.00  0.00    -0.000 A 
ATOM     12  C   UNK A   2       4.590   6.576 -10.226  0.00  0.00    -0.004 A 
ATOM     13  C   UNK A   2       2.425   4.124  -8.597  0.00  0.00    +0.120 C 
ATOM     14  O   ALA A   1       1.475   6.942  -7.172  0.00  0.00    -0.273 OA
BRANCH   5  15
ATOM     15  C   UNK A   2       3.548   5.818  -5.509  0.00  0.00    +0.383 C 
ATOM     16  O   UNK A   2       3.658   4.799  -4.543  0.00  0.00    -0.244 OA
ATOM     17  O   UNK A   2       4.212   6.814  -5.163  0.00  0.00    -0.244 OA
ENDBRANCH   5  15
ENDBRANCH   1   3
BRANCH   1  18
ATOM     18  N   ALA A   1      -0.102   6.425  -5.506  0.00  0.00    -0.201 NA
BRANCH  18  19
ATOM     19  C   UNK A   0      -0.834   5.989  -4.177  0.00  0.00    +0.172 C 
BRANCH  19  20
ATOM     20  C   UNK A   0      -1.432   7.448  -3.779  0.00  0.00    +0.333 C 
ATOM     21  O   UNK A   0      -2.123   7.832  -4.779  0.00  0.00    -0.249 OA
BRANCH  20  22
ATOM     22  O   UNK A   0      -2.264   7.367  -2.653  0.00  0.00    -0.448 OA
BRANCH  22  24
ATOM     23  C   UNK A   0      -3.929   6.252  -2.630  0.00  0.00    +0.051 C 
ATOM     24  C   UNK A   0      -3.184   6.305  -2.645  0.00  0.00    +0.209 C 
ENDBRANCH  22  24
ENDBRANCH  20  22
ENDBRANCH  19  20
BRANCH  19  25
ATOM     25  C   UNK A   0       0.540   6.172  -3.286  0.00  0.00    +0.033 C 
BRANCH  25  26
ATOM     26  C   UNK A   0       0.589   5.167  -2.234  0.00  0.00    +0.028 C 
BRANCH  26  27
ATOM     27  C   UNK A   0       1.685   5.460  -1.275  0.00  0.00    -0.022 A 
ATOM     28  C   UNK A   0       2.754   4.573  -1.202  0.00  0.00    -0.004 A 
ATOM     29  C   UNK A   0       4.032   5.073  -0.983  0.00  0.00    -0.000 A 
ATOM     30  C   UNK A   0       4.272   6.430  -0.882  0.00  0.00    -0.000 A 
ATOM     31  C   UNK A   0       3.187   7.298  -0.840  0.00  0.00    -0.000 A 
ATOM     32  C   UNK A   0       1.907   6.753  -0.843  0.00  0.00    -0.004 A 
ENDBRANCH  26  27
ENDBRANCH  25  26
ENDBRANCH  19  25
ENDBRANCH  18  19
ENDBRANCH   1  18
TORSDOF 10
ENDMDL
MODEL 8
REMARK VINA RESULT:      -7.9      1.868      8.246
REMARK  Name = 
REMARK  10 active torsions:
REMARK  status: ('A' for Active; 'I' for Inactive)
REMARK    1  A    between atoms: C_2  and  O_3
REMARK    2  A    between atoms: O_3  and  C_4
REMARK    3  A    between atoms: C_4  and  C_6
REMARK    4  A    between atoms: C_6  and  C_7
REMARK    5  A    between atoms: C_6  and  N_15
REMARK    6  A    between atoms: C_7  and  C_8
REMARK    7  A    between atoms: C_8  and  C_9
REMARK    8  A    between atoms: N_15  and  CA_16
REMARK    9  A    between atoms: CA_16  and  C_18
REMARK   10  A    between atoms: C_29  and  C_30
REMARK                            x       y       z     vdW  Elec       q    Type
REMARK                         _______ _______ _______ _____ _____    ______ ____
ROOT
ATOM      1  CA  ALA A   1       1.939   5.770  -8.571  0.00  0.00    +0.149 C 
ATOM      2  CB  ALA A   1       2.493   7.326  -8.463  0.00  0.00    +0.029 C 
ENDROOT
BRANCH   1   3
ATOM      3  C   ALA A   1       3.056   5.390  -9.677  0.00  0.00    +0.242 C 
ATOM      4  N   UNK A   2       3.394   6.514 -10.418  0.00  0.00    -0.266 N 
ATOM      5  C   UNK A   2       3.334   6.481 -11.992  0.00  0.00    +0.184 C 
ATOM      6  C   UNK A   2       4.295   5.136 -12.053  0.00  0.00    +0.058 C 
ATOM      7  C   UNK A   2       5.619   5.583 -11.572  0.00  0.00    -0.022 A 
ATOM      8  C   UNK A   2       5.718   6.216 -10.339  0.00  0.00    -0.006 A 
ATOM      9  C   UNK A   2       6.810   6.004  -9.525  0.00  0.00    -0.003 A 
ATOM     10  C   UNK A   2       7.942   5.501 -10.156  0.00  0.00    -0.000 A 
ATOM     11  C   UNK A   2       7.990   5.372 -11.540  0.00  0.00    -0.000 A 
ATOM     12  C   UNK A   2       6.795   5.264 -12.240  0.00  0.00    -0.004 A 
ATOM     13  C   UNK A   2       4.629   7.189 -10.012  0.00  0.00    +0.120 C 
ATOM     14  O   ALA A   1       3.235   4.202  -9.924  0.00  0.00    -0.273 OA
BRANCH   5  15
ATOM     15  C   UNK A   2       1.927   5.677 -12.031  0.00  0.00    +0.383 C 
ATOM     16  O   UNK A   2       0.934   6.660 -11.851  0.00  0.00    -0.244 OA
ATOM     17  O   UNK A   2       1.683   4.999 -13.049  0.00  0.00    -0.244 OA
ENDBRANCH   5  15
ENDBRANCH   1   3
BRANCH   1  18
ATOM     18  N   ALA A   1       2.835   5.274  -7.378  0.00  0.00    -0.201 NA
BRANCH  18  19
ATOM     19  C   UNK A   0       2.548   6.316  -6.227  0.00  0.00    +0.172 C 
BRANCH  19  20
ATOM     20  C   UNK A   0       4.030   6.306  -5.559  0.00  0.00    +0.333 C 
ATOM     21  O   UNK A   0       4.821   5.876  -6.460  0.00  0.00    -0.249 OA
BRANCH  20  22
ATOM     22  O   UNK A   0       4.426   7.597  -5.181  0.00  0.00    -0.448 OA
BRANCH  22  24
ATOM     23  C   UNK A   0       5.230   7.509  -3.347  0.00  0.00    +0.051 C 
ATOM     24  C   UNK A   0       4.715   7.775  -3.817  0.00  0.00    +0.209 C 
ENDBRANCH  22  24
ENDBRANCH  20  22
ENDBRANCH  19  20
BRANCH  19  25
ATOM     25  C   UNK A   0       1.954   5.146  -5.230  0.00  0.00    +0.033 C 
BRANCH  25  26
ATOM     26  C   UNK A   0       0.663   4.683  -5.717  0.00  0.00    +0.028 C 
BRANCH  26  27
ATOM     27  C   UNK A   0      -0.279   5.820  -5.878  0.00  0.00    -0.022 A 
ATOM     28  C   UNK A   0      -1.470   5.599  -6.561  0.00  0.00    -0.004 A 
ATOM     29  C   UNK A   0      -2.623   6.250  -6.135  0.00  0.00    -0.000 A 
ATOM     30  C   UNK A   0      -2.623   7.072  -5.025  0.00  0.00    -0.000 A 
ATOM     31  C   UNK A   0      -1.409   7.377  -4.421  0.00  0.00    -0.000 A 
ATOM     32  C   UNK A   0      -0.243   6.885  -4.999  0.00  0.00    -0.004 A 
ENDBRANCH  26  27
ENDBRANCH  25  26
ENDBRANCH  19  25
ENDBRANCH  18  19
ENDBRANCH   1  18
TORSDOF 10
ENDMDL
MODEL 9
REMARK VINA RESULT:      -7.9      2.768      5.081
REMARK  Name = 
REMARK  10 active torsions:
REMARK  status: ('A' for Active; 'I' for Inactive)
REMARK    1  A    between atoms: C_2  and  O_3
REMARK    2  A    between atoms: O_3  and  C_4
REMARK    3  A    between atoms: C_4  and  C_6
REMARK    4  A    between atoms: C_6  and  C_7
REMARK    5  A    between atoms: C_6  and  N_15
REMARK    6  A    between atoms: C_7  and  C_8
REMARK    7  A    between atoms: C_8  and  C_9
REMARK    8  A    between atoms: N_15  and  CA_16
REMARK    9  A    between atoms: CA_16  and  C_18
REMARK   10  A    between atoms: C_29  and  C_30
REMARK                            x       y       z     vdW  Elec       q    Type
REMARK                         _______ _______ _______ _____ _____    ______ ____
ROOT
ATOM      1  CA  ALA A   1       0.214   5.130  -5.109  0.00  0.00    +0.149 C 
ATOM      2  CB  ALA A   1       1.846   5.143  -4.838  0.00  0.00    +0.029 C 
ENDROOT
BRANCH   1   3
ATOM      3  C   ALA A   1      -0.069   6.014  -3.785  0.00  0.00    +0.242 C 
ATOM      4  N   UNK A   2      -0.430   5.189  -2.729  0.00  0.00    -0.266 N 
ATOM      5  C   UNK A   2      -1.755   5.461  -1.920  0.00  0.00    +0.184 C 
ATOM      6  C   UNK A   2      -1.315   7.027  -1.625  0.00  0.00    +0.058 C 
ATOM      7  C   UNK A   2      -0.143   6.941  -0.730  0.00  0.00    -0.022 A 
ATOM      8  C   UNK A   2       0.951   6.175  -1.113  0.00  0.00    -0.006 A 
ATOM      9  C   UNK A   2       2.233   6.578  -0.806  0.00  0.00    -0.003 A 
ATOM     10  C   UNK A   2       2.342   7.504   0.225  0.00  0.00    -0.000 A 
ATOM     11  C   UNK A   2       1.231   7.868   0.978  0.00  0.00    -0.000 A 
ATOM     12  C   UNK A   2      -0.031   7.713   0.419  0.00  0.00    -0.004 A 
ATOM     13  C   UNK A   2       0.639   4.873  -1.781  0.00  0.00    +0.120 C 
ATOM     14  O   ALA A   1      -0.224   7.223  -3.927  0.00  0.00    -0.273 OA
BRANCH   5  15
ATOM     15  C   UNK A   2      -2.630   5.783  -3.246  0.00  0.00    +0.383 C 
ATOM     16  O   UNK A   2      -3.245   4.564  -3.589  0.00  0.00    -0.244 OA
ATOM     17  O   UNK A   2      -3.483   6.688  -3.163  0.00  0.00    -0.244 OA
ENDBRANCH   5  15
ENDBRANCH   1   3
BRANCH   1  18
ATOM     18  N   ALA A   1       0.268   6.395  -6.041  0.00  0.00    -0.201 NA
BRANCH  18  19
ATOM     19  C   UNK A   0       1.272   5.981  -7.188  0.00  0.00    +0.172 C 
BRANCH  19  20
ATOM     20  C   UNK A   0       1.821   7.471  -7.535  0.00  0.00    +0.333 C 
ATOM     21  O   UNK A   0       2.840   7.655  -6.792  0.00  0.00    -0.249 OA
BRANCH  20  22
ATOM     22  O   UNK A   0       2.210   7.570  -8.878  0.00  0.00    -0.448 OA
BRANCH  22  24
ATOM     23  C   UNK A   0       3.744   6.741  -9.867  0.00  0.00    +0.051 C 
ATOM     24  C   UNK A   0       3.390   6.889  -9.227  0.00  0.00    +0.209 C 
ENDBRANCH  22  24
ENDBRANCH  20  22
ENDBRANCH  19  20
BRANCH  19  25
ATOM     25  C   UNK A   0       0.082   6.018  -8.328  0.00  0.00    +0.033 C 
BRANCH  25  26
ATOM     26  C   UNK A   0       0.278   4.940  -9.287  0.00  0.00    +0.028 C 
BRANCH  26  27
ATOM     27  C   UNK A   0       0.015   5.411 -10.671  0.00  0.00    -0.022 A 
ATOM     28  C   UNK A   0      -0.499   6.692 -10.847  0.00  0.00    -0.004 A 
ATOM     29  C   UNK A   0      -0.082   7.442 -11.940  0.00  0.00    -0.000 A 
ATOM     30  C   UNK A   0       0.862   6.965 -12.828  0.00  0.00    -0.000 A 
ATOM     31  C   UNK A   0       1.282   5.645 -12.711  0.00  0.00    -0.000 A 
ATOM     32  C   UNK A   0       0.687   4.848 -11.738  0.00  0.00    -0.004 A 
ENDBRANCH  26  27
ENDBRANCH  25  26
ENDBRANCH  19  25
ENDBRANCH  18  19
ENDBRANCH   1  18
TORSDOF 10
ENDMDL
