MODEL 1
REMARK VINA RESULT:      -9.4      0.000      0.000
REMARK  Name = 
REMARK  6 active torsions:
REMARK  status: ('A' for Active; 'I' for Inactive)
REMARK    1  A    between atoms: C_6  and  C_7
REMARK    2  A    between atoms: C_7  and  C_8
REMARK    3  A    between atoms: C_14  and  C_15
REMARK    4  A    between atoms: C_15  and  C_16
REMARK    5  A    between atoms: C_16  and  S_17
REMARK    6  A    between atoms: S_17  and  C_20
REMARK                            x       y       z     vdW  Elec       q    Type
REMARK                         _______ _______ _______ _____ _____    ______ ____
ROOT
ATOM      1  C   UNL     1       4.482   5.874 -11.940  0.00  0.00    -0.000 A 
ATOM      2  C   UNL     1       3.497   5.980 -10.993  0.00  0.00    +0.015 A 
ATOM      3  C   UNL     1       2.305   5.768 -11.675  0.00  0.00    +0.081 A 
ATOM      4  C   UNL     1       1.156   5.703 -10.898  0.00  0.00    +0.019 A 
ATOM      5  C   UNL     1       1.168   6.358  -9.698  0.00  0.00    -0.003 A 
ATOM      6  C   UNL     1       2.332   6.706  -9.032  0.00  0.00    -0.020 A 
ATOM      7  N   UNL     1       2.511   5.864 -13.010  0.00  0.00    -0.244 NA
ATOM      8  C   UNL     1       3.507   6.469  -9.692  0.00  0.00    -0.003 A 
ATOM      9  C   UNL     1       3.856   5.902 -13.179  0.00  0.00    +0.095 A 
ENDROOT
BRANCH   1  10
ATOM     10  C   UNL     1       5.913   5.557 -11.688  0.00  0.00    +0.044 C 
BRANCH  10  13
ATOM     11  C   UNL     1       8.161   5.803 -12.700  0.00  0.00    +0.090 C 
ATOM     12  N   UNL     1       8.093   6.044 -12.401  0.00  0.00    -0.272 NA
ATOM     13  C   UNL     1       6.709   6.799 -12.413  0.00  0.00    +0.062 C 
ATOM     14  C   UNL     1       7.012   7.559 -10.987  0.00  0.00    +0.018 C 
ATOM     15  C   UNL     1       7.481   6.422 -10.155  0.00  0.00    +0.019 C 
ATOM     16  C   UNL     1       8.084   5.473 -11.111  0.00  0.00    +0.072 C 
ENDBRANCH  10  13
ENDBRANCH   1  10
BRANCH   6  17
ATOM     17  C   UNL     1       2.187   7.600  -7.857  0.00  0.00    +0.052 C 
BRANCH  17  18
ATOM     18  C   UNL     1       2.882   7.026  -6.650  0.00  0.00    +0.161 C 
BRANCH  18  19
ATOM     19  S   UNL     1       1.939   5.796  -5.823  0.00  0.00    +0.009 S 
ATOM     20  O   UNL     1       2.257   5.649  -4.375  0.00  0.00    -0.169 OA
ATOM     21  O   UNL     1       2.124   4.498  -6.576  0.00  0.00    -0.169 OA
BRANCH  19  22
ATOM     22  C   UNL     1       0.231   6.209  -5.920  0.00  0.00    +0.106 A 
ATOM     23  C   UNL     1      -0.279   7.253  -5.172  0.00  0.00    +0.018 A 
ATOM     24  C   UNL     1      -1.629   7.293  -4.857  0.00  0.00    +0.001 A 
ATOM     25  C   UNL     1      -2.427   6.252  -5.314  0.00  0.00    +0.000 A 
ATOM     26  C   UNL     1      -1.986   5.609  -6.463  0.00  0.00    +0.001 A 
ATOM     27  C   UNL     1      -0.640   5.524  -6.725  0.00  0.00    +0.018 A 
ENDBRANCH  19  22
ENDBRANCH  18  19
ENDBRANCH  17  18
ENDBRANCH   6  17
TORSDOF 6
ENDMDL
MODEL 2
REMARK VINA RESULT:      -9.0      3.654      8.932
REMARK  Name = 
REMARK  6 active torsions:
REMARK  status: ('A' for Active; 'I' for Inactive)
REMARK    1  A    between atoms: C_6  and  C_7
REMARK    2  A    between atoms: C_7  and  C_8
REMARK    3  A    between atoms: C_14  and  C_15
REMARK    4  A    between atoms: C_15  and  C_16
REMARK    5  A    between atoms: C_16  and  S_17
REMARK    6  A    between atoms: S_17  and  C_20
REMARK                            x       y       z     vdW  Elec       q    Type
REMARK                         _______ _______ _______ _____ _____    ______ ____
ROOT
ATOM      1  C   UNL     1       0.837   5.724  -3.757  0.00  0.00    -0.000 A 
ATOM      2  C   UNL     1       1.758   5.773  -4.769  0.00  0.00    +0.015 A 
ATOM      3  C   UNL     1       2.982   5.500  -4.169  0.00  0.00    +0.081 A 
ATOM      4  C   UNL     1       4.070   5.370  -5.023  0.00  0.00    +0.019 A 
ATOM      5  C   UNL     1       4.010   6.020  -6.224  0.00  0.00    -0.003 A 
ATOM      6  C   UNL     1       2.824   6.426  -6.811  0.00  0.00    -0.020 A 
ATOM      7  N   UNL     1       2.873   5.612  -2.824  0.00  0.00    -0.244 NA
ATOM      8  C   UNL     1       1.686   6.256  -6.071  0.00  0.00    -0.003 A 
ATOM      9  C   UNL     1       1.547   5.724  -2.564  0.00  0.00    +0.095 A 
ENDROOT
BRANCH   1  10
ATOM     10  C   UNL     1      -0.623   5.484  -3.908  0.00  0.00    +0.044 C 
BRANCH  10  13
ATOM     11  C   UNL     1      -2.713   5.756  -2.606  0.00  0.00    +0.090 C 
ATOM     12  N   UNL     1      -2.683   5.997  -2.910  0.00  0.00    -0.272 NA
ATOM     13  C   UNL     1      -1.300   6.734  -3.082  0.00  0.00    +0.062 C 
ATOM     14  C   UNL     1      -1.780   7.501  -4.455  0.00  0.00    +0.018 C 
ATOM     15  C   UNL     1      -2.370   6.373  -5.218  0.00  0.00    +0.019 C 
ATOM     16  C   UNL     1      -2.853   5.429  -4.191  0.00  0.00    +0.072 C 
ENDBRANCH  10  13
ENDBRANCH   1  10
BRANCH   6  17
ATOM     17  C   UNL     1       2.935   7.306  -8.000  0.00  0.00    +0.052 C 
BRANCH  17  18
ATOM     18  C   UNL     1       2.283   6.677  -9.204  0.00  0.00    +0.161 C 
BRANCH  18  19
ATOM     19  S   UNL     1       3.364   5.634 -10.114  0.00  0.00    +0.009 S 
ATOM     20  O   UNL     1       3.004   5.483 -11.553  0.00  0.00    -0.169 OA
ATOM     21  O   UNL     1       3.415   4.301  -9.404  0.00  0.00    -0.169 OA
BRANCH  19  22
ATOM     22  C   UNL     1       4.991   6.302 -10.074  0.00  0.00    +0.106 A 
ATOM     23  C   UNL     1       5.294   7.446 -10.788  0.00  0.00    +0.018 A 
ATOM     24  C   UNL     1       6.604   7.709 -11.161  0.00  0.00    +0.001 A 
ATOM     25  C   UNL     1       7.575   6.786 -10.796  0.00  0.00    +0.000 A 
ATOM     26  C   UNL     1       7.299   6.030  -9.664  0.00  0.00    +0.001 A 
ATOM     27  C   UNL     1       5.998   5.725  -9.345  0.00  0.00    +0.018 A 
ENDBRANCH  19  22
ENDBRANCH  18  19
ENDBRANCH  17  18
ENDBRANCH   6  17
TORSDOF 6
ENDMDL
MODEL 3
REMARK VINA RESULT:      -9.0      4.504      6.287
REMARK  Name = 
REMARK  6 active torsions:
REMARK  status: ('A' for Active; 'I' for Inactive)
REMARK    1  A    between atoms: C_6  and  C_7
REMARK    2  A    between atoms: C_7  and  C_8
REMARK    3  A    between atoms: C_14  and  C_15
REMARK    4  A    between atoms: C_15  and  C_16
REMARK    5  A    between atoms: C_16  and  S_17
REMARK    6  A    between atoms: S_17  and  C_20
REMARK                            x       y       z     vdW  Elec       q    Type
REMARK                         _______ _______ _______ _____ _____    ______ ____
ROOT
ATOM      1  C   UNL     1       2.307   6.867  -6.040  0.00  0.00    -0.000 A 
ATOM      2  C   UNL     1       1.118   6.250  -6.325  0.00  0.00    +0.015 A 
ATOM      3  C   UNL     1       1.096   6.109  -7.708  0.00  0.00    +0.081 A 
ATOM      4  C   UNL     1       0.032   5.391  -8.236  0.00  0.00    +0.019 A 
ATOM      5  C   UNL     1      -1.127   5.357  -7.513  0.00  0.00    -0.003 A 
ATOM      6  C   UNL     1      -1.183   5.611  -6.152  0.00  0.00    -0.020 A 
ATOM      7  N   UNL     1       2.049   6.893  -8.267  0.00  0.00    -0.244 NA
ATOM      8  C   UNL     1      -0.022   6.026  -5.560  0.00  0.00    -0.003 A 
ATOM      9  C   UNL     1       2.815   7.341  -7.242  0.00  0.00    +0.095 A 
ENDROOT
BRANCH   1  10
ATOM     10  C   UNL     1       3.024   6.834  -4.737  0.00  0.00    +0.044 C 
BRANCH  10  13
ATOM     11  C   UNL     1       4.680   5.106  -4.099  0.00  0.00    +0.090 C 
ATOM     12  N   UNL     1       4.792   5.470  -4.020  0.00  0.00    -0.272 NA
ATOM     13  C   UNL     1       4.580   6.529  -5.169  0.00  0.00    +0.062 C 
ATOM     14  C   UNL     1       5.172   7.764  -4.260  0.00  0.00    +0.018 C 
ATOM     15  C   UNL     1       4.430   7.561  -2.990  0.00  0.00    +0.019 C 
ATOM     16  C   UNL     1       4.158   6.112  -2.935  0.00  0.00    +0.072 C 
ENDBRANCH  10  13
ENDBRANCH   1  10
BRANCH   6  17
ATOM     17  C   UNL     1      -2.533   5.750  -5.554  0.00  0.00    +0.052 C 
BRANCH  17  18
ATOM     18  C   UNL     1      -2.542   6.793  -4.468  0.00  0.00    +0.161 C 
BRANCH  18  19
ATOM     19  S   UNL     1      -2.792   6.124  -2.863  0.00  0.00    +0.009 S 
ATOM     20  O   UNL     1      -2.735   4.635  -2.803  0.00  0.00    -0.169 OA
ATOM     21  O   UNL     1      -4.108   6.659  -2.346  0.00  0.00    -0.169 OA
BRANCH  19  22
ATOM     22  C   UNL     1      -1.535   6.715  -1.782  0.00  0.00    +0.106 A 
ATOM     23  C   UNL     1      -0.246   6.225  -1.874  0.00  0.00    +0.018 A 
ATOM     24  C   UNL     1       0.607   6.294  -0.784  0.00  0.00    +0.001 A 
ATOM     25  C   UNL     1       0.113   6.861   0.385  0.00  0.00    +0.000 A 
ATOM     26  C   UNL     1      -0.908   7.789   0.224  0.00  0.00    +0.001 A 
ATOM     27  C   UNL     1      -1.783   7.667  -0.828  0.00  0.00    +0.018 A 
ENDBRANCH  19  22
ENDBRANCH  18  19
ENDBRANCH  17  18
ENDBRANCH   6  17
TORSDOF 6
ENDMDL
MODEL 4
REMARK VINA RESULT:      -8.9      1.762      4.244
REMARK  Name = 
REMARK  6 active torsions:
REMARK  status: ('A' for Active; 'I' for Inactive)
REMARK    1  A    between atoms: C_6  and  C_7
REMARK    2  A    between atoms: C_7  and  C_8
REMARK    3  A    between atoms: C_14  and  C_15
REMARK    4  A    between atoms: C_15  and  C_16
REMARK    5  A    between atoms: C_16  and  S_17
REMARK    6  A    between atoms: S_17  and  C_20
REMARK                            x       y       z     vdW  Elec       q    Type
REMARK                         _______ _______ _______ _____ _____    ______ ____
ROOT
ATOM      1  C   UNL     1       3.867   5.752 -12.603  0.00  0.00    -0.000 A 
ATOM      2  C   UNL     1       4.520   5.896 -11.408  0.00  0.00    +0.015 A 
ATOM      3  C   UNL     1       5.848   5.578 -11.670  0.00  0.00    +0.081 A 
ATOM      4  C   UNL     1       6.744   5.771 -10.627  0.00  0.00    +0.019 A 
ATOM      5  C   UNL     1       6.251   5.716  -9.354  0.00  0.00    -0.003 A 
ATOM      6  C   UNL     1       4.914   5.903  -9.046  0.00  0.00    -0.020 A 
ATOM      7  N   UNL     1       5.945   4.949 -12.866  0.00  0.00    -0.244 NA
ATOM      8  C   UNL     1       4.056   6.032 -10.104  0.00  0.00    -0.003 A 
ATOM      9  C   UNL     1       4.731   5.078 -13.456  0.00  0.00    +0.095 A 
ENDROOT
BRANCH   1  10
ATOM     10  C   UNL     1       2.581   6.392 -12.985  0.00  0.00    +0.044 C 
BRANCH  10  13
ATOM     11  C   UNL     1       0.848   6.024 -14.718  0.00  0.00    +0.090 C 
ATOM     12  N   UNL     1       0.721   5.978 -14.353  0.00  0.00    -0.272 NA
ATOM     13  C   UNL     1       1.630   5.115 -13.397  0.00  0.00    +0.062 C 
ATOM     14  C   UNL     1       0.629   5.327 -12.110  0.00  0.00    +0.018 C 
ATOM     15  C   UNL     1       0.409   6.794 -12.162  0.00  0.00    +0.019 C 
ATOM     16  C   UNL     1       0.552   7.151 -13.586  0.00  0.00    +0.072 C 
ENDBRANCH  10  13
ENDBRANCH   1  10
BRANCH   6  17
ATOM     17  C   UNL     1       4.500   5.599  -7.655  0.00  0.00    +0.052 C 
BRANCH  17  18
ATOM     18  C   UNL     1       3.001   5.486  -7.546  0.00  0.00    +0.161 C 
BRANCH  18  19
ATOM     19  S   UNL     1       2.246   6.907  -6.840  0.00  0.00    +0.009 S 
ATOM     20  O   UNL     1       2.028   8.026  -7.800  0.00  0.00    -0.169 OA
ATOM     21  O   UNL     1       3.090   7.332  -5.660  0.00  0.00    -0.169 OA
BRANCH  19  22
ATOM     22  C   UNL     1       0.661   6.472  -6.211  0.00  0.00    +0.106 A 
ATOM     23  C   UNL     1      -0.085   5.482  -6.821  0.00  0.00    +0.018 A 
ATOM     24  C   UNL     1      -1.464   5.454  -6.670  0.00  0.00    +0.001 A 
ATOM     25  C   UNL     1      -2.047   6.450  -5.898  0.00  0.00    +0.000 A 
ATOM     26  C   UNL     1      -1.238   7.010  -4.918  0.00  0.00    +0.001 A 
ATOM     27  C   UNL     1       0.119   7.087  -5.113  0.00  0.00    +0.018 A 
ENDBRANCH  19  22
ENDBRANCH  18  19
ENDBRANCH  17  18
ENDBRANCH   6  17
TORSDOF 6
ENDMDL
MODEL 5
REMARK VINA RESULT:      -8.7      1.674      2.877
REMARK  Name = 
REMARK  6 active torsions:
REMARK  status: ('A' for Active; 'I' for Inactive)
REMARK    1  A    between atoms: C_6  and  C_7
REMARK    2  A    between atoms: C_7  and  C_8
REMARK    3  A    between atoms: C_14  and  C_15
REMARK    4  A    between atoms: C_15  and  C_16
REMARK    5  A    between atoms: C_16  and  S_17
REMARK    6  A    between atoms: S_17  and  C_20
REMARK                            x       y       z     vdW  Elec       q    Type
REMARK                         _______ _______ _______ _____ _____    ______ ____
ROOT
ATOM      1  C   UNL     1       4.056   5.882 -11.175  0.00  0.00    -0.000 A 
ATOM      2  C   UNL     1       3.069   5.842 -10.227  0.00  0.00    +0.015 A 
ATOM      3  C   UNL     1       1.907   5.515 -10.916  0.00  0.00    +0.081 A 
ATOM      4  C   UNL     1       0.776   5.293 -10.143  0.00  0.00    +0.019 A 
ATOM      5  C   UNL     1       0.715   5.906  -8.923  0.00  0.00    -0.003 A 
ATOM      6  C   UNL     1       1.832   6.364  -8.245  0.00  0.00    -0.020 A 
ATOM      7  N   UNL     1       2.097   5.678 -12.247  0.00  0.00    -0.244 NA
ATOM      8  C   UNL     1       3.025   6.287  -8.911  0.00  0.00    -0.003 A 
ATOM      9  C   UNL     1       3.428   5.878 -12.414  0.00  0.00    +0.095 A 
ENDROOT
BRANCH   1  10
ATOM     10  C   UNL     1       5.515   5.726 -10.933  0.00  0.00    +0.044 C 
BRANCH  10  13
ATOM     11  C   UNL     1       7.474   5.212 -12.359  0.00  0.00    +0.090 C 
ATOM     12  N   UNL     1       7.494   5.557 -12.180  0.00  0.00    -0.272 NA
ATOM     13  C   UNL     1       6.197   6.451 -12.241  0.00  0.00    +0.062 C 
ATOM     14  C   UNL     1       6.874   7.648 -11.340  0.00  0.00    +0.018 C 
ATOM     15  C   UNL     1       7.451   6.866 -10.218  0.00  0.00    +0.019 C 
ATOM     16  C   UNL     1       7.751   5.540 -10.793  0.00  0.00    +0.072 C 
ENDBRANCH  10  13
ENDBRANCH   1  10
BRANCH   6  17
ATOM     17  C   UNL     1       1.588   7.197  -7.042  0.00  0.00    +0.052 C 
BRANCH  17  18
ATOM     18  C   UNL     1       0.490   6.614  -6.191  0.00  0.00    +0.161 C 
BRANCH  18  19
ATOM     19  S   UNL     1       1.052   5.363  -5.093  0.00  0.00    +0.009 S 
ATOM     20  O   UNL     1       1.212   4.021  -5.722  0.00  0.00    -0.169 OA
ATOM     21  O   UNL     1       0.100   5.326  -3.920  0.00  0.00    -0.169 OA
BRANCH  19  22
ATOM     22  C   UNL     1       2.632   5.809  -4.460  0.00  0.00    +0.106 A 
ATOM     23  C   UNL     1       2.765   6.893  -3.614  0.00  0.00    +0.018 A 
ATOM     24  C   UNL     1       3.985   7.542  -3.496  0.00  0.00    +0.001 A 
ATOM     25  C   UNL     1       5.044   7.064  -4.259  0.00  0.00    +0.000 A 
ATOM     26  C   UNL     1       4.986   5.719  -4.602  0.00  0.00    +0.001 A 
ATOM     27  C   UNL     1       3.767   5.110  -4.776  0.00  0.00    +0.018 A 
ENDBRANCH  19  22
ENDBRANCH  18  19
ENDBRANCH  17  18
ENDBRANCH   6  17
TORSDOF 6
ENDMDL
MODEL 6
REMARK VINA RESULT:      -8.7      3.857      7.647
REMARK  Name = 
REMARK  6 active torsions:
REMARK  status: ('A' for Active; 'I' for Inactive)
REMARK    1  A    between atoms: C_6  and  C_7
REMARK    2  A    between atoms: C_7  and  C_8
REMARK    3  A    between atoms: C_14  and  C_15
REMARK    4  A    between atoms: C_15  and  C_16
REMARK    5  A    between atoms: C_16  and  S_17
REMARK    6  A    between atoms: S_17  and  C_20
REMARK                            x       y       z     vdW  Elec       q    Type
REMARK                         _______ _______ _______ _____ _____    ______ ____
ROOT
ATOM      1  C   UNL     1       1.122   6.067  -3.526  0.00  0.00    -0.000 A 
ATOM      2  C   UNL     1       0.266   6.070  -4.595  0.00  0.00    +0.015 A 
ATOM      3  C   UNL     1      -0.964   5.672  -4.085  0.00  0.00    +0.081 A 
ATOM      4  C   UNL     1      -2.038   5.716  -4.965  0.00  0.00    +0.019 A 
ATOM      5  C   UNL     1      -1.765   5.601  -6.299  0.00  0.00    -0.003 A 
ATOM      6  C   UNL     1      -0.520   5.864  -6.847  0.00  0.00    -0.020 A 
ATOM      7  N   UNL     1      -0.801   5.132  -2.854  0.00  0.00    -0.244 NA
ATOM      8  C   UNL     1       0.489   6.139  -5.966  0.00  0.00    -0.003 A 
ATOM      9  C   UNL     1       0.478   5.397  -2.494  0.00  0.00    +0.095 A 
ENDROOT
BRANCH   1  10
ATOM     10  C   UNL     1       2.394   6.831  -3.416  0.00  0.00    +0.044 C 
BRANCH  10  13
ATOM     11  C   UNL     1       4.376   6.717  -1.935  0.00  0.00    +0.090 C 
ATOM     12  N   UNL     1       4.456   6.661  -2.312  0.00  0.00    -0.272 NA
ATOM     13  C   UNL     1       3.507   5.668  -3.086  0.00  0.00    +0.062 C 
ATOM     14  C   UNL     1       4.296   5.889  -4.512  0.00  0.00    +0.018 C 
ATOM     15  C   UNL     1       4.383   7.370  -4.560  0.00  0.00    +0.019 C 
ATOM     16  C   UNL     1       4.406   7.797  -3.148  0.00  0.00    +0.072 C 
ENDBRANCH  10  13
ENDBRANCH   1  10
BRANCH   6  17
ATOM     17  C   UNL     1      -0.323   5.486  -8.268  0.00  0.00    +0.052 C 
BRANCH  17  18
ATOM     18  C   UNL     1       1.108   5.094  -8.532  0.00  0.00    +0.161 C 
BRANCH  18  19
ATOM     19  S   UNL     1       2.025   6.333  -9.373  0.00  0.00    +0.009 S 
ATOM     20  O   UNL     1       2.104   7.635  -8.651  0.00  0.00    -0.169 OA
ATOM     21  O   UNL     1       1.423   6.488 -10.751  0.00  0.00    -0.169 OA
BRANCH  19  22
ATOM     22  C   UNL     1       3.682   5.783  -9.594  0.00  0.00    +0.106 A 
ATOM     23  C   UNL     1       4.401   5.286  -8.524  0.00  0.00    +0.018 A 
ATOM     24  C   UNL     1       5.788   5.304  -8.545  0.00  0.00    +0.001 A 
ATOM     25  C   UNL     1       6.407   5.841  -9.667  0.00  0.00    +0.000 A 
ATOM     26  C   UNL     1       5.680   5.777 -10.849  0.00  0.00    +0.001 A 
ATOM     27  C   UNL     1       4.307   5.825 -10.812  0.00  0.00    +0.018 A 
ENDBRANCH  19  22
ENDBRANCH  18  19
ENDBRANCH  17  18
ENDBRANCH   6  17
TORSDOF 6
ENDMDL
MODEL 7
REMARK VINA RESULT:      -8.5      1.808      4.253
REMARK  Name = 
REMARK  6 active torsions:
REMARK  status: ('A' for Active; 'I' for Inactive)
REMARK    1  A    between atoms: C_6  and  C_7
REMARK    2  A    between atoms: C_7  and  C_8
REMARK    3  A    between atoms: C_14  and  C_15
REMARK    4  A    between atoms: C_15  and  C_16
REMARK    5  A    between atoms: C_16  and  S_17
REMARK    6  A    between atoms: S_17  and  C_20
REMARK                            x       y       z     vdW  Elec       q    Type
REMARK                         _______ _______ _______ _____ _____    ______ ____
ROOT
ATOM      1  C   UNL     1       3.167   5.990 -11.128  0.00  0.00    -0.000 A 
ATOM      2  C   UNL     1       3.942   5.929 -10.001  0.00  0.00    +0.015 A 
ATOM      3  C   UNL     1       5.229   5.657 -10.451  0.00  0.00    +0.081 A 
ATOM      4  C   UNL     1       6.231   5.669  -9.490  0.00  0.00    +0.019 A 
ATOM      5  C   UNL     1       5.871   5.401  -8.199  0.00  0.00    -0.003 A 
ATOM      6  C   UNL     1       4.576   5.536  -7.726  0.00  0.00    -0.020 A 
ATOM      7  N   UNL     1       5.190   5.239 -11.738  0.00  0.00    -0.244 NA
ATOM      8  C   UNL     1       3.617   5.844  -8.652  0.00  0.00    -0.003 A 
ATOM      9  C   UNL     1       3.925   5.468 -12.169  0.00  0.00    +0.095 A 
ENDROOT
BRANCH   1  10
ATOM     10  C   UNL     1       1.861   6.689 -11.261  0.00  0.00    +0.044 C 
BRANCH  10  13
ATOM     11  C   UNL     1       0.290   7.441 -13.023  0.00  0.00    +0.090 C 
ATOM     12  N   UNL     1       0.158   7.143 -12.809  0.00  0.00    -0.272 NA
ATOM     13  C   UNL     1       1.171   5.960 -12.563  0.00  0.00    +0.062 C 
ATOM     14  C   UNL     1       0.100   5.119 -11.641  0.00  0.00    +0.018 C 
ATOM     15  C   UNL     1      -0.378   6.183 -10.723  0.00  0.00    +0.019 C 
ATOM     16  C   UNL     1      -0.247   7.437 -11.490  0.00  0.00    +0.072 C 
ENDBRANCH  10  13
ENDBRANCH   1  10
BRANCH   6  17
ATOM     17  C   UNL     1       4.302   5.002  -6.370  0.00  0.00    +0.052 C 
BRANCH  17  18
ATOM     18  C   UNL     1       2.837   4.694  -6.193  0.00  0.00    +0.161 C 
BRANCH  18  19
ATOM     19  S   UNL     1       2.000   5.855  -5.176  0.00  0.00    +0.009 S 
ATOM     20  O   UNL     1       2.633   7.205  -5.137  0.00  0.00    -0.169 OA
ATOM     21  O   UNL     1       1.880   5.249  -3.797  0.00  0.00    -0.169 OA
BRANCH  19  22
ATOM     22  C   UNL     1       0.364   6.088  -5.782  0.00  0.00    +0.106 A 
ATOM     23  C   UNL     1      -0.514   6.924  -5.119  0.00  0.00    +0.018 A 
ATOM     24  C   UNL     1      -1.883   6.760  -5.269  0.00  0.00    +0.001 A 
ATOM     25  C   UNL     1      -2.320   5.733  -6.096  0.00  0.00    +0.000 A 
ATOM     26  C   UNL     1      -1.445   5.352  -7.105  0.00  0.00    +0.001 A 
ATOM     27  C   UNL     1      -0.090   5.462  -6.913  0.00  0.00    +0.018 A 
ENDBRANCH  19  22
ENDBRANCH  18  19
ENDBRANCH  17  18
ENDBRANCH   6  17
TORSDOF 6
ENDMDL
MODEL 8
REMARK VINA RESULT:      -8.4      4.301      8.470
REMARK  Name = 
REMARK  6 active torsions:
REMARK  status: ('A' for Active; 'I' for Inactive)
REMARK    1  A    between atoms: C_6  and  C_7
REMARK    2  A    between atoms: C_7  and  C_8
REMARK    3  A    between atoms: C_14  and  C_15
REMARK    4  A    between atoms: C_15  and  C_16
REMARK    5  A    between atoms: C_16  and  S_17
REMARK    6  A    between atoms: S_17  and  C_20
REMARK                            x       y       z     vdW  Elec       q    Type
REMARK                         _______ _______ _______ _____ _____    ______ ____
ROOT
ATOM      1  C   UNL     1       0.784   5.806  -3.511  0.00  0.00    -0.000 A 
ATOM      2  C   UNL     1       1.985   5.462  -4.074  0.00  0.00    +0.015 A 
ATOM      3  C   UNL     1       2.878   5.368  -3.013  0.00  0.00    +0.081 A 
ATOM      4  C   UNL     1       4.151   4.906  -3.319  0.00  0.00    +0.019 A 
ATOM      5  C   UNL     1       4.600   5.097  -4.596  0.00  0.00    -0.003 A 
ATOM      6  C   UNL     1       3.760   5.320  -5.674  0.00  0.00    -0.020 A 
ATOM      7  N   UNL     1       2.347   5.947  -1.909  0.00  0.00    -0.244 NA
ATOM      8  C   UNL     1       2.429   5.464  -5.391  0.00  0.00    -0.003 A 
ATOM      9  C   UNL     1       1.048   6.195  -2.204  0.00  0.00    +0.095 A 
ENDROOT
BRANCH   1  10
ATOM     10  C   UNL     1      -0.561   5.586  -4.106  0.00  0.00    +0.044 C 
BRANCH  10  13
ATOM     11  C   UNL     1      -2.878   5.316  -3.272  0.00  0.00    +0.090 C 
ATOM     12  N   UNL     1      -2.823   5.634  -3.491  0.00  0.00    -0.272 NA
ATOM     13  C   UNL     1      -1.547   6.499  -3.159  0.00  0.00    +0.062 C 
ATOM     14  C   UNL     1      -1.858   7.576  -4.361  0.00  0.00    +0.018 C 
ATOM     15  C   UNL     1      -2.131   6.661  -5.498  0.00  0.00    +0.019 C 
ATOM     16  C   UNL     1      -2.666   5.433  -4.878  0.00  0.00    +0.072 C 
ENDBRANCH  10  13
ENDBRANCH   1  10
BRANCH   6  17
ATOM     17  C   UNL     1       4.402   5.724  -6.948  0.00  0.00    +0.052 C 
BRANCH  17  18
ATOM     18  C   UNL     1       3.372   6.128  -7.971  0.00  0.00    +0.161 C 
BRANCH  18  19
ATOM     19  S   UNL     1       3.090   4.900  -9.196  0.00  0.00    +0.009 S 
ATOM     20  O   UNL     1       2.670   3.577  -8.653  0.00  0.00    -0.169 OA
ATOM     21  O   UNL     1       4.345   4.794 -10.031  0.00  0.00    -0.169 OA
BRANCH  19  22
ATOM     22  C   UNL     1       1.801   5.433 -10.269  0.00  0.00    +0.106 A 
ATOM     23  C   UNL     1       2.074   5.754 -11.585  0.00  0.00    +0.018 A 
ATOM     24  C   UNL     1       1.231   6.602 -12.286  0.00  0.00    +0.001 A 
ATOM     25  C   UNL     1       0.124   7.108 -11.616  0.00  0.00    +0.000 A 
ATOM     26  C   UNL     1      -0.360   6.330 -10.572  0.00  0.00    +0.001 A 
ATOM     27  C   UNL     1       0.502   5.544  -9.847  0.00  0.00    +0.018 A 
ENDBRANCH  19  22
ENDBRANCH  18  19
ENDBRANCH  17  18
ENDBRANCH   6  17
TORSDOF 6
ENDMDL
MODEL 9
REMARK VINA RESULT:      -8.4      4.837      7.855
REMARK  Name = 
REMARK  6 active torsions:
REMARK  status: ('A' for Active; 'I' for Inactive)
REMARK    1  A    between atoms: C_6  and  C_7
REMARK    2  A    between atoms: C_7  and  C_8
REMARK    3  A    between atoms: C_14  and  C_15
REMARK    4  A    between atoms: C_15  and  C_16
REMARK    5  A    between atoms: C_16  and  S_17
REMARK    6  A    between atoms: S_17  and  C_20
REMARK                            x       y       z     vdW  Elec       q    Type
REMARK                         _______ _______ _______ _____ _____    ______ ____
ROOT
ATOM      1  C   UNL     1      -0.754   6.767  -4.938  0.00  0.00    -0.000 A 
ATOM      2  C   UNL     1      -0.765   6.280  -3.658  0.00  0.00    +0.015 A 
ATOM      3  C   UNL     1      -2.085   6.385  -3.234  0.00  0.00    +0.081 A 
ATOM      4  C   UNL     1      -2.378   5.833  -1.994  0.00  0.00    +0.019 A 
ATOM      5  C   UNL     1      -1.358   5.740  -1.088  0.00  0.00    -0.003 A 
ATOM      6  C   UNL     1      -0.020   5.755  -1.445  0.00  0.00    -0.020 A 
ATOM      7  N   UNL     1      -2.776   7.197  -4.069  0.00  0.00    -0.244 NA
ATOM      8  C   UNL     1       0.259   5.992  -2.763  0.00  0.00    -0.003 A 
ATOM      9  C   UNL     1      -1.967   7.414  -5.135  0.00  0.00    +0.095 A 
ENDROOT
BRANCH   1  10
ATOM     10  C   UNL     1       0.258   6.465  -5.985  0.00  0.00    +0.044 C 
BRANCH  10  13
ATOM     11  C   UNL     1       1.475   4.315  -6.158  0.00  0.00    +0.090 C 
ATOM     12  N   UNL     1       1.336   4.446  -6.497  0.00  0.00    -0.272 NA
ATOM     13  C   UNL     1      -0.156   4.956  -6.488  0.00  0.00    +0.062 C 
ATOM     14  C   UNL     1      -0.114   5.374  -8.078  0.00  0.00    +0.018 C 
ATOM     15  C   UNL     1       1.161   6.132  -8.137  0.00  0.00    +0.019 C 
ATOM     16  C   UNL     1       2.000   5.550  -7.072  0.00  0.00    +0.072 C 
ENDBRANCH  10  13
ENDBRANCH   1  10
BRANCH   6  17
ATOM     17  C   UNL     1       0.964   5.865  -0.340  0.00  0.00    +0.052 C 
BRANCH  17  18
ATOM     18  C   UNL     1       1.753   7.144  -0.441  0.00  0.00    +0.161 C 
BRANCH  18  19
ATOM     19  S   UNL     1       3.461   6.885  -0.759  0.00  0.00    +0.009 S 
ATOM     20  O   UNL     1       4.060   5.747  -0.004  0.00  0.00    -0.169 OA
ATOM     21  O   UNL     1       4.179   8.186  -0.481  0.00  0.00    -0.169 OA
BRANCH  19  22
ATOM     22  C   UNL     1       3.688   6.525  -2.466  0.00  0.00    +0.106 A 
ATOM     23  C   UNL     1       3.940   5.231  -2.881  0.00  0.00    +0.018 A 
ATOM     24  C   UNL     1       4.579   4.996  -4.088  0.00  0.00    +0.001 A 
ATOM     25  C   UNL     1       4.954   6.100  -4.843  0.00  0.00    +0.000 A 
ATOM     26  C   UNL     1       4.198   7.250  -4.654  0.00  0.00    +0.001 A 
ATOM     27  C   UNL     1       3.624   7.497  -3.430  0.00  0.00    +0.018 A 
ENDBRANCH  19  22
ENDBRANCH  18  19
ENDBRANCH  17  18
ENDBRANCH   6  17
TORSDOF 6
ENDMDL
