MODEL 1
REMARK VINA RESULT:     -11.8      0.000      0.000
REMARK  Name = 
REMARK  4 active torsions:
REMARK  status: ('A' for Active; 'I' for Inactive)
REMARK    1  A    between atoms: C_14  and  C_16
REMARK    2  A    between atoms: C_19  and  N_20
REMARK    3  A    between atoms: C_21  and  C_23
REMARK    4  A    between atoms: C_28  and  C_29
REMARK                            x       y       z     vdW  Elec       q    Type
REMARK                         _______ _______ _______ _____ _____    ______ ____
ROOT
ATOM      1  C   UNL     1       2.445   5.968  -7.110  0.00  0.00    +0.054 A 
ATOM      2  C   UNL     1       3.488   5.121  -7.459  0.00  0.00    +0.006 A 
ATOM      3  C   UNL     1       3.663   4.811  -8.793  0.00  0.00    +0.017 A 
ATOM      4  C   UNL     1       3.123   5.578  -9.818  0.00  0.00    +0.074 A 
ATOM      5  C   UNL     1       2.159   6.512  -9.460  0.00  0.00    +0.017 A 
ATOM      6  C   UNL     1       1.974   6.803  -8.114  0.00  0.00    +0.006 A 
ENDROOT
BRANCH   1  16
ATOM      7  C   UNL     1      -1.966   7.749   0.011  0.00  0.00    +0.074 C 
ATOM      8  C   UNL     1      -1.425   6.666  -0.869  0.00  0.00    +0.139 A 
ATOM      9  N   UNL     1      -1.924   6.282  -2.069  0.00  0.00    -0.229 NA
ATOM     10  C   UNL     1      -0.943   5.706  -2.808  0.00  0.00    +0.097 A 
ATOM     11  C   UNL     1      -0.914   5.703  -4.276  0.00  0.00    +0.033 A 
ATOM     12  C   UNL     1       0.212   5.659  -5.089  0.00  0.00    +0.056 A 
ATOM     13  N   UNL     1       1.591   5.803  -4.728  0.00  0.00    -0.255 N 
ATOM     14  C   UNL     1       2.070   6.065  -3.396  0.00  0.00    +0.105 C 
ATOM     15  C   UNL     1       1.511   5.130  -2.360  0.00  0.00    +0.069 C 
ATOM     16  C   UNL     1       2.370   6.460  -5.735  0.00  0.00    +0.253 C 
ATOM     17  O   UNL     1       3.152   7.417  -5.451  0.00  0.00    -0.270 OA
ATOM     18  C   UNL     1      -0.006   5.659  -6.441  0.00  0.00    +0.015 A 
ATOM     19  C   UNL     1      -1.269   5.351  -6.934  0.00  0.00    +0.001 A 
ATOM     20  C   UNL     1      -2.373   5.415  -6.093  0.00  0.00    +0.000 A 
ATOM     21  C   UNL     1      -2.187   5.889  -4.799  0.00  0.00    +0.003 A 
ATOM     22  C   UNL     1       0.147   5.587  -1.955  0.00  0.00    +0.080 A 
ATOM     23  N   UNL     1      -0.191   6.116  -0.759  0.00  0.00    -0.233 NA
ENDBRANCH   1  16
BRANCH   4  24
ATOM     24  N   UNL     1       3.928   5.761 -10.989  0.00  0.00    -0.175 NA
ATOM     25  C   UNL     1       4.787   6.872 -11.174  0.00  0.00    +0.269 C 
ATOM     26  O   UNL     1       4.452   7.942 -10.583  0.00  0.00    -0.268 OA
BRANCH  25  27
ATOM     27  C   UNL     1       6.227   6.737 -11.442  0.00  0.00    +0.055 A 
ATOM     28  C   UNL     1       6.581   6.105 -12.624  0.00  0.00    +0.004 A 
ATOM     29  C   UNL     1       7.796   5.442 -12.735  0.00  0.00    +0.000 A 
ATOM     30  C   UNL     1       8.400   4.946 -11.588  0.00  0.00    +0.000 A 
ATOM     31  C   UNL     1       8.146   5.655 -10.422  0.00  0.00    +0.000 A 
ATOM     32  C   UNL     1       7.117   6.588 -10.387  0.00  0.00    +0.005 A 
BRANCH  28  33
ATOM     33  C   UNL     1       5.892   6.566 -13.835  0.00  0.00    +0.000 A 
ATOM     34  C   UNL     1       6.558   7.505 -14.613  0.00  0.00    +0.000 A 
ATOM     35  C   UNL     1       6.130   7.713 -15.918  0.00  0.00    +0.000 A 
ATOM     36  C   UNL     1       4.815   7.379 -16.213  0.00  0.00    +0.000 A 
ATOM     37  C   UNL     1       4.095   6.555 -15.356  0.00  0.00    +0.000 A 
ATOM     38  C   UNL     1       4.707   5.973 -14.253  0.00  0.00    +0.000 A 
ENDBRANCH  28  33
ENDBRANCH  25  27
ENDBRANCH   4  24
TORSDOF 4
ENDMDL
MODEL 2
REMARK VINA RESULT:     -11.1      1.658     11.219
REMARK  Name = 
REMARK  4 active torsions:
REMARK  status: ('A' for Active; 'I' for Inactive)
REMARK    1  A    between atoms: C_14  and  C_16
REMARK    2  A    between atoms: C_19  and  N_20
REMARK    3  A    between atoms: C_21  and  C_23
REMARK    4  A    between atoms: C_28  and  C_29
REMARK                            x       y       z     vdW  Elec       q    Type
REMARK                         _______ _______ _______ _____ _____    ______ ____
ROOT
ATOM      1  C   UNL     1       2.871   5.716  -9.019  0.00  0.00    +0.054 A 
ATOM      2  C   UNL     1       2.305   4.487  -8.709  0.00  0.00    +0.006 A 
ATOM      3  C   UNL     1       2.163   4.146  -7.379  0.00  0.00    +0.017 A 
ATOM      4  C   UNL     1       2.191   5.087  -6.357  0.00  0.00    +0.074 A 
ATOM      5  C   UNL     1       2.649   6.356  -6.686  0.00  0.00    +0.017 A 
ATOM      6  C   UNL     1       2.809   6.684  -8.027  0.00  0.00    +0.006 A 
ENDROOT
BRANCH   1  16
ATOM      7  C   UNL     1       6.828   8.099 -16.230  0.00  0.00    +0.074 C 
ATOM      8  C   UNL     1       6.509   6.958 -15.314  0.00  0.00    +0.139 A 
ATOM      9  N   UNL     1       7.078   6.714 -14.108  0.00  0.00    -0.229 NA
ATOM     10  C   UNL     1       6.229   5.982 -13.345  0.00  0.00    +0.097 A 
ATOM     11  C   UNL     1       6.208   6.017 -11.876  0.00  0.00    +0.033 A 
ATOM     12  C   UNL     1       5.114   5.782 -11.051  0.00  0.00    +0.056 A 
ATOM     13  N   UNL     1       3.732   5.647 -11.403  0.00  0.00    -0.255 N 
ATOM     14  C   UNL     1       3.206   5.773 -12.737  0.00  0.00    +0.105 C 
ATOM     15  C   UNL     1       3.930   4.931 -13.751  0.00  0.00    +0.069 C 
ATOM     16  C   UNL     1       2.845   6.172 -10.408  0.00  0.00    +0.253 C 
ATOM     17  O   UNL     1       1.892   6.951 -10.711  0.00  0.00    -0.270 OA
ATOM     18  C   UNL     1       5.334   5.864  -9.702  0.00  0.00    +0.015 A 
ATOM     19  C   UNL     1       6.634   5.819  -9.214  0.00  0.00    +0.001 A 
ATOM     20  C   UNL     1       7.702   6.069 -10.067  0.00  0.00    +0.000 A 
ATOM     21  C   UNL     1       7.423   6.460 -11.372  0.00  0.00    +0.003 A 
ATOM     22  C   UNL     1       5.179   5.630 -14.183  0.00  0.00    +0.080 A 
ATOM     23  N   UNL     1       5.404   6.179 -15.397  0.00  0.00    -0.233 NA
ENDBRANCH   1  16
BRANCH   4  24
ATOM     24  N   UNL     1       1.282   4.891  -5.266  0.00  0.00    -0.175 NA
ATOM     25  C   UNL     1       0.726   5.957  -4.518  0.00  0.00    +0.269 C 
ATOM     26  O   UNL     1       1.421   7.016  -4.452  0.00  0.00    -0.268 OA
BRANCH  25  27
ATOM     27  C   UNL     1      -0.722   6.156  -4.360  0.00  0.00    +0.055 A 
ATOM     28  C   UNL     1      -1.282   5.723  -3.168  0.00  0.00    +0.004 A 
ATOM     29  C   UNL     1      -2.616   5.346  -3.109  0.00  0.00    +0.000 A 
ATOM     30  C   UNL     1      -3.239   4.889  -4.261  0.00  0.00    +0.000 A 
ATOM     31  C   UNL     1      -2.762   5.419  -5.451  0.00  0.00    +0.000 A 
ATOM     32  C   UNL     1      -1.554   6.105  -5.471  0.00  0.00    +0.005 A 
BRANCH  28  33
ATOM     33  C   UNL     1      -0.588   6.135  -1.942  0.00  0.00    +0.000 A 
ATOM     34  C   UNL     1      -1.151   7.186  -1.228  0.00  0.00    +0.000 A 
ATOM     35  C   UNL     1      -0.754   7.386   0.087  0.00  0.00    +0.000 A 
ATOM     36  C   UNL     1       0.488   6.889   0.455  0.00  0.00    +0.000 A 
ATOM     37  C   UNL     1       1.125   5.942  -0.338  0.00  0.00    +0.000 A 
ATOM     38  C   UNL     1       0.486   5.405  -1.449  0.00  0.00    +0.000 A 
ENDBRANCH  28  33
ENDBRANCH  25  27
ENDBRANCH   4  24
TORSDOF 4
ENDMDL
MODEL 3
REMARK VINA RESULT:     -11.0      2.054     10.297
REMARK  Name = 
REMARK  4 active torsions:
REMARK  status: ('A' for Active; 'I' for Inactive)
REMARK    1  A    between atoms: C_14  and  C_16
REMARK    2  A    between atoms: C_19  and  N_20
REMARK    3  A    between atoms: C_21  and  C_23
REMARK    4  A    between atoms: C_28  and  C_29
REMARK                            x       y       z     vdW  Elec       q    Type
REMARK                         _______ _______ _______ _____ _____    ______ ____
ROOT
ATOM      1  C   UNL     1       1.291   6.303  -9.167  0.00  0.00    +0.054 A 
ATOM      2  C   UNL     1       0.226   5.522  -8.741  0.00  0.00    +0.006 A 
ATOM      3  C   UNL     1       0.068   5.311  -7.386  0.00  0.00    +0.017 A 
ATOM      4  C   UNL     1       0.658   6.124  -6.426  0.00  0.00    +0.074 A 
ATOM      5  C   UNL     1       1.648   6.994  -6.866  0.00  0.00    +0.017 A 
ATOM      6  C   UNL     1       1.814   7.185  -8.232  0.00  0.00    +0.006 A 
ENDROOT
BRANCH   1  16
ATOM      7  C   UNL     1       5.686   7.856 -16.351  0.00  0.00    +0.074 C 
ATOM      8  C   UNL     1       5.205   6.805 -15.400  0.00  0.00    +0.139 A 
ATOM      9  N   UNL     1       5.709   6.546 -14.169  0.00  0.00    -0.229 NA
ATOM     10  C   UNL     1       4.758   5.960 -13.401  0.00  0.00    +0.097 A 
ATOM     11  C   UNL     1       4.706   6.062 -11.936  0.00  0.00    +0.033 A 
ATOM     12  C   UNL     1       3.572   6.000 -11.135  0.00  0.00    +0.056 A 
ATOM     13  N   UNL     1       2.193   6.023 -11.520  0.00  0.00    -0.255 N 
ATOM     14  C   UNL     1       1.719   6.154 -12.874  0.00  0.00    +0.105 C 
ATOM     15  C   UNL     1       2.356   5.185 -13.831  0.00  0.00    +0.069 C 
ATOM     16  C   UNL     1       1.355   6.697 -10.574  0.00  0.00    +0.253 C 
ATOM     17  O   UNL     1       0.515   7.574 -10.936  0.00  0.00    -0.270 OA
ATOM     18  C   UNL     1       3.769   6.114  -9.784  0.00  0.00    +0.015 A 
ATOM     19  C   UNL     1       5.041   5.931  -9.256  0.00  0.00    +0.001 A 
ATOM     20  C   UNL     1       6.152   6.008 -10.088  0.00  0.00    +0.000 A 
ATOM     21  C   UNL     1       5.955   6.372 -11.415  0.00  0.00    +0.003 A 
ATOM     22  C   UNL     1       3.693   5.704 -14.254  0.00  0.00    +0.080 A 
ATOM     23  N   UNL     1       4.013   6.166 -15.482  0.00  0.00    -0.233 NA
ENDBRANCH   1  16
BRANCH   4  24
ATOM     24  N   UNL     1      -0.115   6.417  -5.256  0.00  0.00    -0.175 NA
ATOM     25  C   UNL     1       0.052   5.735  -4.025  0.00  0.00    +0.269 C 
ATOM     26  O   UNL     1       0.479   4.544  -4.100  0.00  0.00    -0.268 OA
BRANCH  25  27
ATOM     27  C   UNL     1       0.353   6.423  -2.761  0.00  0.00    +0.055 A 
ATOM     28  C   UNL     1       1.591   6.165  -2.194  0.00  0.00    +0.004 A 
ATOM     29  C   UNL     1       1.779   6.277  -0.823  0.00  0.00    +0.000 A 
ATOM     30  C   UNL     1       0.690   6.115   0.022  0.00  0.00    +0.000 A 
ATOM     31  C   UNL     1      -0.538   6.493  -0.503  0.00  0.00    +0.000 A 
ATOM     32  C   UNL     1      -0.672   6.712  -1.869  0.00  0.00    +0.005 A 
BRANCH  28  33
ATOM     33  C   UNL     1       2.746   6.256  -3.095  0.00  0.00    +0.000 A 
ATOM     34  C   UNL     1       3.132   7.531  -3.490  0.00  0.00    +0.000 A 
ATOM     35  C   UNL     1       4.394   7.704  -4.041  0.00  0.00    +0.000 A 
ATOM     36  C   UNL     1       4.989   6.593  -4.622  0.00  0.00    +0.000 A 
ATOM     37  C   UNL     1       4.509   5.319  -4.343  0.00  0.00    +0.000 A 
ATOM     38  C   UNL     1       3.500   5.131  -3.406  0.00  0.00    +0.000 A 
ENDBRANCH  28  33
ENDBRANCH  25  27
ENDBRANCH   4  24
TORSDOF 4
ENDMDL
MODEL 4
REMARK VINA RESULT:     -10.9      1.768     10.084
REMARK  Name = 
REMARK  4 active torsions:
REMARK  status: ('A' for Active; 'I' for Inactive)
REMARK    1  A    between atoms: C_14  and  C_16
REMARK    2  A    between atoms: C_19  and  N_20
REMARK    3  A    between atoms: C_21  and  C_23
REMARK    4  A    between atoms: C_28  and  C_29
REMARK                            x       y       z     vdW  Elec       q    Type
REMARK                         _______ _______ _______ _____ _____    ______ ____
ROOT
ATOM      1  C   UNL     1       3.824   5.866  -7.827  0.00  0.00    +0.054 A 
ATOM      2  C   UNL     1       3.189   4.701  -7.421  0.00  0.00    +0.006 A 
ATOM      3  C   UNL     1       3.354   4.284  -6.115  0.00  0.00    +0.017 A 
ATOM      4  C   UNL     1       3.783   5.136  -5.105  0.00  0.00    +0.074 A 
ATOM      5  C   UNL     1       4.316   6.357  -5.500  0.00  0.00    +0.017 A 
ATOM      6  C   UNL     1       4.163   6.760  -6.821  0.00  0.00    +0.006 A 
ENDROOT
BRANCH   1  16
ATOM      7  C   UNL     1       5.974   7.975 -15.843  0.00  0.00    +0.074 C 
ATOM      8  C   UNL     1       5.699   6.852 -14.893  0.00  0.00    +0.139 A 
ATOM      9  N   UNL     1       6.523   6.411 -13.911  0.00  0.00    -0.229 NA
ATOM     10  C   UNL     1       5.794   5.803 -12.944  0.00  0.00    +0.097 A 
ATOM     11  C   UNL     1       6.198   5.730 -11.533  0.00  0.00    +0.033 A 
ATOM     12  C   UNL     1       5.360   5.649 -10.427  0.00  0.00    +0.056 A 
ATOM     13  N   UNL     1       3.938   5.813 -10.359  0.00  0.00    -0.255 N 
ATOM     14  C   UNL     1       3.093   6.139 -11.479  0.00  0.00    +0.105 C 
ATOM     15  C   UNL     1       3.307   5.252 -12.674  0.00  0.00    +0.069 C 
ATOM     16  C   UNL     1       3.500   6.423  -9.140  0.00  0.00    +0.253 C 
ATOM     17  O   UNL     1       2.684   7.393  -9.137  0.00  0.00    -0.270 OA
ATOM     18  C   UNL     1       5.966   5.585  -9.201  0.00  0.00    +0.015 A 
ATOM     19  C   UNL     1       7.312   5.252  -9.117  0.00  0.00    +0.001 A 
ATOM     20  C   UNL     1       8.122   5.354 -10.242  0.00  0.00    +0.000 A 
ATOM     21  C   UNL     1       7.570   5.889 -11.401  0.00  0.00    +0.003 A 
ATOM     22  C   UNL     1       4.499   5.726 -13.442  0.00  0.00    +0.080 A 
ATOM     23  N   UNL     1       4.479   6.310 -14.659  0.00  0.00    -0.233 NA
ENDBRANCH   1  16
BRANCH   4  24
ATOM     24  N   UNL     1       3.174   4.978  -3.817  0.00  0.00    -0.175 NA
ATOM     25  C   UNL     1       2.340   5.959  -3.228  0.00  0.00    +0.269 C 
ATOM     26  O   UNL     1       2.559   7.160  -3.573  0.00  0.00    -0.268 OA
BRANCH  25  27
ATOM     27  C   UNL     1       0.965   5.683  -2.787  0.00  0.00    +0.055 A 
ATOM     28  C   UNL     1      -0.052   6.280  -3.515  0.00  0.00    +0.004 A 
ATOM     29  C   UNL     1      -1.276   6.561  -2.923  0.00  0.00    +0.000 A 
ATOM     30  C   UNL     1      -1.332   6.755  -1.551  0.00  0.00    +0.000 A 
ATOM     31  C   UNL     1      -0.391   6.056  -0.807  0.00  0.00    +0.000 A 
ATOM     32  C   UNL     1       0.699   5.471  -1.440  0.00  0.00    +0.005 A 
BRANCH  28  33
ATOM     33  C   UNL     1       0.036   6.149  -4.975  0.00  0.00    +0.000 A 
ATOM     34  C   UNL     1      -0.309   4.916  -5.514  0.00  0.00    +0.000 A 
ATOM     35  C   UNL     1      -0.579   4.835  -6.873  0.00  0.00    +0.000 A 
ATOM     36  C   UNL     1      -0.026   5.813  -7.687  0.00  0.00    +0.000 A 
ATOM     37  C   UNL     1       0.457   6.992  -7.132  0.00  0.00    +0.000 A 
ATOM     38  C   UNL     1       0.301   7.253  -5.776  0.00  0.00    +0.000 A 
ENDBRANCH  28  33
ENDBRANCH  25  27
ENDBRANCH   4  24
TORSDOF 4
ENDMDL
MODEL 5
REMARK VINA RESULT:     -10.8      1.991     11.035
REMARK  Name = 
REMARK  4 active torsions:
REMARK  status: ('A' for Active; 'I' for Inactive)
REMARK    1  A    between atoms: C_14  and  C_16
REMARK    2  A    between atoms: C_19  and  N_20
REMARK    3  A    between atoms: C_21  and  C_23
REMARK    4  A    between atoms: C_28  and  C_29
REMARK                            x       y       z     vdW  Elec       q    Type
REMARK                         _______ _______ _______ _____ _____    ______ ____
ROOT
ATOM      1  C   UNL     1       3.032   5.579  -9.357  0.00  0.00    +0.054 A 
ATOM      2  C   UNL     1       2.518   4.337  -9.012  0.00  0.00    +0.006 A 
ATOM      3  C   UNL     1       2.653   3.909  -7.707  0.00  0.00    +0.017 A 
ATOM      4  C   UNL     1       2.916   4.780  -6.656  0.00  0.00    +0.074 A 
ATOM      5  C   UNL     1       3.321   6.065  -6.994  0.00  0.00    +0.017 A 
ATOM      6  C   UNL     1       3.201   6.480  -8.315  0.00  0.00    +0.006 A 
ENDROOT
BRANCH   1  16
ATOM      7  C   UNL     1       5.436   8.904 -16.873  0.00  0.00    +0.074 C 
ATOM      8  C   UNL     1       5.395   7.673 -16.024  0.00  0.00    +0.139 A 
ATOM      9  N   UNL     1       6.183   7.409 -14.953  0.00  0.00    -0.229 NA
ATOM     10  C   UNL     1       5.556   6.534 -14.129  0.00  0.00    +0.097 A 
ATOM     11  C   UNL     1       5.782   6.462 -12.680  0.00  0.00    +0.033 A 
ATOM     12  C   UNL     1       4.876   6.045 -11.713  0.00  0.00    +0.056 A 
ATOM     13  N   UNL     1       3.474   5.779 -11.845  0.00  0.00    -0.255 N 
ATOM     14  C   UNL     1       2.718   5.938 -13.060  0.00  0.00    +0.105 C 
ATOM     15  C   UNL     1       3.339   5.259 -14.249  0.00  0.00    +0.069 C 
ATOM     16  C   UNL     1       2.723   6.127 -10.677  0.00  0.00    +0.253 C 
ATOM     17  O   UNL     1       1.659   6.812 -10.750  0.00  0.00    -0.270 OA
ATOM     18  C   UNL     1       5.314   6.056 -10.415  0.00  0.00    +0.015 A 
ATOM     19  C   UNL     1       6.676   6.125 -10.150  0.00  0.00    +0.001 A 
ATOM     20  C   UNL     1       7.552   6.555 -11.140  0.00  0.00    +0.000 A 
ATOM     21  C   UNL     1       7.015   7.003 -12.342  0.00  0.00    +0.003 A 
ATOM     22  C   UNL     1       4.419   6.125 -14.814  0.00  0.00    +0.080 A 
ATOM     23  N   UNL     1       4.376   6.780 -15.994  0.00  0.00    -0.233 NA
ENDBRANCH   1  16
BRANCH   4  24
ATOM     24  N   UNL     1       2.254   4.518  -5.412  0.00  0.00    -0.175 NA
ATOM     25  C   UNL     1       2.347   5.375  -4.289  0.00  0.00    +0.269 C 
ATOM     26  O   UNL     1       3.409   6.062  -4.196  0.00  0.00    -0.268 OA
BRANCH  25  27
ATOM     27  C   UNL     1       1.172   5.960  -3.626  0.00  0.00    +0.055 A 
ATOM     28  C   UNL     1       1.057   5.742  -2.262  0.00  0.00    +0.004 A 
ATOM     29  C   UNL     1      -0.189   5.737  -1.649  0.00  0.00    +0.000 A 
ATOM     30  C   UNL     1      -1.309   5.415  -2.402  0.00  0.00    +0.000 A 
ATOM     31  C   UNL     1      -1.244   5.748  -3.747  0.00  0.00    +0.000 A 
ATOM     32  C   UNL     1      -0.024   6.086  -4.321  0.00  0.00    +0.005 A 
BRANCH  28  33
ATOM     33  C   UNL     1       2.259   6.004  -1.461  0.00  0.00    +0.000 A 
ATOM     34  C   UNL     1       3.078   4.917  -1.189  0.00  0.00    +0.000 A 
ATOM     35  C   UNL     1       4.374   5.153  -0.750  0.00  0.00    +0.000 A 
ATOM     36  C   UNL     1       4.623   6.374  -0.139  0.00  0.00    +0.000 A 
ATOM     37  C   UNL     1       3.726   7.424  -0.290  0.00  0.00    +0.000 A 
ATOM     38  C   UNL     1       2.627   7.303  -1.131  0.00  0.00    +0.000 A 
ENDBRANCH  28  33
ENDBRANCH  25  27
ENDBRANCH   4  24
TORSDOF 4
ENDMDL
MODEL 6
REMARK VINA RESULT:     -10.8      1.786      3.314
REMARK  Name = 
REMARK  4 active torsions:
REMARK  status: ('A' for Active; 'I' for Inactive)
REMARK    1  A    between atoms: C_14  and  C_16
REMARK    2  A    between atoms: C_19  and  N_20
REMARK    3  A    between atoms: C_21  and  C_23
REMARK    4  A    between atoms: C_28  and  C_29
REMARK                            x       y       z     vdW  Elec       q    Type
REMARK                         _______ _______ _______ _____ _____    ______ ____
ROOT
ATOM      1  C   UNL     1       2.514   6.528  -5.548  0.00  0.00    +0.054 A 
ATOM      2  C   UNL     1       3.580   5.710  -5.898  0.00  0.00    +0.006 A 
ATOM      3  C   UNL     1       3.850   5.520  -7.238  0.00  0.00    +0.017 A 
ATOM      4  C   UNL     1       3.384   6.379  -8.226  0.00  0.00    +0.074 A 
ATOM      5  C   UNL     1       2.396   7.283  -7.855  0.00  0.00    +0.017 A 
ATOM      6  C   UNL     1       2.116   7.452  -6.504  0.00  0.00    +0.006 A 
ENDROOT
BRANCH   1  16
ATOM      7  C   UNL     1      -2.442   8.179   1.237  0.00  0.00    +0.074 C 
ATOM      8  C   UNL     1      -1.933   7.123   0.306  0.00  0.00    +0.139 A 
ATOM      9  N   UNL     1      -2.334   6.919  -0.973  0.00  0.00    -0.229 NA
ATOM     10  C   UNL     1      -1.349   6.295  -1.665  0.00  0.00    +0.097 A 
ATOM     11  C   UNL     1      -1.153   6.426  -3.115  0.00  0.00    +0.033 A 
ATOM     12  C   UNL     1       0.045   6.316  -3.810  0.00  0.00    +0.056 A 
ATOM     13  N   UNL     1       1.382   6.251  -3.298  0.00  0.00    -0.255 N 
ATOM     14  C   UNL     1       1.733   6.325  -1.903  0.00  0.00    +0.105 C 
ATOM     15  C   UNL     1       0.956   5.374  -1.035  0.00  0.00    +0.069 C 
ATOM     16  C   UNL     1       2.341   6.895  -4.144  0.00  0.00    +0.253 C 
ATOM     17  O   UNL     1       3.190   7.715  -3.682  0.00  0.00    -0.270 OA
ATOM     18  C   UNL     1      -0.017   6.470  -5.169  0.00  0.00    +0.015 A 
ATOM     19  C   UNL     1      -1.242   6.371  -5.817  0.00  0.00    +0.001 A 
ATOM     20  C   UNL     1      -2.420   6.495  -5.090  0.00  0.00    +0.000 A 
ATOM     21  C   UNL     1      -2.328   6.819  -3.741  0.00  0.00    +0.003 A 
ATOM     22  C   UNL     1      -0.383   5.960  -0.723  0.00  0.00    +0.080 A 
ATOM     23  N   UNL     1      -0.791   6.414   0.481  0.00  0.00    -0.233 NA
ENDBRANCH   1  16
BRANCH   4  24
ATOM     24  N   UNL     1       4.271   6.662  -9.315  0.00  0.00    -0.175 NA
ATOM     25  C   UNL     1       4.460   5.783 -10.410  0.00  0.00    +0.269 C 
ATOM     26  O   UNL     1       4.277   4.550 -10.176  0.00  0.00    -0.268 OA
BRANCH  25  27
ATOM     27  C   UNL     1       4.248   6.186 -11.808  0.00  0.00    +0.055 A 
ATOM     28  C   UNL     1       3.083   5.739 -12.412  0.00  0.00    +0.004 A 
ATOM     29  C   UNL     1       3.021   5.565 -13.788  0.00  0.00    +0.000 A 
ATOM     30  C   UNL     1       4.192   5.312 -14.489  0.00  0.00    +0.000 A 
ATOM     31  C   UNL     1       5.345   5.866 -13.951  0.00  0.00    +0.000 A 
ATOM     32  C   UNL     1       5.338   6.359 -12.652  0.00  0.00    +0.005 A 
BRANCH  28  33
ATOM     33  C   UNL     1       1.845   5.930 -11.648  0.00  0.00    +0.000 A 
ATOM     34  C   UNL     1       1.200   7.151 -11.798  0.00  0.00    +0.000 A 
ATOM     35  C   UNL     1      -0.123   7.261 -11.391  0.00  0.00    +0.000 A 
ATOM     36  C   UNL     1      -0.566   6.361 -10.432  0.00  0.00    +0.000 A 
ATOM     37  C   UNL     1       0.159   5.204 -10.173  0.00  0.00    +0.000 A 
ATOM     38  C   UNL     1       1.275   4.882 -10.936  0.00  0.00    +0.000 A 
ENDBRANCH  28  33
ENDBRANCH  25  27
ENDBRANCH   4  24
TORSDOF 4
ENDMDL
MODEL 7
REMARK VINA RESULT:     -10.6      2.025     10.430
REMARK  Name = 
REMARK  4 active torsions:
REMARK  status: ('A' for Active; 'I' for Inactive)
REMARK    1  A    between atoms: C_14  and  C_16
REMARK    2  A    between atoms: C_19  and  N_20
REMARK    3  A    between atoms: C_21  and  C_23
REMARK    4  A    between atoms: C_28  and  C_29
REMARK                            x       y       z     vdW  Elec       q    Type
REMARK                         _______ _______ _______ _____ _____    ______ ____
ROOT
ATOM      1  C   UNL     1       3.212   5.601  -9.248  0.00  0.00    +0.054 A 
ATOM      2  C   UNL     1       2.606   4.427  -8.821  0.00  0.00    +0.006 A 
ATOM      3  C   UNL     1       2.793   4.031  -7.512  0.00  0.00    +0.017 A 
ATOM      4  C   UNL     1       3.214   4.904  -6.516  0.00  0.00    +0.074 A 
ATOM      5  C   UNL     1       3.716   6.131  -6.931  0.00  0.00    +0.017 A 
ATOM      6  C   UNL     1       3.542   6.514  -8.255  0.00  0.00    +0.006 A 
ENDROOT
BRANCH   1  16
ATOM      7  C   UNL     1       5.387   8.848 -16.867  0.00  0.00    +0.074 C 
ATOM      8  C   UNL     1       5.373   7.626 -16.004  0.00  0.00    +0.139 A 
ATOM      9  N   UNL     1       6.193   7.375 -14.954  0.00  0.00    -0.229 NA
ATOM     10  C   UNL     1       5.592   6.507 -14.103  0.00  0.00    +0.097 A 
ATOM     11  C   UNL     1       5.861   6.451 -12.660  0.00  0.00    +0.033 A 
ATOM     12  C   UNL     1       4.984   6.043 -11.662  0.00  0.00    +0.056 A 
ATOM     13  N   UNL     1       3.580   5.774 -11.750  0.00  0.00    -0.255 N 
ATOM     14  C   UNL     1       2.788   5.920 -12.944  0.00  0.00    +0.105 C 
ATOM     15  C   UNL     1       3.374   5.229 -14.143  0.00  0.00    +0.069 C 
ATOM     16  C   UNL     1       2.863   6.134 -10.563  0.00  0.00    +0.253 C 
ATOM     17  O   UNL     1       1.796   6.817 -10.613  0.00  0.00    -0.270 OA
ATOM     18  C   UNL     1       5.461   6.069 -10.378  0.00  0.00    +0.015 A 
ATOM     19  C   UNL     1       6.830   6.142 -10.155  0.00  0.00    +0.001 A 
ATOM     20  C   UNL     1       7.675   6.563 -11.174  0.00  0.00    +0.000 A 
ATOM     21  C   UNL     1       7.103   6.997 -12.365  0.00  0.00    +0.003 A 
ATOM     22  C   UNL     1       4.435   6.089 -14.749  0.00  0.00    +0.080 A 
ATOM     23  N   UNL     1       4.357   6.732 -15.934  0.00  0.00    -0.233 NA
ENDBRANCH   1  16
BRANCH   4  24
ATOM     24  N   UNL     1       2.621   4.749  -5.221  0.00  0.00    -0.175 NA
ATOM     25  C   UNL     1       3.379   4.610  -4.032  0.00  0.00    +0.269 C 
ATOM     26  O   UNL     1       4.529   4.091  -4.160  0.00  0.00    -0.268 OA
BRANCH  25  27
ATOM     27  C   UNL     1       3.230   5.506  -2.876  0.00  0.00    +0.055 A 
ATOM     28  C   UNL     1       2.373   6.584  -3.033  0.00  0.00    +0.004 A 
ATOM     29  C   UNL     1       2.555   7.745  -2.294  0.00  0.00    +0.000 A 
ATOM     30  C   UNL     1       3.824   8.055  -1.826  0.00  0.00    +0.000 A 
ATOM     31  C   UNL     1       4.642   6.968  -1.548  0.00  0.00    +0.000 A 
ATOM     32  C   UNL     1       4.298   5.704  -2.011  0.00  0.00    +0.005 A 
BRANCH  28  33
ATOM     33  C   UNL     1       1.053   6.284  -3.600  0.00  0.00    +0.000 A 
ATOM     34  C   UNL     1       0.218   5.470  -2.845  0.00  0.00    +0.000 A 
ATOM     35  C   UNL     1      -1.136   5.437  -3.151  0.00  0.00    +0.000 A 
ATOM     36  C   UNL     1      -1.500   5.789  -4.443  0.00  0.00    +0.000 A 
ATOM     37  C   UNL     1      -0.608   6.477  -5.257  0.00  0.00    +0.000 A 
ATOM     38  C   UNL     1       0.615   6.911  -4.760  0.00  0.00    +0.000 A 
ENDBRANCH  28  33
ENDBRANCH  25  27
ENDBRANCH   4  24
TORSDOF 4
ENDMDL
MODEL 8
REMARK VINA RESULT:     -10.6      2.075      2.908
REMARK  Name = 
REMARK  4 active torsions:
REMARK  status: ('A' for Active; 'I' for Inactive)
REMARK    1  A    between atoms: C_14  and  C_16
REMARK    2  A    between atoms: C_19  and  N_20
REMARK    3  A    between atoms: C_21  and  C_23
REMARK    4  A    between atoms: C_28  and  C_29
REMARK                            x       y       z     vdW  Elec       q    Type
REMARK                         _______ _______ _______ _____ _____    ______ ____
ROOT
ATOM      1  C   UNL     1       1.448   5.804  -5.351  0.00  0.00    +0.054 A 
ATOM      2  C   UNL     1       2.140   4.633  -5.629  0.00  0.00    +0.006 A 
ATOM      3  C   UNL     1       2.028   4.089  -6.893  0.00  0.00    +0.017 A 
ATOM      4  C   UNL     1       1.595   4.824  -7.990  0.00  0.00    +0.074 A 
ATOM      5  C   UNL     1       1.004   6.053  -7.726  0.00  0.00    +0.017 A 
ATOM      6  C   UNL     1       1.103   6.584  -6.446  0.00  0.00    +0.006 A 
ENDROOT
BRANCH   1  16
ATOM      7  C   UNL     1      -1.209   9.482   1.911  0.00  0.00    +0.074 C 
ATOM      8  C   UNL     1      -1.043   8.194   1.168  0.00  0.00    +0.139 A 
ATOM      9  N   UNL     1      -1.811   7.754   0.142  0.00  0.00    -0.229 NA
ATOM     10  C   UNL     1      -1.102   6.884  -0.619  0.00  0.00    +0.097 A 
ATOM     11  C   UNL     1      -1.338   6.663  -2.052  0.00  0.00    +0.033 A 
ATOM     12  C   UNL     1      -0.404   6.266  -3.001  0.00  0.00    +0.056 A 
ATOM     13  N   UNL     1       1.020   6.168  -2.879  0.00  0.00    -0.255 N 
ATOM     14  C   UNL     1       1.771   6.514  -1.700  0.00  0.00    +0.105 C 
ATOM     15  C   UNL     1       1.245   5.876  -0.443  0.00  0.00    +0.069 C 
ATOM     16  C   UNL     1       1.712   6.494  -4.090  0.00  0.00    +0.253 C 
ATOM     17  O   UNL     1       2.694   7.296  -4.099  0.00  0.00    -0.270 OA
ATOM     18  C   UNL     1      -0.858   6.117  -4.284  0.00  0.00    +0.015 A 
ATOM     19  C   UNL     1      -2.223   6.013  -4.523  0.00  0.00    +0.001 A 
ATOM     20  C   UNL     1      -3.128   6.428  -3.553  0.00  0.00    +0.000 A 
ATOM     21  C   UNL     1      -2.628   7.035  -2.406  0.00  0.00    +0.003 A 
ATOM     22  C   UNL     1       0.084   6.663   0.071  0.00  0.00    +0.080 A 
ATOM     23  N   UNL     1       0.069   7.419   1.191  0.00  0.00    -0.233 NA
ENDBRANCH   1  16
BRANCH   4  24
ATOM     24  N   UNL     1       2.247   4.572  -9.241  0.00  0.00    -0.175 NA
ATOM     25  C   UNL     1       2.126   5.426 -10.365  0.00  0.00    +0.269 C 
ATOM     26  O   UNL     1       1.052   6.095 -10.446  0.00  0.00    -0.268 OA
BRANCH  25  27
ATOM     27  C   UNL     1       3.283   6.029 -11.042  0.00  0.00    +0.055 A 
ATOM     28  C   UNL     1       3.490   5.663 -12.363  0.00  0.00    +0.004 A 
ATOM     29  C   UNL     1       4.763   5.695 -12.916  0.00  0.00    +0.000 A 
ATOM     30  C   UNL     1       5.863   5.563 -12.081  0.00  0.00    +0.000 A 
ATOM     31  C   UNL     1       5.698   6.046 -10.790  0.00  0.00    +0.000 A 
ATOM     32  C   UNL     1       4.426   6.340 -10.316  0.00  0.00    +0.005 A 
BRANCH  28  33
ATOM     33  C   UNL     1       2.315   5.723 -13.241  0.00  0.00    +0.000 A 
ATOM     34  C   UNL     1       1.909   6.984 -13.657  0.00  0.00    +0.000 A 
ATOM     35  C   UNL     1       1.047   7.083 -14.741  0.00  0.00    +0.000 A 
ATOM     36  C   UNL     1       0.258   5.977 -15.024  0.00  0.00    +0.000 A 
ATOM     37  C   UNL     1       0.578   4.736 -14.487  0.00  0.00    +0.000 A 
ATOM     38  C   UNL     1       1.742   4.563 -13.748  0.00  0.00    +0.000 A 
ENDBRANCH  28  33
ENDBRANCH  25  27
ENDBRANCH   4  24
TORSDOF 4
ENDMDL
MODEL 9
REMARK VINA RESULT:     -10.5      1.566      2.530
REMARK  Name = 
REMARK  4 active torsions:
REMARK  status: ('A' for Active; 'I' for Inactive)
REMARK    1  A    between atoms: C_14  and  C_16
REMARK    2  A    between atoms: C_19  and  N_20
REMARK    3  A    between atoms: C_21  and  C_23
REMARK    4  A    between atoms: C_28  and  C_29
REMARK                            x       y       z     vdW  Elec       q    Type
REMARK                         _______ _______ _______ _____ _____    ______ ____
ROOT
ATOM      1  C   UNL     1       3.172   6.278  -6.626  0.00  0.00    +0.054 A 
ATOM      2  C   UNL     1       4.263   5.454  -6.866  0.00  0.00    +0.006 A 
ATOM      3  C   UNL     1       4.651   5.242  -8.173  0.00  0.00    +0.017 A 
ATOM      4  C   UNL     1       4.276   6.085  -9.212  0.00  0.00    +0.074 A 
ATOM      5  C   UNL     1       3.261   6.996  -8.945  0.00  0.00    +0.017 A 
ATOM      6  C   UNL     1       2.862   7.187  -7.628  0.00  0.00    +0.006 A 
ENDROOT
BRANCH   1  16
ATOM      7  C   UNL     1      -2.298   7.332  -0.122  0.00  0.00    +0.074 C 
ATOM      8  C   UNL     1      -1.575   6.341  -0.980  0.00  0.00    +0.139 A 
ATOM      9  N   UNL     1      -1.876   6.019  -2.262  0.00  0.00    -0.229 NA
ATOM     10  C   UNL     1      -0.768   5.546  -2.885  0.00  0.00    +0.097 A 
ATOM     11  C   UNL     1      -0.532   5.648  -4.331  0.00  0.00    +0.033 A 
ATOM     12  C   UNL     1       0.698   5.717  -4.974  0.00  0.00    +0.056 A 
ATOM     13  N   UNL     1       2.001   5.904  -4.409  0.00  0.00    -0.255 N 
ATOM     14  C   UNL     1       2.271   6.095  -3.007  0.00  0.00    +0.105 C 
ATOM     15  C   UNL     1       1.628   5.062  -2.124  0.00  0.00    +0.069 C 
ATOM     16  C   UNL     1       2.874   6.668  -5.249  0.00  0.00    +0.253 C 
ATOM     17  O   UNL     1       3.550   7.640  -4.796  0.00  0.00    -0.270 OA
ATOM     18  C   UNL     1       0.673   5.801  -6.340  0.00  0.00    +0.015 A 
ATOM     19  C   UNL     1      -0.487   5.466  -7.029  0.00  0.00    +0.001 A 
ATOM     20  C   UNL     1      -1.701   5.416  -6.354  0.00  0.00    +0.000 A 
ATOM     21  C   UNL     1      -1.727   5.806  -5.020  0.00  0.00    +0.003 A 
ATOM     22  C   UNL     1       0.196   5.421  -1.892  0.00  0.00    +0.080 A 
ATOM     23  N   UNL     1      -0.338   5.847  -0.727  0.00  0.00    -0.233 NA
ENDBRANCH   1  16
BRANCH   4  24
ATOM     24  N   UNL     1       5.258   6.350 -10.223  0.00  0.00    -0.175 NA
ATOM     25  C   UNL     1       5.234   5.748 -11.505  0.00  0.00    +0.269 C 
ATOM     26  O   UNL     1       4.687   4.606 -11.576  0.00  0.00    -0.268 OA
BRANCH  25  27
ATOM     27  C   UNL     1       5.214   6.522 -12.754  0.00  0.00    +0.055 A 
ATOM     28  C   UNL     1       4.350   6.081 -13.744  0.00  0.00    +0.004 A 
ATOM     29  C   UNL     1       4.616   6.339 -15.082  0.00  0.00    +0.000 A 
ATOM     30  C   UNL     1       5.929   6.538 -15.482  0.00  0.00    +0.000 A 
ATOM     31  C   UNL     1       6.768   7.099 -14.529  0.00  0.00    +0.000 A 
ATOM     32  C   UNL     1       6.371   7.150 -13.199  0.00  0.00    +0.005 A 
BRANCH  28  33
ATOM     33  C   UNL     1       2.975   5.790 -13.320  0.00  0.00    +0.000 A 
ATOM     34  C   UNL     1       2.405   6.667 -12.406  0.00  0.00    +0.000 A 
ATOM     35  C   UNL     1       1.027   6.651 -12.237  0.00  0.00    +0.000 A 
ATOM     36  C   UNL     1       0.362   5.482 -12.579  0.00  0.00    +0.000 A 
ATOM     37  C   UNL     1       0.987   4.531 -13.376  0.00  0.00    +0.000 A 
ATOM     38  C   UNL     1       2.239   4.779 -13.925  0.00  0.00    +0.000 A 
ENDBRANCH  28  33
ENDBRANCH  25  27
ENDBRANCH   4  24
TORSDOF 4
ENDMDL
