MODEL 1
REMARK VINA RESULT:      -8.0      0.000      0.000
REMARK  Name = 
REMARK  13 active torsions:
REMARK  status: ('A' for Active; 'I' for Inactive)
REMARK    1  A    between atoms: C_2  and  C_3
REMARK    2  A    between atoms: C_3  and  C_4
REMARK    3  A    between atoms: C_4  and  C_5
REMARK    4  A    between atoms: C_5  and  C_6
REMARK    5  A    between atoms: C_6  and  C_8
REMARK    6  A    between atoms: C_9  and  C_10
REMARK    7  A    between atoms: C_16  and  C_17
REMARK    8  A    between atoms: C_17  and  C_18
REMARK    9  A    between atoms: C_18  and  C_19
REMARK   10  A    between atoms: C_19  and  C_20
REMARK   11  A    between atoms: C_20  and  C_21
REMARK   12  A    between atoms: C_21  and  C_22
REMARK   13  A    between atoms: C_22  and  C_23
REMARK                            x       y       z     vdW  Elec       q    Type
REMARK                         _______ _______ _______ _____ _____    ______ ____
ROOT
ATOM      1  C   UNL     1       2.715   5.735  -5.257  0.00  0.00    +0.059 C 
ATOM      2  C   UNL     1       4.236   5.300  -5.844  0.00  0.00    +0.064 C 
ATOM      3  C   UNL     1       4.759   6.532  -4.970  0.00  0.00    +0.153 C 
ATOM      4  O   UNL     1       4.422   7.690  -5.140  0.00  0.00    -0.296 OA
ATOM      5  C   UNL     1       4.589   5.927  -3.673  0.00  0.00    +0.098 C 
ATOM      6  C   UNL     1       3.188   5.083  -3.757  0.00  0.00    +0.164 C 
ATOM      7  O   UNL     1       2.455   6.181  -3.017  0.00  0.00    -0.222 OA
ENDROOT
BRANCH   1   9
ATOM      8  C   UNL     1       0.970   4.402  -6.420  0.00  0.00    +0.002 C 
ATOM      9  C   UNL     1       2.073   4.368  -5.724  0.00  0.00    -0.026 C 
BRANCH   8  10
ATOM     10  C   UNL     1       0.276   5.862  -6.586  0.00  0.00    +0.174 C 
ATOM     11  O   UNL     1       0.470   5.829  -8.098  0.00  0.00    -0.218 OA
BRANCH  10  12
ATOM     12  C   UNL     1      -1.226   5.182  -6.736  0.00  0.00    +0.037 C 
BRANCH  12  13
ATOM     13  C   UNL     1      -2.040   6.161  -5.914  0.00  0.00    +0.003 C 
BRANCH  13  14
ATOM     14  C   UNL     1      -1.185   6.851  -4.905  0.00  0.00    +0.000 C 
BRANCH  14  16
ATOM     15  C   UNL     1      -1.797   8.040  -4.498  0.00  0.00    +0.000 C 
ATOM     16  C   UNL     1      -1.880   8.183  -4.589  0.00  0.00    +0.000 C 
ENDBRANCH  14  16
ENDBRANCH  13  14
ENDBRANCH  12  13
ENDBRANCH  10  12
ENDBRANCH   8  10
ENDBRANCH   1   9
BRANCH   2  17
ATOM     17  C   UNL     1       4.049   6.132  -7.233  0.00  0.00    +0.008 C 
BRANCH  17  18
ATOM     18  C   UNL     1       4.664   5.187  -8.278  0.00  0.00    +0.000 C 
BRANCH  18  19
ATOM     19  C   UNL     1       5.653   5.665  -9.102  0.00  0.00    +0.000 C 
BRANCH  19  20
ATOM     20  C   UNL     1       6.986   5.627  -9.390  0.00  0.00    +0.001 C 
BRANCH  20  21
ATOM     21  C   UNL     1       7.553   6.853 -10.108  0.00  0.00    +0.012 C 
BRANCH  21  22
ATOM     22  C   UNL     1       7.346   6.646 -11.606  0.00  0.00    +0.114 C 
BRANCH  22  23
ATOM     23  C   UNL     1       8.291   5.533 -11.946  0.00  0.00    +0.365 C 
ATOM     24  O   UNL     1       7.712   4.537 -12.742  0.00  0.00    -0.246 OA
ATOM     25  O   UNL     1       9.419   5.938 -12.369  0.00  0.00    -0.246 OA
ENDBRANCH  22  23
ENDBRANCH  21  22
ENDBRANCH  20  21
ENDBRANCH  19  20
ENDBRANCH  18  19
ENDBRANCH  17  18
ENDBRANCH   2  17
TORSDOF 13
ENDMDL
MODEL 2
REMARK VINA RESULT:      -7.9      2.021      8.248
REMARK  Name = 
REMARK  13 active torsions:
REMARK  status: ('A' for Active; 'I' for Inactive)
REMARK    1  A    between atoms: C_2  and  C_3
REMARK    2  A    between atoms: C_3  and  C_4
REMARK    3  A    between atoms: C_4  and  C_5
REMARK    4  A    between atoms: C_5  and  C_6
REMARK    5  A    between atoms: C_6  and  C_8
REMARK    6  A    between atoms: C_9  and  C_10
REMARK    7  A    between atoms: C_16  and  C_17
REMARK    8  A    between atoms: C_17  and  C_18
REMARK    9  A    between atoms: C_18  and  C_19
REMARK   10  A    between atoms: C_19  and  C_20
REMARK   11  A    between atoms: C_20  and  C_21
REMARK   12  A    between atoms: C_21  and  C_22
REMARK   13  A    between atoms: C_22  and  C_23
REMARK                            x       y       z     vdW  Elec       q    Type
REMARK                         _______ _______ _______ _____ _____    ______ ____
ROOT
ATOM      1  C   UNL     1       3.062   5.945  -6.810  0.00  0.00    +0.059 C 
ATOM      2  C   UNL     1       1.468   6.424  -6.534  0.00  0.00    +0.064 C 
ATOM      3  C   UNL     1       1.650   5.692  -5.126  0.00  0.00    +0.153 C 
ATOM      4  O   UNL     1       1.892   4.506  -4.992  0.00  0.00    -0.296 OA
ATOM      5  C   UNL     1       2.522   6.666  -4.519  0.00  0.00    +0.098 C 
ATOM      6  C   UNL     1       3.538   7.153  -5.708  0.00  0.00    +0.164 C 
ATOM      7  O   UNL     1       4.636   6.264  -5.165  0.00  0.00    -0.222 OA
ENDROOT
BRANCH   1   9
ATOM      8  C   UNL     1       3.765   6.467  -9.135  0.00  0.00    +0.002 C 
ATOM      9  C   UNL     1       3.210   6.921  -8.045  0.00  0.00    -0.026 C 
BRANCH   8  10
ATOM     10  C   UNL     1       4.407   4.978  -9.042  0.00  0.00    +0.174 C 
ATOM     11  O   UNL     1       4.473   4.866 -10.562  0.00  0.00    -0.218 OA
BRANCH  10  12
ATOM     12  C   UNL     1       5.944   5.594  -8.993  0.00  0.00    +0.037 C 
BRANCH  12  13
ATOM     13  C   UNL     1       6.118   5.980 -10.448  0.00  0.00    +0.003 C 
BRANCH  13  14
ATOM     14  C   UNL     1       7.112   7.083 -10.592  0.00  0.00    +0.000 C 
BRANCH  14  16
ATOM     15  C   UNL     1       6.591   8.065 -11.439  0.00  0.00    +0.000 C 
ATOM     16  C   UNL     1       6.432   8.168 -11.440  0.00  0.00    +0.000 C 
ENDBRANCH  14  16
ENDBRANCH  13  14
ENDBRANCH  12  13
ENDBRANCH  10  12
ENDBRANCH   8  10
ENDBRANCH   1   9
BRANCH   2  17
ATOM     17  C   UNL     1       0.841   5.143  -7.322  0.00  0.00    +0.008 C 
BRANCH  17  18
ATOM     18  C   UNL     1      -0.580   5.619  -7.665  0.00  0.00    +0.000 C 
BRANCH  18  19
ATOM     19  C   UNL     1      -1.611   5.287  -6.820  0.00  0.00    +0.000 C 
BRANCH  19  20
ATOM     20  C   UNL     1      -2.358   5.690  -5.753  0.00  0.00    +0.001 C 
BRANCH  20  21
ATOM     21  C   UNL     1      -1.815   6.883  -4.964  0.00  0.00    +0.012 C 
BRANCH  21  22
ATOM     22  C   UNL     1      -2.341   6.768  -3.536  0.00  0.00    +0.114 C 
BRANCH  22  23
ATOM     23  C   UNL     1      -2.031   5.351  -3.155  0.00  0.00    +0.365 C 
ATOM     24  O   UNL     1      -0.716   5.171  -2.709  0.00  0.00    -0.246 OA
ATOM     25  O   UNL     1      -2.906   4.828  -2.397  0.00  0.00    -0.246 OA
ENDBRANCH  22  23
ENDBRANCH  21  22
ENDBRANCH  20  21
ENDBRANCH  19  20
ENDBRANCH  18  19
ENDBRANCH  17  18
ENDBRANCH   2  17
TORSDOF 13
ENDMDL
MODEL 3
REMARK VINA RESULT:      -7.2      3.321      6.966
REMARK  Name = 
REMARK  13 active torsions:
REMARK  status: ('A' for Active; 'I' for Inactive)
REMARK    1  A    between atoms: C_2  and  C_3
REMARK    2  A    between atoms: C_3  and  C_4
REMARK    3  A    between atoms: C_4  and  C_5
REMARK    4  A    between atoms: C_5  and  C_6
REMARK    5  A    between atoms: C_6  and  C_8
REMARK    6  A    between atoms: C_9  and  C_10
REMARK    7  A    between atoms: C_16  and  C_17
REMARK    8  A    between atoms: C_17  and  C_18
REMARK    9  A    between atoms: C_18  and  C_19
REMARK   10  A    between atoms: C_19  and  C_20
REMARK   11  A    between atoms: C_20  and  C_21
REMARK   12  A    between atoms: C_21  and  C_22
REMARK   13  A    between atoms: C_22  and  C_23
REMARK                            x       y       z     vdW  Elec       q    Type
REMARK                         _______ _______ _______ _____ _____    ______ ____
ROOT
ATOM      1  C   UNL     1       3.064   5.816  -7.699  0.00  0.00    +0.059 C 
ATOM      2  C   UNL     1       1.423   6.188  -7.583  0.00  0.00    +0.064 C 
ATOM      3  C   UNL     1       1.459   5.263  -6.281  0.00  0.00    +0.153 C 
ATOM      4  O   UNL     1       1.750   4.080  -6.283  0.00  0.00    -0.296 OA
ATOM      5  C   UNL     1       2.185   6.170  -5.428  0.00  0.00    +0.098 C 
ATOM      6  C   UNL     1       3.319   6.865  -6.383  0.00  0.00    +0.164 C 
ATOM      7  O   UNL     1       4.386   5.949  -5.823  0.00  0.00    -0.222 OA
ENDROOT
BRANCH   1   9
ATOM      8  C   UNL     1       3.983   6.686  -9.837  0.00  0.00    +0.002 C 
ATOM      9  C   UNL     1       3.317   6.968  -8.752  0.00  0.00    -0.026 C 
BRANCH   8  10
ATOM     10  C   UNL     1       4.638   5.201  -9.906  0.00  0.00    +0.174 C 
ATOM     11  O   UNL     1       4.831   5.311 -11.415  0.00  0.00    -0.218 OA
BRANCH  10  12
ATOM     12  C   UNL     1       6.156   5.808  -9.640  0.00  0.00    +0.037 C 
BRANCH  12  13
ATOM     13  C   UNL     1       6.682   5.831 -11.061  0.00  0.00    +0.003 C 
BRANCH  13  14
ATOM     14  C   UNL     1       8.162   5.647 -11.085  0.00  0.00    +0.000 C 
BRANCH  14  16
ATOM     15  C   UNL     1       8.506   5.709 -12.439  0.00  0.00    +0.000 C 
ATOM     16  C   UNL     1       8.596   5.836 -12.546  0.00  0.00    +0.000 C 
ENDBRANCH  14  16
ENDBRANCH  13  14
ENDBRANCH  12  13
ENDBRANCH  10  12
ENDBRANCH   8  10
ENDBRANCH   1   9
BRANCH   2  17
ATOM     17  C   UNL     1       0.980   5.013  -8.624  0.00  0.00    +0.008 C 
BRANCH  17  18
ATOM     18  C   UNL     1      -0.159   5.675  -9.416  0.00  0.00    +0.000 C 
BRANCH  18  19
ATOM     19  C   UNL     1       0.135   6.286 -10.611  0.00  0.00    +0.000 C 
BRANCH  19  20
ATOM     20  C   UNL     1      -0.300   7.173 -11.552  0.00  0.00    +0.001 C 
BRANCH  20  21
ATOM     21  C   UNL     1       0.528   7.249 -12.836  0.00  0.00    +0.012 C 
BRANCH  21  22
ATOM     22  C   UNL     1       1.628   6.196 -12.737  0.00  0.00    +0.114 C 
BRANCH  22  23
ATOM     23  C   UNL     1       1.643   5.568 -14.099  0.00  0.00    +0.365 C 
ATOM     24  O   UNL     1       2.896   5.057 -14.461  0.00  0.00    -0.246 OA
ATOM     25  O   UNL     1       0.682   4.760 -14.294  0.00  0.00    -0.246 OA
ENDBRANCH  22  23
ENDBRANCH  21  22
ENDBRANCH  20  21
ENDBRANCH  19  20
ENDBRANCH  18  19
ENDBRANCH  17  18
ENDBRANCH   2  17
TORSDOF 13
ENDMDL
MODEL 4
REMARK VINA RESULT:      -7.1      4.269      8.758
REMARK  Name = 
REMARK  13 active torsions:
REMARK  status: ('A' for Active; 'I' for Inactive)
REMARK    1  A    between atoms: C_2  and  C_3
REMARK    2  A    between atoms: C_3  and  C_4
REMARK    3  A    between atoms: C_4  and  C_5
REMARK    4  A    between atoms: C_5  and  C_6
REMARK    5  A    between atoms: C_6  and  C_8
REMARK    6  A    between atoms: C_9  and  C_10
REMARK    7  A    between atoms: C_16  and  C_17
REMARK    8  A    between atoms: C_17  and  C_18
REMARK    9  A    between atoms: C_18  and  C_19
REMARK   10  A    between atoms: C_19  and  C_20
REMARK   11  A    between atoms: C_20  and  C_21
REMARK   12  A    between atoms: C_21  and  C_22
REMARK   13  A    between atoms: C_22  and  C_23
REMARK                            x       y       z     vdW  Elec       q    Type
REMARK                         _______ _______ _______ _____ _____    ______ ____
ROOT
ATOM      1  C   UNL     1       1.243   5.920  -4.716  0.00  0.00    +0.059 C 
ATOM      2  C   UNL     1      -0.223   5.872  -5.549  0.00  0.00    +0.064 C 
ATOM      3  C   UNL     1       0.647   6.349  -6.802  0.00  0.00    +0.153 C 
ATOM      4  O   UNL     1       1.266   7.396  -6.853  0.00  0.00    -0.296 OA
ATOM      5  C   UNL     1       1.336   5.105  -7.037  0.00  0.00    +0.098 C 
ATOM      6  C   UNL     1       1.681   4.503  -5.553  0.00  0.00    +0.164 C 
ATOM      7  O   UNL     1       3.113   4.981  -5.667  0.00  0.00    -0.222 OA
ENDROOT
BRANCH   1   9
ATOM      8  C   UNL     1       0.981   5.454  -2.290  0.00  0.00    +0.002 C 
ATOM      9  C   UNL     1       0.653   5.098  -3.501  0.00  0.00    -0.026 C 
BRANCH   8  10
ATOM     10  C   UNL     1       2.114   6.612  -2.168  0.00  0.00    +0.174 C 
ATOM     11  O   UNL     1       1.830   6.793  -0.681  0.00  0.00    -0.218 OA
BRANCH  10  12
ATOM     12  C   UNL     1       3.289   5.493  -1.837  0.00  0.00    +0.037 C 
BRANCH  12  13
ATOM     13  C   UNL     1       4.462   6.123  -2.559  0.00  0.00    +0.003 C 
BRANCH  13  14
ATOM     14  C   UNL     1       4.076   7.430  -3.167  0.00  0.00    +0.000 C 
BRANCH  14  16
ATOM     15  C   UNL     1       4.960   7.725  -4.208  0.00  0.00    +0.000 C 
ATOM     16  C   UNL     1       5.147   7.750  -4.219  0.00  0.00    +0.000 C 
ENDBRANCH  14  16
ENDBRANCH  13  14
ENDBRANCH  12  13
ENDBRANCH  10  12
ENDBRANCH   8  10
ENDBRANCH   1   9
BRANCH   2  17
ATOM     17  C   UNL     1      -0.665   7.363  -5.061  0.00  0.00    +0.008 C 
BRANCH  17  18
ATOM     18  C   UNL     1      -2.198   7.261  -5.009  0.00  0.00    +0.000 C 
BRANCH  18  19
ATOM     19  C   UNL     1      -2.774   6.387  -4.120  0.00  0.00    +0.000 C 
BRANCH  19  20
ATOM     20  C   UNL     1      -3.419   6.268  -2.924  0.00  0.00    +0.001 C 
BRANCH  20  21
ATOM     21  C   UNL     1      -2.528   6.229  -1.681  0.00  0.00    +0.012 C 
BRANCH  21  22
ATOM     22  C   UNL     1      -1.917   7.617  -1.509  0.00  0.00    +0.114 C 
BRANCH  22  23
ATOM     23  C   UNL     1      -1.775   7.761  -0.023  0.00  0.00    +0.365 C 
ATOM     24  O   UNL     1      -1.293   6.605   0.603  0.00  0.00    -0.246 OA
ATOM     25  O   UNL     1      -1.172   8.823   0.327  0.00  0.00    -0.246 OA
ENDBRANCH  22  23
ENDBRANCH  21  22
ENDBRANCH  20  21
ENDBRANCH  19  20
ENDBRANCH  18  19
ENDBRANCH  17  18
ENDBRANCH   2  17
TORSDOF 13
ENDMDL
MODEL 5
REMARK VINA RESULT:      -7.1      2.451      8.450
REMARK  Name = 
REMARK  13 active torsions:
REMARK  status: ('A' for Active; 'I' for Inactive)
REMARK    1  A    between atoms: C_2  and  C_3
REMARK    2  A    between atoms: C_3  and  C_4
REMARK    3  A    between atoms: C_4  and  C_5
REMARK    4  A    between atoms: C_5  and  C_6
REMARK    5  A    between atoms: C_6  and  C_8
REMARK    6  A    between atoms: C_9  and  C_10
REMARK    7  A    between atoms: C_16  and  C_17
REMARK    8  A    between atoms: C_17  and  C_18
REMARK    9  A    between atoms: C_18  and  C_19
REMARK   10  A    between atoms: C_19  and  C_20
REMARK   11  A    between atoms: C_20  and  C_21
REMARK   12  A    between atoms: C_21  and  C_22
REMARK   13  A    between atoms: C_22  and  C_23
REMARK                            x       y       z     vdW  Elec       q    Type
REMARK                         _______ _______ _______ _____ _____    ______ ____
ROOT
ATOM      1  C   UNL     1       2.407   5.914  -7.174  0.00  0.00    +0.059 C 
ATOM      2  C   UNL     1       1.237   6.197  -5.992  0.00  0.00    +0.064 C 
ATOM      3  C   UNL     1       2.020   5.077  -5.163  0.00  0.00    +0.153 C 
ATOM      4  O   UNL     1       2.159   3.923  -5.525  0.00  0.00    -0.296 OA
ATOM      5  C   UNL     1       3.184   5.863  -4.839  0.00  0.00    +0.098 C 
ATOM      6  C   UNL     1       3.509   6.747  -6.178  0.00  0.00    +0.164 C 
ATOM      7  O   UNL     1       4.621   5.796  -6.565  0.00  0.00    -0.222 OA
ENDROOT
BRANCH   1   9
ATOM      8  C   UNL     1       2.227   7.268  -9.249  0.00  0.00    +0.002 C 
ATOM      9  C   UNL     1       2.022   7.230  -7.961  0.00  0.00    -0.026 C 
BRANCH   8  10
ATOM     10  C   UNL     1       3.026   6.003  -9.883  0.00  0.00    +0.174 C 
ATOM     11  O   UNL     1       2.332   6.185 -11.228  0.00  0.00    -0.218 OA
BRANCH  10  12
ATOM     12  C   UNL     1       4.276   6.976 -10.365  0.00  0.00    +0.037 C 
BRANCH  12  13
ATOM     13  C   UNL     1       5.365   5.937 -10.538  0.00  0.00    +0.003 C 
BRANCH  13  14
ATOM     14  C   UNL     1       6.718   6.561 -10.446  0.00  0.00    +0.000 C 
BRANCH  14  16
ATOM     15  C   UNL     1       7.348   5.766  -9.485  0.00  0.00    +0.000 C 
ATOM     16  C   UNL     1       7.470   5.801  -9.344  0.00  0.00    +0.000 C 
ENDBRANCH  14  16
ENDBRANCH  13  14
ENDBRANCH  12  13
ENDBRANCH  10  12
ENDBRANCH   8  10
ENDBRANCH   1   9
BRANCH   2  17
ATOM     17  C   UNL     1       0.156   5.189  -6.678  0.00  0.00    +0.008 C 
BRANCH  17  18
ATOM     18  C   UNL     1      -1.177   5.662  -6.075  0.00  0.00    +0.000 C 
BRANCH  18  19
ATOM     19  C   UNL     1      -1.212   6.860  -5.405  0.00  0.00    +0.000 C 
BRANCH  19  20
ATOM     20  C   UNL     1      -1.962   7.680  -4.614  0.00  0.00    +0.001 C 
BRANCH  20  21
ATOM     21  C   UNL     1      -1.798   7.491  -3.105  0.00  0.00    +0.012 C 
BRANCH  21  22
ATOM     22  C   UNL     1      -3.076   6.840  -2.581  0.00  0.00    +0.114 C 
BRANCH  22  23
ATOM     23  C   UNL     1      -2.630   5.472  -2.159  0.00  0.00    +0.365 C 
ATOM     24  O   UNL     1      -3.002   4.465  -3.059  0.00  0.00    -0.246 OA
ATOM     25  O   UNL     1      -1.410   5.423  -1.809  0.00  0.00    -0.246 OA
ENDBRANCH  22  23
ENDBRANCH  21  22
ENDBRANCH  20  21
ENDBRANCH  19  20
ENDBRANCH  18  19
ENDBRANCH  17  18
ENDBRANCH   2  17
TORSDOF 13
ENDMDL
MODEL 6
REMARK VINA RESULT:      -7.1      2.115      4.486
REMARK  Name = 
REMARK  13 active torsions:
REMARK  status: ('A' for Active; 'I' for Inactive)
REMARK    1  A    between atoms: C_2  and  C_3
REMARK    2  A    between atoms: C_3  and  C_4
REMARK    3  A    between atoms: C_4  and  C_5
REMARK    4  A    between atoms: C_5  and  C_6
REMARK    5  A    between atoms: C_6  and  C_8
REMARK    6  A    between atoms: C_9  and  C_10
REMARK    7  A    between atoms: C_16  and  C_17
REMARK    8  A    between atoms: C_17  and  C_18
REMARK    9  A    between atoms: C_18  and  C_19
REMARK   10  A    between atoms: C_19  and  C_20
REMARK   11  A    between atoms: C_20  and  C_21
REMARK   12  A    between atoms: C_21  and  C_22
REMARK   13  A    between atoms: C_22  and  C_23
REMARK                            x       y       z     vdW  Elec       q    Type
REMARK                         _______ _______ _______ _____ _____    ______ ____
ROOT
ATOM      1  C   UNL     1       2.775   5.756  -7.176  0.00  0.00    +0.059 C 
ATOM      2  C   UNL     1       2.819   6.681  -8.586  0.00  0.00    +0.064 C 
ATOM      3  C   UNL     1       1.860   5.549  -9.180  0.00  0.00    +0.153 C 
ATOM      4  O   UNL     1       2.166   4.375  -9.290  0.00  0.00    -0.296 OA
ATOM      5  C   UNL     1       0.672   5.906  -8.447  0.00  0.00    +0.098 C 
ATOM      6  C   UNL     1       1.183   6.316  -6.946  0.00  0.00    +0.164 C 
ATOM      7  O   UNL     1       0.757   4.968  -6.407  0.00  0.00    -0.222 OA
ENDROOT
BRANCH   1   9
ATOM      8  C   UNL     1       3.980   6.633  -5.189  0.00  0.00    +0.002 C 
ATOM      9  C   UNL     1       3.384   6.930  -6.310  0.00  0.00    -0.026 C 
BRANCH   8  10
ATOM     10  C   UNL     1       3.878   5.082  -4.715  0.00  0.00    +0.174 C 
ATOM     11  O   UNL     1       5.225   5.166  -4.005  0.00  0.00    -0.218 OA
BRANCH  10  12
ATOM     12  C   UNL     1       3.086   5.511  -3.325  0.00  0.00    +0.037 C 
BRANCH  12  13
ATOM     13  C   UNL     1       4.217   6.190  -2.579  0.00  0.00    +0.003 C 
BRANCH  13  14
ATOM     14  C   UNL     1       3.700   6.954  -1.406  0.00  0.00    +0.000 C 
BRANCH  14  16
ATOM     15  C   UNL     1       4.570   6.530  -0.398  0.00  0.00    +0.000 C 
ATOM     16  C   UNL     1       4.600   6.582  -0.219  0.00  0.00    +0.000 C 
ENDBRANCH  14  16
ENDBRANCH  13  14
ENDBRANCH  12  13
ENDBRANCH  10  12
ENDBRANCH   8  10
ENDBRANCH   1   9
BRANCH   2  17
ATOM     17  C   UNL     1       4.217   6.017  -9.097  0.00  0.00    +0.008 C 
BRANCH  17  18
ATOM     18  C   UNL     1       4.326   6.531 -10.542  0.00  0.00    +0.000 C 
BRANCH  18  19
ATOM     19  C   UNL     1       5.297   7.455 -10.845  0.00  0.00    +0.000 C 
BRANCH  19  20
ATOM     20  C   UNL     1       6.601   7.633 -11.202  0.00  0.00    +0.001 C 
BRANCH  20  21
ATOM     21  C   UNL     1       7.643   7.017 -10.267  0.00  0.00    +0.012 C 
BRANCH  21  22
ATOM     22  C   UNL     1       7.805   5.551 -10.660  0.00  0.00    +0.114 C 
BRANCH  22  23
ATOM     23  C   UNL     1       8.222   5.612 -12.100  0.00  0.00    +0.365 C 
ATOM     24  O   UNL     1       9.587   5.871 -12.271  0.00  0.00    -0.246 OA
ATOM     25  O   UNL     1       7.793   4.636 -12.792  0.00  0.00    -0.246 OA
ENDBRANCH  22  23
ENDBRANCH  21  22
ENDBRANCH  20  21
ENDBRANCH  19  20
ENDBRANCH  18  19
ENDBRANCH  17  18
ENDBRANCH   2  17
TORSDOF 13
ENDMDL
MODEL 7
REMARK VINA RESULT:      -7.1      2.857      6.346
REMARK  Name = 
REMARK  13 active torsions:
REMARK  status: ('A' for Active; 'I' for Inactive)
REMARK    1  A    between atoms: C_2  and  C_3
REMARK    2  A    between atoms: C_3  and  C_4
REMARK    3  A    between atoms: C_4  and  C_5
REMARK    4  A    between atoms: C_5  and  C_6
REMARK    5  A    between atoms: C_6  and  C_8
REMARK    6  A    between atoms: C_9  and  C_10
REMARK    7  A    between atoms: C_16  and  C_17
REMARK    8  A    between atoms: C_17  and  C_18
REMARK    9  A    between atoms: C_18  and  C_19
REMARK   10  A    between atoms: C_19  and  C_20
REMARK   11  A    between atoms: C_20  and  C_21
REMARK   12  A    between atoms: C_21  and  C_22
REMARK   13  A    between atoms: C_22  and  C_23
REMARK                            x       y       z     vdW  Elec       q    Type
REMARK                         _______ _______ _______ _____ _____    ______ ____
ROOT
ATOM      1  C   UNL     1       2.060   5.625  -8.274  0.00  0.00    +0.059 C 
ATOM      2  C   UNL     1       3.602   6.283  -8.082  0.00  0.00    +0.064 C 
ATOM      3  C   UNL     1       4.035   5.202  -9.177  0.00  0.00    +0.153 C 
ATOM      4  O   UNL     1       3.936   3.997  -9.032  0.00  0.00    -0.296 OA
ATOM      5  C   UNL     1       3.418   5.833 -10.316  0.00  0.00    +0.098 C 
ATOM      6  C   UNL     1       1.989   6.422  -9.777  0.00  0.00    +0.164 C 
ATOM      7  O   UNL     1       1.249   5.254 -10.392  0.00  0.00    -0.222 OA
ENDROOT
BRANCH   1   9
ATOM      8  C   UNL     1       0.480   6.585  -6.614  0.00  0.00    +0.002 C 
ATOM      9  C   UNL     1       1.380   6.839  -7.523  0.00  0.00    -0.026 C 
BRANCH   8  10
ATOM     10  C   UNL     1       0.028   5.030  -6.473  0.00  0.00    +0.174 C 
ATOM     11  O   UNL     1       0.043   5.121  -4.951  0.00  0.00    -0.218 OA
BRANCH  10  12
ATOM     12  C   UNL     1      -1.575   5.445  -6.509  0.00  0.00    +0.037 C 
BRANCH  12  13
ATOM     13  C   UNL     1      -1.727   6.025  -5.117  0.00  0.00    +0.003 C 
BRANCH  13  14
ATOM     14  C   UNL     1      -2.639   7.205  -5.127  0.00  0.00    +0.000 C 
BRANCH  14  16
ATOM     15  C   UNL     1      -1.942   8.253  -4.518  0.00  0.00    +0.000 C 
ATOM     16  C   UNL     1      -1.922   8.311  -4.339  0.00  0.00    +0.000 C 
ENDBRANCH  14  16
ENDBRANCH  13  14
ENDBRANCH  12  13
ENDBRANCH  10  12
ENDBRANCH   8  10
ENDBRANCH   1   9
BRANCH   2  17
ATOM     17  C   UNL     1       3.941   5.363  -6.779  0.00  0.00    +0.008 C 
BRANCH  17  18
ATOM     18  C   UNL     1       4.710   6.335  -5.869  0.00  0.00    +0.000 C 
BRANCH  18  19
ATOM     19  C   UNL     1       4.155   6.693  -4.665  0.00  0.00    +0.000 C 
BRANCH  19  20
ATOM     20  C   UNL     1       2.994   6.965  -4.003  0.00  0.00    +0.001 C 
BRANCH  20  21
ATOM     21  C   UNL     1       3.076   6.966  -2.476  0.00  0.00    +0.012 C 
BRANCH  21  22
ATOM     22  C   UNL     1       4.247   6.072  -2.077  0.00  0.00    +0.114 C 
BRANCH  22  23
ATOM     23  C   UNL     1       3.818   5.489  -0.763  0.00  0.00    +0.365 C 
ATOM     24  O   UNL     1       4.212   6.257   0.340  0.00  0.00    -0.246 OA
ATOM     25  O   UNL     1       2.595   5.144  -0.738  0.00  0.00    -0.246 OA
ENDBRANCH  22  23
ENDBRANCH  21  22
ENDBRANCH  20  21
ENDBRANCH  19  20
ENDBRANCH  18  19
ENDBRANCH  17  18
ENDBRANCH   2  17
TORSDOF 13
ENDMDL
MODEL 8
REMARK VINA RESULT:      -6.8      3.051      9.360
REMARK  Name = 
REMARK  13 active torsions:
REMARK  status: ('A' for Active; 'I' for Inactive)
REMARK    1  A    between atoms: C_2  and  C_3
REMARK    2  A    between atoms: C_3  and  C_4
REMARK    3  A    between atoms: C_4  and  C_5
REMARK    4  A    between atoms: C_5  and  C_6
REMARK    5  A    between atoms: C_6  and  C_8
REMARK    6  A    between atoms: C_9  and  C_10
REMARK    7  A    between atoms: C_16  and  C_17
REMARK    8  A    between atoms: C_17  and  C_18
REMARK    9  A    between atoms: C_18  and  C_19
REMARK   10  A    between atoms: C_19  and  C_20
REMARK   11  A    between atoms: C_20  and  C_21
REMARK   12  A    between atoms: C_21  and  C_22
REMARK   13  A    between atoms: C_22  and  C_23
REMARK                            x       y       z     vdW  Elec       q    Type
REMARK                         _______ _______ _______ _____ _____    ______ ____
ROOT
ATOM      1  C   UNL     1       1.994   5.780 -10.158  0.00  0.00    +0.059 C 
ATOM      2  C   UNL     1       0.436   5.195  -9.878  0.00  0.00    +0.064 C 
ATOM      3  C   UNL     1      -0.025   6.411 -10.807  0.00  0.00    +0.153 C 
ATOM      4  O   UNL     1       0.168   7.586 -10.550  0.00  0.00    -0.296 OA
ATOM      5  C   UNL     1       0.437   5.874 -12.062  0.00  0.00    +0.098 C 
ATOM      6  C   UNL     1       1.868   5.149 -11.734  0.00  0.00    +0.164 C 
ATOM      7  O   UNL     1       2.623   6.333 -12.298  0.00  0.00    -0.222 OA
ENDROOT
BRANCH   1   9
ATOM      8  C   UNL     1       3.724   4.555  -8.863  0.00  0.00    +0.002 C 
ATOM      9  C   UNL     1       2.659   4.455  -9.609  0.00  0.00    -0.026 C 
BRANCH   8  10
ATOM     10  C   UNL     1       4.358   6.045  -8.720  0.00  0.00    +0.174 C 
ATOM     11  O   UNL     1       4.681   5.811  -7.248  0.00  0.00    -0.218 OA
BRANCH  10  12
ATOM     12  C   UNL     1       5.857   5.499  -9.165  0.00  0.00    +0.037 C 
BRANCH  12  13
ATOM     13  C   UNL     1       6.049   6.279 -10.449  0.00  0.00    +0.003 C 
BRANCH  13  14
ATOM     14  C   UNL     1       7.403   6.904 -10.497  0.00  0.00    +0.000 C 
BRANCH  14  16
ATOM     15  C   UNL     1       8.129   6.107 -11.388  0.00  0.00    +0.000 C 
ATOM     16  C   UNL     1       8.196   6.133 -11.563  0.00  0.00    +0.000 C 
ENDBRANCH  14  16
ENDBRANCH  13  14
ENDBRANCH  12  13
ENDBRANCH  10  12
ENDBRANCH   8  10
ENDBRANCH   1   9
BRANCH   2  17
ATOM     17  C   UNL     1       0.285   5.985  -8.461  0.00  0.00    +0.008 C 
BRANCH  17  18
ATOM     18  C   UNL     1      -0.522   4.994  -7.606  0.00  0.00    +0.000 C 
BRANCH  18  19
ATOM     19  C   UNL     1      -1.706   5.412  -7.049  0.00  0.00    +0.000 C 
BRANCH  19  20
ATOM     20  C   UNL     1      -2.348   5.725  -5.887  0.00  0.00    +0.001 C 
BRANCH  20  21
ATOM     21  C   UNL     1      -1.466   5.849  -4.644  0.00  0.00    +0.012 C 
BRANCH  21  22
ATOM     22  C   UNL     1      -2.146   6.831  -3.693  0.00  0.00    +0.114 C 
BRANCH  22  23
ATOM     23  C   UNL     1      -3.191   5.999  -3.010  0.00  0.00    +0.365 C 
ATOM     24  O   UNL     1      -2.713   4.758  -2.572  0.00  0.00    -0.246 OA
ATOM     25  O   UNL     1      -3.848   6.636  -2.128  0.00  0.00    -0.246 OA
ENDBRANCH  22  23
ENDBRANCH  21  22
ENDBRANCH  20  21
ENDBRANCH  19  20
ENDBRANCH  18  19
ENDBRANCH  17  18
ENDBRANCH   2  17
TORSDOF 13
ENDMDL
MODEL 9
REMARK VINA RESULT:      -6.8      2.822      7.990
REMARK  Name = 
REMARK  13 active torsions:
REMARK  status: ('A' for Active; 'I' for Inactive)
REMARK    1  A    between atoms: C_2  and  C_3
REMARK    2  A    between atoms: C_3  and  C_4
REMARK    3  A    between atoms: C_4  and  C_5
REMARK    4  A    between atoms: C_5  and  C_6
REMARK    5  A    between atoms: C_6  and  C_8
REMARK    6  A    between atoms: C_9  and  C_10
REMARK    7  A    between atoms: C_16  and  C_17
REMARK    8  A    between atoms: C_17  and  C_18
REMARK    9  A    between atoms: C_18  and  C_19
REMARK   10  A    between atoms: C_19  and  C_20
REMARK   11  A    between atoms: C_20  and  C_21
REMARK   12  A    between atoms: C_21  and  C_22
REMARK   13  A    between atoms: C_22  and  C_23
REMARK                            x       y       z     vdW  Elec       q    Type
REMARK                         _______ _______ _______ _____ _____    ______ ____
ROOT
ATOM      1  C   UNL     1       3.001   5.800  -7.056  0.00  0.00    +0.059 C 
ATOM      2  C   UNL     1       1.643   4.810  -7.204  0.00  0.00    +0.064 C 
ATOM      3  C   UNL     1       1.494   5.485  -8.645  0.00  0.00    +0.153 C 
ATOM      4  O   UNL     1       1.322   6.675  -8.834  0.00  0.00    -0.296 OA
ATOM      5  C   UNL     1       2.604   4.819  -9.279  0.00  0.00    +0.098 C 
ATOM      6  C   UNL     1       3.788   4.757  -8.149  0.00  0.00    +0.164 C 
ATOM      7  O   UNL     1       4.498   5.927  -8.796  0.00  0.00    -0.222 OA
ENDROOT
BRANCH   1   9
ATOM      8  C   UNL     1       3.967   5.662  -4.772  0.00  0.00    +0.002 C 
ATOM      9  C   UNL     1       3.531   4.994  -5.804  0.00  0.00    -0.026 C 
BRANCH   8  10
ATOM     10  C   UNL     1       4.078   7.273  -4.959  0.00  0.00    +0.174 C 
ATOM     11  O   UNL     1       2.886   7.504  -4.036  0.00  0.00    -0.218 OA
BRANCH  10  12
ATOM     12  C   UNL     1       5.126   7.395  -3.683  0.00  0.00    +0.037 C 
BRANCH  12  13
ATOM     13  C   UNL     1       4.140   7.380  -2.532  0.00  0.00    +0.003 C 
BRANCH  13  14
ATOM     14  C   UNL     1       4.793   6.908  -1.276  0.00  0.00    +0.000 C 
BRANCH  14  16
ATOM     15  C   UNL     1       4.159   5.769  -0.770  0.00  0.00    +0.000 C 
ATOM     16  C   UNL     1       4.023   5.655  -0.835  0.00  0.00    +0.000 C 
ENDBRANCH  14  16
ENDBRANCH  13  14
ENDBRANCH  12  13
ENDBRANCH  10  12
ENDBRANCH   8  10
ENDBRANCH   1   9
BRANCH   2  17
ATOM     17  C   UNL     1       0.671   5.855  -6.416  0.00  0.00    +0.008 C 
BRANCH  17  18
ATOM     18  C   UNL     1      -0.734   5.362  -6.797  0.00  0.00    +0.000 C 
BRANCH  18  19
ATOM     19  C   UNL     1      -1.791   5.679  -5.978  0.00  0.00    +0.000 C 
BRANCH  19  20
ATOM     20  C   UNL     1      -2.521   6.693  -5.434  0.00  0.00    +0.001 C 
BRANCH  20  21
ATOM     21  C   UNL     1      -2.767   6.611  -3.926  0.00  0.00    +0.012 C 
BRANCH  21  22
ATOM     22  C   UNL     1      -1.411   6.712  -3.233  0.00  0.00    +0.114 C 
BRANCH  22  23
ATOM     23  C   UNL     1      -1.451   5.614  -2.211  0.00  0.00    +0.365 C 
ATOM     24  O   UNL     1      -2.644   4.881  -2.231  0.00  0.00    -0.246 OA
ATOM     25  O   UNL     1      -0.405   4.893  -2.204  0.00  0.00    -0.246 OA
ENDBRANCH  22  23
ENDBRANCH  21  22
ENDBRANCH  20  21
ENDBRANCH  19  20
ENDBRANCH  18  19
ENDBRANCH  17  18
ENDBRANCH   2  17
TORSDOF 13
ENDMDL
