MODEL 1
REMARK VINA RESULT:      -7.8      0.000      0.000
REMARK  Name = 
REMARK  5 active torsions:
REMARK  status: ('A' for Active; 'I' for Inactive)
REMARK    1  A    between atoms: C_2  and  C_3
REMARK    2  A    between atoms: C_4  and  C_5
REMARK    3  A    between atoms: C_14  and  C_15
REMARK    4  A    between atoms: C_16  and  C_17
REMARK    5  A    between atoms: C_19  and  C_20
REMARK                            x       y       z     vdW  Elec       q    Type
REMARK                         _______ _______ _______ _____ _____    ______ ____
ROOT
ATOM      1  C   UNL     1       1.691   6.157 -11.625  0.00  0.00    +0.031 C 
ATOM      2  C   UNL     1       2.253   6.416 -10.269  0.00  0.00    -0.022 C 
ATOM      3  C   UNL     1       1.479   6.667  -9.213  0.00  0.00    -0.004 C 
ENDROOT
BRANCH   3   4
ATOM      4  C   UNL     1       2.133   7.427  -8.140  0.00  0.00    -0.001 C 
ATOM      5  C   UNL     1       1.633   7.210  -6.922  0.00  0.00    -0.004 C 
BRANCH   5   6
ATOM      6  C   UNL     1       1.611   5.800  -6.508  0.00  0.00    -0.015 C 
ATOM      7  C   UNL     1       0.574   5.454  -5.745  0.00  0.00    +0.082 C 
ATOM      8  C   UNL     1       2.953   5.196  -6.233  0.00  0.00    +0.031 C 
BRANCH   7   9
ATOM      9  C   UNL     1      -0.747   5.802  -6.281  0.00  0.00    +0.388 C 
ATOM     10  O   UNL     1      -1.670   6.389  -5.411  0.00  0.00    -0.241 OA
ATOM     11  O   UNL     1      -1.176   5.029  -7.190  0.00  0.00    -0.241 OA
ENDBRANCH   7   9
ENDBRANCH   5   6
ENDBRANCH   3   4
BRANCH   2  12
ATOM     12  C   UNL     1       3.531   5.760  -9.969  0.00  0.00    -0.005 C 
ATOM     13  C   UNL     1       4.476   5.565 -10.858  0.00  0.00    -0.005 C 
BRANCH  13  14
ATOM     14  C   UNL     1       5.860   6.027 -10.690  0.00  0.00    -0.031 C 
ATOM     15  C   UNL     1       6.516   6.886 -11.724  0.00  0.00    +0.018 C 
ATOM     16  C   UNL     1       6.317   8.349 -11.347  0.00  0.00    +0.004 C 
ATOM     17  C   UNL     1       5.883   6.628 -13.087  0.00  0.00    +0.004 C 
ATOM     18  C   UNL     1       7.973   6.543 -11.846  0.00  0.00    +0.004 C 
ATOM     19  C   UNL     1       8.266   5.148 -11.333  0.00  0.00    +0.005 C 
ATOM     20  C   UNL     1       8.015   5.182  -9.828  0.00  0.00    +0.022 C 
ATOM     21  C   UNL     1       6.599   5.636  -9.655  0.00  0.00    -0.048 C 
ATOM     22  C   UNL     1       5.878   5.309  -8.386  0.00  0.00    +0.026 C 
ENDBRANCH  13  14
ENDBRANCH   2  12
TORSDOF 5
ENDMDL
MODEL 2
REMARK VINA RESULT:      -7.8      2.916      5.078
REMARK  Name = 
REMARK  5 active torsions:
REMARK  status: ('A' for Active; 'I' for Inactive)
REMARK    1  A    between atoms: C_2  and  C_3
REMARK    2  A    between atoms: C_4  and  C_5
REMARK    3  A    between atoms: C_14  and  C_15
REMARK    4  A    between atoms: C_16  and  C_17
REMARK    5  A    between atoms: C_19  and  C_20
REMARK                            x       y       z     vdW  Elec       q    Type
REMARK                         _______ _______ _______ _____ _____    ______ ____
ROOT
ATOM      1  C   UNL     1       2.041   4.455  -5.622  0.00  0.00    +0.031 C 
ATOM      2  C   UNL     1       0.731   4.790  -6.250  0.00  0.00    -0.022 C 
ATOM      3  C   UNL     1      -0.139   5.624  -5.682  0.00  0.00    -0.004 C 
ENDROOT
BRANCH   3   4
ATOM      4  C   UNL     1      -1.536   5.426  -6.091  0.00  0.00    -0.001 C 
ATOM      5  C   UNL     1      -2.429   5.586  -5.113  0.00  0.00    -0.004 C 
BRANCH   5   6
ATOM      6  C   UNL     1      -2.357   6.879  -4.419  0.00  0.00    -0.015 C 
ATOM      7  C   UNL     1      -2.609   6.831  -3.111  0.00  0.00    +0.082 C 
ATOM      8  C   UNL     1      -2.836   8.055  -5.213  0.00  0.00    +0.031 C 
BRANCH   7   9
ATOM      9  C   UNL     1      -1.823   5.853  -2.353  0.00  0.00    +0.388 C 
ATOM     10  O   UNL     1      -2.506   5.006  -1.475  0.00  0.00    -0.241 OA
ATOM     11  O   UNL     1      -0.652   6.231  -2.044  0.00  0.00    -0.241 OA
ENDBRANCH   7   9
ENDBRANCH   5   6
ENDBRANCH   3   4
BRANCH   2  12
ATOM     12  C   UNL     1       0.695   4.748  -7.716  0.00  0.00    -0.005 C 
ATOM     13  C   UNL     1       0.319   5.757  -8.466  0.00  0.00    -0.005 C 
BRANCH  13  14
ATOM     14  C   UNL     1       1.146   6.329  -9.536  0.00  0.00    -0.031 C 
ATOM     15  C   UNL     1       0.792   6.125 -10.975  0.00  0.00    +0.018 C 
ATOM     16  C   UNL     1      -0.063   7.296 -11.443  0.00  0.00    +0.004 C 
ATOM     17  C   UNL     1       0.002   4.831 -11.134  0.00  0.00    +0.004 C 
ATOM     18  C   UNL     1       2.035   5.986 -11.807  0.00  0.00    +0.004 C 
ATOM     19  C   UNL     1       3.225   5.562 -10.971  0.00  0.00    +0.005 C 
ATOM     20  C   UNL     1       3.532   6.729 -10.037  0.00  0.00    +0.022 C 
ATOM     21  C   UNL     1       2.274   6.981  -9.265  0.00  0.00    -0.048 C 
ATOM     22  C   UNL     1       2.355   7.689  -7.950  0.00  0.00    +0.026 C 
ENDBRANCH  13  14
ENDBRANCH   2  12
TORSDOF 5
ENDMDL
MODEL 3
REMARK VINA RESULT:      -7.7      2.710      4.992
REMARK  Name = 
REMARK  5 active torsions:
REMARK  status: ('A' for Active; 'I' for Inactive)
REMARK    1  A    between atoms: C_2  and  C_3
REMARK    2  A    between atoms: C_4  and  C_5
REMARK    3  A    between atoms: C_14  and  C_15
REMARK    4  A    between atoms: C_16  and  C_17
REMARK    5  A    between atoms: C_19  and  C_20
REMARK                            x       y       z     vdW  Elec       q    Type
REMARK                         _______ _______ _______ _____ _____    ______ ____
ROOT
ATOM      1  C   UNL     1       1.688   4.577  -5.598  0.00  0.00    +0.031 C 
ATOM      2  C   UNL     1       0.475   5.199  -6.202  0.00  0.00    -0.022 C 
ATOM      3  C   UNL     1      -0.098   6.288  -5.691  0.00  0.00    -0.004 C 
ENDROOT
BRANCH   3   4
ATOM      4  C   UNL     1      -1.522   6.442  -6.018  0.00  0.00    -0.001 C 
ATOM      5  C   UNL     1      -2.343   6.369  -4.969  0.00  0.00    -0.004 C 
BRANCH   5   6
ATOM      6  C   UNL     1      -2.039   7.311  -3.883  0.00  0.00    -0.015 C 
ATOM      7  C   UNL     1      -2.464   6.935  -2.677  0.00  0.00    +0.082 C 
ATOM      8  C   UNL     1      -2.100   8.759  -4.261  0.00  0.00    +0.031 C 
BRANCH   7   9
ATOM      9  C   UNL     1      -2.054   5.592  -2.254  0.00  0.00    +0.388 C 
ATOM     10  O   UNL     1      -0.689   5.295  -2.258  0.00  0.00    -0.241 OA
ATOM     11  O   UNL     1      -2.877   4.668  -2.534  0.00  0.00    -0.241 OA
ENDBRANCH   7   9
ENDBRANCH   5   6
ENDBRANCH   3   4
BRANCH   2  12
ATOM     12  C   UNL     1       0.328   5.033  -7.654  0.00  0.00    -0.005 C 
ATOM     13  C   UNL     1       0.861   5.843  -8.537  0.00  0.00    -0.005 C 
BRANCH  13  14
ATOM     14  C   UNL     1       1.746   5.396  -9.621  0.00  0.00    -0.031 C 
ATOM     15  C   UNL     1       3.230   5.359  -9.439  0.00  0.00    +0.018 C 
ATOM     16  C   UNL     1       3.634   3.969  -8.964  0.00  0.00    +0.004 C 
ATOM     17  C   UNL     1       3.647   6.388  -8.394  0.00  0.00    +0.004 C 
ATOM     18  C   UNL     1       3.926   5.727 -10.718  0.00  0.00    +0.004 C 
ATOM     19  C   UNL     1       3.023   6.520 -11.640  0.00  0.00    +0.005 C 
ATOM     20  C   UNL     1       1.915   5.568 -12.080  0.00  0.00    +0.022 C 
ATOM     21  C   UNL     1       1.266   5.082 -10.822  0.00  0.00    -0.048 C 
ATOM     22  C   UNL     1      -0.133   4.552 -10.881  0.00  0.00    +0.026 C 
ENDBRANCH  13  14
ENDBRANCH   2  12
TORSDOF 5
ENDMDL
MODEL 4
REMARK VINA RESULT:      -7.7      3.477      7.435
REMARK  Name = 
REMARK  5 active torsions:
REMARK  status: ('A' for Active; 'I' for Inactive)
REMARK    1  A    between atoms: C_2  and  C_3
REMARK    2  A    between atoms: C_4  and  C_5
REMARK    3  A    between atoms: C_14  and  C_15
REMARK    4  A    between atoms: C_16  and  C_17
REMARK    5  A    between atoms: C_19  and  C_20
REMARK                            x       y       z     vdW  Elec       q    Type
REMARK                         _______ _______ _______ _____ _____    ______ ____
ROOT
ATOM      1  C   UNL     1       2.852   4.696  -9.610  0.00  0.00    +0.031 C 
ATOM      2  C   UNL     1       4.171   4.981  -8.977  0.00  0.00    -0.022 C 
ATOM      3  C   UNL     1       5.089   5.752  -9.558  0.00  0.00    -0.004 C 
ENDROOT
BRANCH   3   4
ATOM      4  C   UNL     1       6.469   5.494  -9.126  0.00  0.00    -0.001 C 
ATOM      5  C   UNL     1       7.376   5.545 -10.104  0.00  0.00    -0.004 C 
BRANCH   5   6
ATOM      6  C   UNL     1       7.385   6.798 -10.870  0.00  0.00    -0.015 C 
ATOM      7  C   UNL     1       7.642   6.661 -12.171  0.00  0.00    +0.082 C 
ATOM      8  C   UNL     1       7.929   7.986 -10.140  0.00  0.00    +0.031 C 
BRANCH   7   9
ATOM      9  C   UNL     1       6.803   5.689 -12.880  0.00  0.00    +0.388 C 
ATOM     10  O   UNL     1       7.442   4.722 -13.660  0.00  0.00    -0.241 OA
ATOM     11  O   UNL     1       5.678   6.132 -13.264  0.00  0.00    -0.241 OA
ENDBRANCH   7   9
ENDBRANCH   5   6
ENDBRANCH   3   4
BRANCH   2  12
ATOM     12  C   UNL     1       4.189   4.981  -7.509  0.00  0.00    -0.005 C 
ATOM     13  C   UNL     1       4.352   6.060  -6.782  0.00  0.00    -0.005 C 
BRANCH  13  14
ATOM     14  C   UNL     1       3.413   6.488  -5.737  0.00  0.00    -0.031 C 
ATOM     15  C   UNL     1       3.768   6.376  -4.288  0.00  0.00    +0.018 C 
ATOM     16  C   UNL     1       4.384   7.691  -3.829  0.00  0.00    +0.004 C 
ATOM     17  C   UNL     1       4.779   5.252  -4.091  0.00  0.00    +0.004 C 
ATOM     18  C   UNL     1       2.556   6.024  -3.475  0.00  0.00    +0.004 C 
ATOM     19  C   UNL     1       1.481   5.375  -4.323  0.00  0.00    +0.005 C 
ATOM     20  C   UNL     1       0.984   6.450  -5.284  0.00  0.00    +0.022 C 
ATOM     21  C   UNL     1       2.190   6.917  -6.039  0.00  0.00    -0.048 C 
ATOM     22  C   UNL     1       2.007   7.576  -7.370  0.00  0.00    +0.026 C 
ENDBRANCH  13  14
ENDBRANCH   2  12
TORSDOF 5
ENDMDL
MODEL 5
REMARK VINA RESULT:      -7.6      3.489      8.707
REMARK  Name = 
REMARK  5 active torsions:
REMARK  status: ('A' for Active; 'I' for Inactive)
REMARK    1  A    between atoms: C_2  and  C_3
REMARK    2  A    between atoms: C_4  and  C_5
REMARK    3  A    between atoms: C_14  and  C_15
REMARK    4  A    between atoms: C_16  and  C_17
REMARK    5  A    between atoms: C_19  and  C_20
REMARK                            x       y       z     vdW  Elec       q    Type
REMARK                         _______ _______ _______ _____ _____    ______ ____
ROOT
ATOM      1  C   UNL     1       2.864   6.545  -3.829  0.00  0.00    +0.031 C 
ATOM      2  C   UNL     1       2.060   6.884  -5.038  0.00  0.00    -0.022 C 
ATOM      3  C   UNL     1       2.510   6.678  -6.275  0.00  0.00    -0.004 C 
ENDROOT
BRANCH   3   4
ATOM      4  C   UNL     1       1.901   7.535  -7.301  0.00  0.00    -0.001 C 
ATOM      5  C   UNL     1       1.970   7.050  -8.542  0.00  0.00    -0.004 C 
BRANCH   5   6
ATOM      6  C   UNL     1       1.408   5.703  -8.709  0.00  0.00    -0.015 C 
ATOM      7  C   UNL     1       1.972   4.973  -9.671  0.00  0.00    +0.082 C 
ATOM      8  C   UNL     1      -0.068   5.596  -8.480  0.00  0.00    +0.031 C 
BRANCH   7   9
ATOM      9  C   UNL     1       3.433   4.862  -9.605  0.00  0.00    +0.388 C 
ATOM     10  O   UNL     1       4.167   5.229 -10.736  0.00  0.00    -0.241 OA
ATOM     11  O   UNL     1       3.865   3.914  -8.882  0.00  0.00    -0.241 OA
ENDBRANCH   7   9
ENDBRANCH   5   6
ENDBRANCH   3   4
BRANCH   2  12
ATOM     12  C   UNL     1       0.603   6.807  -4.880  0.00  0.00    -0.005 C 
ATOM     13  C   UNL     1      -0.022   5.766  -4.383  0.00  0.00    -0.005 C 
BRANCH  13  14
ATOM     14  C   UNL     1      -0.942   5.837  -3.240  0.00  0.00    -0.031 C 
ATOM     15  C   UNL     1      -2.373   6.229  -3.426  0.00  0.00    +0.018 C 
ATOM     16  C   UNL     1      -3.209   4.969  -3.613  0.00  0.00    +0.004 C 
ATOM     17  C   UNL     1      -2.510   7.110  -4.662  0.00  0.00    +0.004 C 
ATOM     18  C   UNL     1      -2.854   7.038  -2.256  0.00  0.00    +0.004 C 
ATOM     19  C   UNL     1      -1.704   7.675  -1.504  0.00  0.00    +0.005 C 
ATOM     20  C   UNL     1      -0.919   6.531  -0.869  0.00  0.00    +0.022 C 
ATOM     21  C   UNL     1      -0.517   5.631  -1.995  0.00  0.00    -0.048 C 
ATOM     22  C   UNL     1       0.652   4.716  -1.816  0.00  0.00    +0.026 C 
ENDBRANCH  13  14
ENDBRANCH   2  12
TORSDOF 5
ENDMDL
MODEL 6
REMARK VINA RESULT:      -7.6      3.442      7.459
REMARK  Name = 
REMARK  5 active torsions:
REMARK  status: ('A' for Active; 'I' for Inactive)
REMARK    1  A    between atoms: C_2  and  C_3
REMARK    2  A    between atoms: C_4  and  C_5
REMARK    3  A    between atoms: C_14  and  C_15
REMARK    4  A    between atoms: C_16  and  C_17
REMARK    5  A    between atoms: C_19  and  C_20
REMARK                            x       y       z     vdW  Elec       q    Type
REMARK                         _______ _______ _______ _____ _____    ______ ____
ROOT
ATOM      1  C   UNL     1       2.166   7.929  -8.188  0.00  0.00    +0.031 C 
ATOM      2  C   UNL     1       3.137   6.816  -8.395  0.00  0.00    -0.022 C 
ATOM      3  C   UNL     1       3.953   6.768  -9.447  0.00  0.00    -0.004 C 
ENDROOT
BRANCH   3   4
ATOM      4  C   UNL     1       4.413   5.419  -9.805  0.00  0.00    -0.001 C 
ATOM      5  C   UNL     1       5.452   5.391 -10.641  0.00  0.00    -0.004 C 
BRANCH   5   6
ATOM      6  C   UNL     1       6.628   6.147 -10.187  0.00  0.00    -0.015 C 
ATOM      7  C   UNL     1       7.309   6.761 -11.154  0.00  0.00    +0.082 C 
ATOM      8  C   UNL     1       7.374   5.535  -9.042  0.00  0.00    +0.031 C 
BRANCH   7   9
ATOM      9  C   UNL     1       6.515   7.623 -12.035  0.00  0.00    +0.388 C 
ATOM     10  O   UNL     1       6.514   7.335 -13.403  0.00  0.00    -0.241 OA
ATOM     11  O   UNL     1       6.437   8.835 -11.671  0.00  0.00    -0.241 OA
ENDBRANCH   7   9
ENDBRANCH   5   6
ENDBRANCH   3   4
BRANCH   2  12
ATOM     12  C   UNL     1       3.646   6.178  -7.175  0.00  0.00    -0.005 C 
ATOM     13  C   UNL     1       3.384   6.607  -5.964  0.00  0.00    -0.005 C 
BRANCH  13  14
ATOM     14  C   UNL     1       2.793   5.769  -4.912  0.00  0.00    -0.031 C 
ATOM     15  C   UNL     1       1.310   5.612  -4.795  0.00  0.00    +0.018 C 
ATOM     16  C   UNL     1       0.881   4.379  -5.579  0.00  0.00    +0.004 C 
ATOM     17  C   UNL     1       0.615   6.840  -5.371  0.00  0.00    +0.004 C 
ATOM     18  C   UNL     1       0.904   5.515  -3.352  0.00  0.00    +0.004 C 
ATOM     19  C   UNL     1       1.951   6.112  -2.433  0.00  0.00    +0.005 C 
ATOM     20  C   UNL     1       3.178   5.211  -2.537  0.00  0.00    +0.022 C 
ATOM     21  C   UNL     1       3.549   5.184  -3.986  0.00  0.00    -0.048 C 
ATOM     22  C   UNL     1       4.950   4.827  -4.374  0.00  0.00    +0.026 C 
ENDBRANCH  13  14
ENDBRANCH   2  12
TORSDOF 5
ENDMDL
MODEL 7
REMARK VINA RESULT:      -7.6      3.361      7.425
REMARK  Name = 
REMARK  5 active torsions:
REMARK  status: ('A' for Active; 'I' for Inactive)
REMARK    1  A    between atoms: C_2  and  C_3
REMARK    2  A    between atoms: C_4  and  C_5
REMARK    3  A    between atoms: C_14  and  C_15
REMARK    4  A    between atoms: C_16  and  C_17
REMARK    5  A    between atoms: C_19  and  C_20
REMARK                            x       y       z     vdW  Elec       q    Type
REMARK                         _______ _______ _______ _____ _____    ______ ____
ROOT
ATOM      1  C   UNL     1       2.947   4.433  -9.395  0.00  0.00    +0.031 C 
ATOM      2  C   UNL     1       4.215   5.097  -8.976  0.00  0.00    -0.022 C 
ATOM      3  C   UNL     1       4.793   6.052  -9.702  0.00  0.00    -0.004 C 
ENDROOT
BRANCH   3   4
ATOM      4  C   UNL     1       6.239   6.199  -9.484  0.00  0.00    -0.001 C 
ATOM      5  C   UNL     1       6.976   6.141 -10.594  0.00  0.00    -0.004 C 
BRANCH   5   6
ATOM      6  C   UNL     1       6.593   7.101 -11.638  0.00  0.00    -0.015 C 
ATOM      7  C   UNL     1       7.029   6.805 -12.862  0.00  0.00    +0.082 C 
ATOM      8  C   UNL     1       6.554   8.533 -11.202  0.00  0.00    +0.031 C 
BRANCH   7   9
ATOM      9  C   UNL     1       6.711   5.454 -13.335  0.00  0.00    +0.388 C 
ATOM     10  O   UNL     1       5.404   4.992 -13.161  0.00  0.00    -0.241 OA
ATOM     11  O   UNL     1       7.665   4.621 -13.257  0.00  0.00    -0.241 OA
ENDBRANCH   7   9
ENDBRANCH   5   6
ENDBRANCH   3   4
BRANCH   2  12
ATOM     12  C   UNL     1       4.443   5.183  -7.528  0.00  0.00    -0.005 C 
ATOM     13  C   UNL     1       3.841   6.047  -6.746  0.00  0.00    -0.005 C 
BRANCH  13  14
ATOM     14  C   UNL     1       3.071   5.667  -5.554  0.00  0.00    -0.031 C 
ATOM     15  C   UNL     1       1.575   5.665  -5.572  0.00  0.00    +0.018 C 
ATOM     16  C   UNL     1       1.089   4.269  -5.941  0.00  0.00    +0.004 C 
ATOM     17  C   UNL     1       1.070   6.663  -6.608  0.00  0.00    +0.004 C 
ATOM     18  C   UNL     1       1.032   6.101  -4.242  0.00  0.00    +0.004 C 
ATOM     19  C   UNL     1       2.049   6.905  -3.457  0.00  0.00    +0.005 C 
ATOM     20  C   UNL     1       3.177   5.940  -3.101  0.00  0.00    +0.022 C 
ATOM     21  C   UNL     1       3.673   5.388  -4.400  0.00  0.00    -0.048 C 
ATOM     22  C   UNL     1       5.056   4.822  -4.472  0.00  0.00    +0.026 C 
ENDBRANCH  13  14
ENDBRANCH   2  12
TORSDOF 5
ENDMDL
MODEL 8
REMARK VINA RESULT:      -7.4      3.126      8.377
REMARK  Name = 
REMARK  5 active torsions:
REMARK  status: ('A' for Active; 'I' for Inactive)
REMARK    1  A    between atoms: C_2  and  C_3
REMARK    2  A    between atoms: C_4  and  C_5
REMARK    3  A    between atoms: C_14  and  C_15
REMARK    4  A    between atoms: C_16  and  C_17
REMARK    5  A    between atoms: C_19  and  C_20
REMARK                            x       y       z     vdW  Elec       q    Type
REMARK                         _______ _______ _______ _____ _____    ______ ____
ROOT
ATOM      1  C   UNL     1       3.107   6.920  -4.284  0.00  0.00    +0.031 C 
ATOM      2  C   UNL     1       2.500   6.851  -5.644  0.00  0.00    -0.022 C 
ATOM      3  C   UNL     1       3.228   6.945  -6.756  0.00  0.00    -0.004 C 
ENDROOT
BRANCH   3   4
ATOM      4  C   UNL     1       2.488   7.414  -7.936  0.00  0.00    -0.001 C 
ATOM      5  C   UNL     1       2.949   6.951  -9.099  0.00  0.00    -0.004 C 
BRANCH   5   6
ATOM      6  C   UNL     1       3.033   5.487  -9.190  0.00  0.00    -0.015 C 
ATOM      7  C   UNL     1       4.103   5.024  -9.836  0.00  0.00    +0.082 C 
ATOM      8  C   UNL     1       1.722   4.783  -9.349  0.00  0.00    +0.031 C 
BRANCH   7   9
ATOM      9  C   UNL     1       5.395   5.535  -9.365  0.00  0.00    +0.388 C 
ATOM     10  O   UNL     1       6.286   6.034 -10.318  0.00  0.00    -0.241 OA
ATOM     11  O   UNL     1       5.865   4.944  -8.345  0.00  0.00    -0.241 OA
ENDBRANCH   7   9
ENDBRANCH   5   6
ENDBRANCH   3   4
BRANCH   2  12
ATOM     12  C   UNL     1       1.280   6.042  -5.759  0.00  0.00    -0.005 C 
ATOM     13  C   UNL     1       0.441   5.845  -4.770  0.00  0.00    -0.005 C 
BRANCH  13  14
ATOM     14  C   UNL     1      -0.995   6.146  -4.848  0.00  0.00    -0.031 C 
ATOM     15  C   UNL     1      -1.668   6.963  -3.791  0.00  0.00    +0.018 C 
ATOM     16  C   UNL     1      -1.662   8.425  -4.218  0.00  0.00    +0.004 C 
ATOM     17  C   UNL     1      -0.917   6.822  -2.472  0.00  0.00    +0.004 C 
ATOM     18  C   UNL     1      -3.066   6.466  -3.554  0.00  0.00    +0.004 C 
ATOM     19  C   UNL     1      -3.236   5.031  -4.008  0.00  0.00    +0.005 C 
ATOM     20  C   UNL     1      -3.097   5.042  -5.528  0.00  0.00    +0.022 C 
ATOM     21  C   UNL     1      -1.756   5.642  -5.815  0.00  0.00    -0.048 C 
ATOM     22  C   UNL     1      -1.094   5.354  -7.125  0.00  0.00    +0.026 C 
ENDBRANCH  13  14
ENDBRANCH   2  12
TORSDOF 5
ENDMDL
MODEL 9
REMARK VINA RESULT:      -7.4      2.643      4.647
REMARK  Name = 
REMARK  5 active torsions:
REMARK  status: ('A' for Active; 'I' for Inactive)
REMARK    1  A    between atoms: C_2  and  C_3
REMARK    2  A    between atoms: C_4  and  C_5
REMARK    3  A    between atoms: C_14  and  C_15
REMARK    4  A    between atoms: C_16  and  C_17
REMARK    5  A    between atoms: C_19  and  C_20
REMARK                            x       y       z     vdW  Elec       q    Type
REMARK                         _______ _______ _______ _____ _____    ______ ____
ROOT
ATOM      1  C   UNL     1       3.096   7.152  -6.532  0.00  0.00    +0.031 C 
ATOM      2  C   UNL     1       1.876   6.312  -6.354  0.00  0.00    -0.022 C 
ATOM      3  C   UNL     1       1.036   6.483  -5.335  0.00  0.00    -0.004 C 
ENDROOT
BRANCH   3   4
ATOM      4  C   UNL     1       0.249   5.294  -4.982  0.00  0.00    -0.001 C 
ATOM      5  C   UNL     1      -0.991   5.553  -4.564  0.00  0.00    -0.004 C 
BRANCH   5   6
ATOM      6  C   UNL     1      -1.800   6.351  -5.495  0.00  0.00    -0.015 C 
ATOM      7  C   UNL     1      -2.625   7.224  -4.917  0.00  0.00    +0.082 C 
ATOM      8  C   UNL     1      -2.247   5.631  -6.729  0.00  0.00    +0.031 C 
BRANCH   7   9
ATOM      9  C   UNL     1      -2.004   8.131  -3.946  0.00  0.00    +0.388 C 
ATOM     10  O   UNL     1      -2.179   7.852  -2.587  0.00  0.00    -0.241 OA
ATOM     11  O   UNL     1      -1.935   9.343  -4.313  0.00  0.00    -0.241 OA
ENDBRANCH   7   9
ENDBRANCH   5   6
ENDBRANCH   3   4
BRANCH   2  12
ATOM     12  C   UNL     1       1.271   5.794  -7.587  0.00  0.00    -0.005 C 
ATOM     13  C   UNL     1       1.366   6.389  -8.752  0.00  0.00    -0.005 C 
BRANCH  13  14
ATOM     14  C   UNL     1       1.884   5.735  -9.961  0.00  0.00    -0.031 C 
ATOM     15  C   UNL     1       3.332   5.824 -10.324  0.00  0.00    +0.018 C 
ATOM     16  C   UNL     1       4.061   4.619  -9.744  0.00  0.00    +0.004 C 
ATOM     17  C   UNL     1       3.933   7.100  -9.745  0.00  0.00    +0.004 C 
ATOM     18  C   UNL     1       3.497   5.900 -11.815  0.00  0.00    +0.004 C 
ATOM     19  C   UNL     1       2.235   6.391 -12.495  0.00  0.00    +0.005 C 
ATOM     20  C   UNL     1       1.186   5.302 -12.291  0.00  0.00    +0.022 C 
ATOM     21  C   UNL     1       1.074   5.109 -10.811  0.00  0.00    -0.048 C 
ATOM     22  C   UNL     1      -0.175   4.508 -10.245  0.00  0.00    +0.026 C 
ENDBRANCH  13  14
ENDBRANCH   2  12
TORSDOF 5
ENDMDL
