MODEL 1
REMARK VINA RESULT:      -7.8      0.000      0.000
REMARK  Name = 
REMARK  9 active torsions:
REMARK  status: ('A' for Active; 'I' for Inactive)
REMARK    1  A    between atoms: O_2  and  C_3
REMARK    2  A    between atoms: C_5  and  C_6
REMARK    3  A    between atoms: C_6  and  N_7
REMARK    4  A    between atoms: C_8  and  C_10
REMARK    5  A    between atoms: C_10  and  C_11
REMARK    6  A    between atoms: C_11  and  C_12
REMARK    7  A    between atoms: C_12  and  C_13
REMARK    8  A    between atoms: C_13  and  C_14
REMARK    9  A    between atoms: C_15  and  C_16
REMARK                            x       y       z     vdW  Elec       q    Type
REMARK                         _______ _______ _______ _____ _____    ______ ____
ROOT
ATOM      1  N   UNL     1       3.611   6.335  -8.743  0.00  0.00    -0.201 NA
ATOM      2  C   UNL     1       2.491   7.001  -8.146  0.00  0.00    +0.242 C 
ATOM      3  O   UNL     1       2.520   8.264  -8.262  0.00  0.00    -0.273 OA
ENDROOT
BRANCH   2   4
ATOM      4  C   UNL     1       1.228   6.276  -7.802  0.00  0.00    +0.087 C 
BRANCH   4   5
ATOM      5  C   UNL     1       1.159   5.906  -6.349  0.00  0.00    +0.010 C 
BRANCH   5   6
ATOM      6  C   UNL     1      -0.007   4.994  -6.085  0.00  0.00    +0.005 C 
BRANCH   6   7
ATOM      7  C   UNL     1      -1.128   5.205  -7.094  0.00  0.00    +0.026 C 
BRANCH   7   8
ATOM      8  C   UNL     1      -2.284   5.767  -6.322  0.00  0.00    -0.031 C 
ATOM      9  C   UNL     1      -2.276   5.835  -4.986  0.00  0.00    -0.031 C 
BRANCH   9  10
ATOM     10  C   UNL     1      -2.774   7.014  -4.233  0.00  0.00    +0.022 C 
ATOM     11  C   UNL     1      -2.973   6.700  -2.756  0.00  0.00    +0.005 C 
ATOM     12  C   UNL     1      -1.798   8.174  -4.397  0.00  0.00    +0.005 C 
ENDBRANCH   9  10
ENDBRANCH   7   8
ENDBRANCH   6   7
ENDBRANCH   5   6
ENDBRANCH   4   5
ENDBRANCH   2   4
BRANCH   1  13
ATOM     13  C   UNL     1       4.190   6.759 -10.003  0.00  0.00    +0.142 C 
BRANCH  13  19
ATOM     14  C   UNL     1       6.852   5.202 -12.118  0.00  0.00    +0.177 A 
ATOM     15  C   UNL     1       7.939   5.548 -11.327  0.00  0.00    +0.229 A 
ATOM     16  O   UNL     1       9.209   5.731 -11.863  0.00  0.00    -0.283 OA
ATOM     17  C   UNL     1       7.715   5.778  -9.977  0.00  0.00    +0.045 A 
ATOM     18  C   UNL     1       6.395   5.805  -9.540  0.00  0.00    +0.001 A 
ATOM     19  C   UNL     1       5.335   5.938 -10.431  0.00  0.00    +0.003 A 
ATOM     20  C   UNL     1       5.565   5.544 -11.722  0.00  0.00    +0.038 A 
BRANCH  14  22
ATOM     21  C   UNL     1       6.781   5.867 -14.436  0.00  0.00    +0.253 C 
ATOM     22  O   UNL     1       7.095   4.920 -13.443  0.00  0.00    -0.468 OA
ENDBRANCH  14  22
ENDBRANCH  13  19
ENDBRANCH   1  13
TORSDOF 9
ENDMDL
MODEL 2
REMARK VINA RESULT:      -7.3      2.970      9.655
REMARK  Name = 
REMARK  9 active torsions:
REMARK  status: ('A' for Active; 'I' for Inactive)
REMARK    1  A    between atoms: O_2  and  C_3
REMARK    2  A    between atoms: C_5  and  C_6
REMARK    3  A    between atoms: C_6  and  N_7
REMARK    4  A    between atoms: C_8  and  C_10
REMARK    5  A    between atoms: C_10  and  C_11
REMARK    6  A    between atoms: C_11  and  C_12
REMARK    7  A    between atoms: C_12  and  C_13
REMARK    8  A    between atoms: C_13  and  C_14
REMARK    9  A    between atoms: C_15  and  C_16
REMARK                            x       y       z     vdW  Elec       q    Type
REMARK                         _______ _______ _______ _____ _____    ______ ____
ROOT
ATOM      1  N   UNL     1       0.738   5.362  -7.980  0.00  0.00    -0.201 NA
ATOM      2  C   UNL     1       1.348   6.274  -8.901  0.00  0.00    +0.242 C 
ATOM      3  O   UNL     1       0.587   6.637  -9.849  0.00  0.00    -0.273 OA
ENDROOT
BRANCH   2   4
ATOM      4  C   UNL     1       2.588   7.039  -8.557  0.00  0.00    +0.087 C 
BRANCH   4   5
ATOM      5  C   UNL     1       3.744   6.681  -9.445  0.00  0.00    +0.010 C 
BRANCH   5   6
ATOM      6  C   UNL     1       3.986   5.197  -9.435  0.00  0.00    +0.005 C 
BRANCH   6   7
ATOM      7  C   UNL     1       5.304   4.844  -8.758  0.00  0.00    +0.026 C 
BRANCH   7   8
ATOM      8  C   UNL     1       6.252   5.958  -9.086  0.00  0.00    -0.031 C 
ATOM      9  C   UNL     1       7.408   5.740  -9.722  0.00  0.00    -0.031 C 
BRANCH   9  10
ATOM     10  C   UNL     1       7.916   6.622 -10.802  0.00  0.00    +0.022 C 
ATOM     11  C   UNL     1       8.478   5.822 -11.971  0.00  0.00    +0.005 C 
ATOM     12  C   UNL     1       6.797   7.539 -11.283  0.00  0.00    +0.005 C 
ENDBRANCH   9  10
ENDBRANCH   7   8
ENDBRANCH   6   7
ENDBRANCH   5   6
ENDBRANCH   4   5
ENDBRANCH   2   4
BRANCH   1  13
ATOM     13  C   UNL     1      -0.644   5.486  -7.558  0.00  0.00    +0.142 C 
BRANCH  13  19
ATOM     14  C   UNL     1      -1.863   5.664  -4.028  0.00  0.00    +0.177 A 
ATOM     15  C   UNL     1      -0.637   5.483  -3.402  0.00  0.00    +0.229 A 
ATOM     16  O   UNL     1      -0.535   4.910  -2.139  0.00  0.00    -0.283 OA
ATOM     17  C   UNL     1       0.509   5.831  -4.103  0.00  0.00    +0.045 A 
ATOM     18  C   UNL     1       0.363   6.184  -5.440  0.00  0.00    +0.001 A 
ATOM     19  C   UNL     1      -0.796   5.886  -6.149  0.00  0.00    +0.003 A 
ATOM     20  C   UNL     1      -1.938   5.710  -5.414  0.00  0.00    +0.038 A 
BRANCH  14  22
ATOM     21  C   UNL     1      -3.666   6.388  -2.597  0.00  0.00    +0.253 C 
ATOM     22  O   UNL     1      -2.995   5.371  -3.302  0.00  0.00    -0.468 OA
ENDBRANCH  14  22
ENDBRANCH  13  19
ENDBRANCH   1  13
TORSDOF 9
ENDMDL
MODEL 3
REMARK VINA RESULT:      -7.2      1.596      2.314
REMARK  Name = 
REMARK  9 active torsions:
REMARK  status: ('A' for Active; 'I' for Inactive)
REMARK    1  A    between atoms: O_2  and  C_3
REMARK    2  A    between atoms: C_5  and  C_6
REMARK    3  A    between atoms: C_6  and  N_7
REMARK    4  A    between atoms: C_8  and  C_10
REMARK    5  A    between atoms: C_10  and  C_11
REMARK    6  A    between atoms: C_11  and  C_12
REMARK    7  A    between atoms: C_12  and  C_13
REMARK    8  A    between atoms: C_13  and  C_14
REMARK    9  A    between atoms: C_15  and  C_16
REMARK                            x       y       z     vdW  Elec       q    Type
REMARK                         _______ _______ _______ _____ _____    ______ ____
ROOT
ATOM      1  N   UNL     1       3.255   5.700  -7.836  0.00  0.00    -0.201 NA
ATOM      2  C   UNL     1       2.346   4.610  -7.637  0.00  0.00    +0.242 C 
ATOM      3  O   UNL     1       2.595   3.594  -8.355  0.00  0.00    -0.273 OA
ENDROOT
BRANCH   2   4
ATOM      4  C   UNL     1       1.470   4.518  -6.427  0.00  0.00    +0.087 C 
BRANCH   4   5
ATOM      5  C   UNL     1       0.405   5.576  -6.412  0.00  0.00    +0.010 C 
BRANCH   5   6
ATOM      6  C   UNL     1      -0.810   5.120  -7.173  0.00  0.00    +0.005 C 
BRANCH   6   7
ATOM      7  C   UNL     1      -2.094   5.682  -6.576  0.00  0.00    +0.026 C 
BRANCH   7   8
ATOM      8  C   UNL     1      -1.672   6.584  -5.455  0.00  0.00    -0.031 C 
ATOM      9  C   UNL     1      -2.536   7.015  -4.529  0.00  0.00    -0.031 C 
BRANCH   9  10
ATOM     10  C   UNL     1      -2.207   7.080  -3.083  0.00  0.00    +0.022 C 
ATOM     11  C   UNL     1      -3.364   6.601  -2.216  0.00  0.00    +0.005 C 
ATOM     12  C   UNL     1      -0.961   6.248  -2.804  0.00  0.00    +0.005 C 
ENDBRANCH   9  10
ENDBRANCH   7   8
ENDBRANCH   6   7
ENDBRANCH   5   6
ENDBRANCH   4   5
ENDBRANCH   2   4
BRANCH   1  13
ATOM     13  C   UNL     1       4.678   5.503  -8.037  0.00  0.00    +0.142 C 
BRANCH  13  19
ATOM     14  C   UNL     1       6.557   5.477 -11.269  0.00  0.00    +0.177 A 
ATOM     15  C   UNL     1       5.461   5.402 -12.118  0.00  0.00    +0.229 A 
ATOM     16  O   UNL     1       5.543   4.811 -13.374  0.00  0.00    -0.283 OA
ATOM     17  C   UNL     1       4.244   5.877 -11.651  0.00  0.00    +0.045 A 
ATOM     18  C   UNL     1       4.168   6.246 -10.312  0.00  0.00    +0.001 A 
ATOM     19  C   UNL     1       5.135   5.853  -9.393  0.00  0.00    +0.003 A 
ATOM     20  C   UNL     1       6.371   5.547  -9.895  0.00  0.00    +0.038 A 
BRANCH  14  22
ATOM     21  C   UNL     1       8.678   5.990 -12.300  0.00  0.00    +0.253 C 
ATOM     22  O   UNL     1       7.772   5.056 -11.763  0.00  0.00    -0.468 OA
ENDBRANCH  14  22
ENDBRANCH  13  19
ENDBRANCH   1  13
TORSDOF 9
ENDMDL
MODEL 4
REMARK VINA RESULT:      -7.2      2.838      9.402
REMARK  Name = 
REMARK  9 active torsions:
REMARK  status: ('A' for Active; 'I' for Inactive)
REMARK    1  A    between atoms: O_2  and  C_3
REMARK    2  A    between atoms: C_5  and  C_6
REMARK    3  A    between atoms: C_6  and  N_7
REMARK    4  A    between atoms: C_8  and  C_10
REMARK    5  A    between atoms: C_10  and  C_11
REMARK    6  A    between atoms: C_11  and  C_12
REMARK    7  A    between atoms: C_12  and  C_13
REMARK    8  A    between atoms: C_13  and  C_14
REMARK    9  A    between atoms: C_15  and  C_16
REMARK                            x       y       z     vdW  Elec       q    Type
REMARK                         _______ _______ _______ _____ _____    ______ ____
ROOT
ATOM      1  N   UNL     1       0.817   5.319  -8.340  0.00  0.00    -0.201 NA
ATOM      2  C   UNL     1       1.527   6.268  -9.146  0.00  0.00    +0.242 C 
ATOM      3  O   UNL     1       0.891   6.646 -10.177  0.00  0.00    -0.273 OA
ENDROOT
BRANCH   2   4
ATOM      4  C   UNL     1       2.695   7.040  -8.619  0.00  0.00    +0.087 C 
BRANCH   4   5
ATOM      5  C   UNL     1       3.905   6.919  -9.500  0.00  0.00    +0.010 C 
BRANCH   5   6
ATOM      6  C   UNL     1       4.312   5.479  -9.650  0.00  0.00    +0.005 C 
BRANCH   6   7
ATOM      7  C   UNL     1       5.446   5.111  -8.702  0.00  0.00    +0.026 C 
BRANCH   7   8
ATOM      8  C   UNL     1       6.615   5.961  -9.101  0.00  0.00    -0.031 C 
ATOM      9  C   UNL     1       7.453   5.597 -10.079  0.00  0.00    -0.031 C 
BRANCH   9  10
ATOM     10  C   UNL     1       7.971   6.547 -11.095  0.00  0.00    +0.022 C 
ATOM     11  C   UNL     1       8.633   5.825 -12.262  0.00  0.00    +0.005 C 
ATOM     12  C   UNL     1       6.834   7.428 -11.599  0.00  0.00    +0.005 C 
ENDBRANCH   9  10
ENDBRANCH   7   8
ENDBRANCH   6   7
ENDBRANCH   5   6
ENDBRANCH   4   5
ENDBRANCH   2   4
BRANCH   1  13
ATOM     13  C   UNL     1      -0.611   5.411  -8.103  0.00  0.00    +0.142 C 
BRANCH  13  19
ATOM     14  C   UNL     1      -0.423   5.804  -4.389  0.00  0.00    +0.177 A 
ATOM     15  C   UNL     1      -1.544   6.608  -4.233  0.00  0.00    +0.229 A 
ATOM     16  O   UNL     1      -1.659   7.513  -3.184  0.00  0.00    -0.283 OA
ATOM     17  C   UNL     1      -2.536   6.536  -5.201  0.00  0.00    +0.045 A 
ATOM     18  C   UNL     1      -2.268   5.786  -6.342  0.00  0.00    +0.001 A 
ATOM     19  C   UNL     1      -0.973   5.405  -6.675  0.00  0.00    +0.003 A 
ATOM     20  C   UNL     1      -0.069   5.338  -5.649  0.00  0.00    +0.038 A 
BRANCH  14  22
ATOM     21  C   UNL     1       1.815   6.340  -3.664  0.00  0.00    +0.253 C 
ATOM     22  O   UNL     1       0.527   5.840  -3.394  0.00  0.00    -0.468 OA
ENDBRANCH  14  22
ENDBRANCH  13  19
ENDBRANCH   1  13
TORSDOF 9
ENDMDL
MODEL 5
REMARK VINA RESULT:      -7.1      4.348      7.169
REMARK  Name = 
REMARK  9 active torsions:
REMARK  status: ('A' for Active; 'I' for Inactive)
REMARK    1  A    between atoms: O_2  and  C_3
REMARK    2  A    between atoms: C_5  and  C_6
REMARK    3  A    between atoms: C_6  and  N_7
REMARK    4  A    between atoms: C_8  and  C_10
REMARK    5  A    between atoms: C_10  and  C_11
REMARK    6  A    between atoms: C_11  and  C_12
REMARK    7  A    between atoms: C_12  and  C_13
REMARK    8  A    between atoms: C_13  and  C_14
REMARK    9  A    between atoms: C_15  and  C_16
REMARK                            x       y       z     vdW  Elec       q    Type
REMARK                         _______ _______ _______ _____ _____    ______ ____
ROOT
ATOM      1  N   UNL     1       3.751   7.441  -5.575  0.00  0.00    -0.201 NA
ATOM      2  C   UNL     1       2.948   7.034  -6.691  0.00  0.00    +0.242 C 
ATOM      3  O   UNL     1       3.604   6.473  -7.621  0.00  0.00    -0.273 OA
ENDROOT
BRANCH   2   4
ATOM      4  C   UNL     1       1.461   6.902  -6.592  0.00  0.00    +0.087 C 
BRANCH   4   5
ATOM      5  C   UNL     1       1.030   6.249  -5.311  0.00  0.00    +0.010 C 
BRANCH   5   6
ATOM      6  C   UNL     1       0.176   5.043  -5.588  0.00  0.00    +0.005 C 
BRANCH   6   7
ATOM      7  C   UNL     1      -0.766   5.276  -6.763  0.00  0.00    +0.026 C 
BRANCH   7   8
ATOM      8  C   UNL     1      -2.015   5.869  -6.183  0.00  0.00    -0.031 C 
ATOM      9  C   UNL     1      -2.326   5.739  -4.889  0.00  0.00    -0.031 C 
BRANCH   9  10
ATOM     10  C   UNL     1      -2.875   6.851  -4.073  0.00  0.00    +0.022 C 
ATOM     11  C   UNL     1      -2.986   6.473  -2.601  0.00  0.00    +0.005 C 
ATOM     12  C   UNL     1      -1.997   8.086  -4.234  0.00  0.00    +0.005 C 
ENDBRANCH   9  10
ENDBRANCH   7   8
ENDBRANCH   6   7
ENDBRANCH   5   6
ENDBRANCH   4   5
ENDBRANCH   2   4
BRANCH   1  13
ATOM     13  C   UNL     1       4.846   6.637  -5.068  0.00  0.00    +0.142 C 
BRANCH  13  19
ATOM     14  C   UNL     1       4.296   7.115  -1.401  0.00  0.00    +0.177 A 
ATOM     15  C   UNL     1       3.424   6.051  -1.206  0.00  0.00    +0.229 A 
ATOM     16  O   UNL     1       2.467   6.061  -0.198  0.00  0.00    -0.283 OA
ATOM     17  C   UNL     1       3.485   4.990  -2.098  0.00  0.00    +0.045 A 
ATOM     18  C   UNL     1       4.299   5.134  -3.216  0.00  0.00    +0.001 A 
ATOM     19  C   UNL     1       4.767   6.380  -3.620  0.00  0.00    +0.003 A 
ATOM     20  C   UNL     1       4.837   7.351  -2.657  0.00  0.00    +0.038 A 
BRANCH  14  22
ATOM     21  C   UNL     1       3.594   9.336  -0.772  0.00  0.00    +0.253 C 
ATOM     22  O   UNL     1       4.267   8.135  -0.477  0.00  0.00    -0.468 OA
ENDBRANCH  14  22
ENDBRANCH  13  19
ENDBRANCH   1  13
TORSDOF 9
ENDMDL
MODEL 6
REMARK VINA RESULT:      -7.1      3.120      9.475
REMARK  Name = 
REMARK  9 active torsions:
REMARK  status: ('A' for Active; 'I' for Inactive)
REMARK    1  A    between atoms: O_2  and  C_3
REMARK    2  A    between atoms: C_5  and  C_6
REMARK    3  A    between atoms: C_6  and  N_7
REMARK    4  A    between atoms: C_8  and  C_10
REMARK    5  A    between atoms: C_10  and  C_11
REMARK    6  A    between atoms: C_11  and  C_12
REMARK    7  A    between atoms: C_12  and  C_13
REMARK    8  A    between atoms: C_13  and  C_14
REMARK    9  A    between atoms: C_15  and  C_16
REMARK                            x       y       z     vdW  Elec       q    Type
REMARK                         _______ _______ _______ _____ _____    ______ ____
ROOT
ATOM      1  N   UNL     1       2.712   5.210  -5.472  0.00  0.00    -0.201 NA
ATOM      2  C   UNL     1       3.479   6.099  -6.294  0.00  0.00    +0.242 C 
ATOM      3  O   UNL     1       3.273   7.328  -6.055  0.00  0.00    -0.273 OA
ENDROOT
BRANCH   2   4
ATOM      4  C   UNL     1       4.688   5.640  -7.046  0.00  0.00    +0.087 C 
BRANCH   4   5
ATOM      5  C   UNL     1       4.342   5.076  -8.393  0.00  0.00    +0.010 C 
BRANCH   5   6
ATOM      6  C   UNL     1       3.286   5.908  -9.065  0.00  0.00    +0.005 C 
BRANCH   6   7
ATOM      7  C   UNL     1       3.897   6.990  -9.948  0.00  0.00    +0.026 C 
BRANCH   7   8
ATOM      8  C   UNL     1       5.123   6.383 -10.561  0.00  0.00    -0.031 C 
ATOM      9  C   UNL     1       6.177   7.126 -10.918  0.00  0.00    -0.031 C 
BRANCH   9  10
ATOM     10  C   UNL     1       7.580   6.711 -10.668  0.00  0.00    +0.022 C 
ATOM     11  C   UNL     1       7.678   5.689  -9.543  0.00  0.00    +0.005 C 
ATOM     12  C   UNL     1       8.181   6.142 -11.949  0.00  0.00    +0.005 C 
ENDBRANCH   9  10
ENDBRANCH   7   8
ENDBRANCH   6   7
ENDBRANCH   5   6
ENDBRANCH   4   5
ENDBRANCH   2   4
BRANCH   1  13
ATOM     13  C   UNL     1       2.466   5.464  -4.065  0.00  0.00    +0.142 C 
BRANCH  13  19
ATOM     14  C   UNL     1      -1.260   5.731  -4.223  0.00  0.00    +0.177 A 
ATOM     15  C   UNL     1      -1.523   5.406  -2.899  0.00  0.00    +0.229 A 
ATOM     16  O   UNL     1      -2.717   4.808  -2.512  0.00  0.00    -0.283 OA
ATOM     17  C   UNL     1      -0.523   5.632  -1.963  0.00  0.00    +0.045 A 
ATOM     18  C   UNL     1       0.727   6.016  -2.436  0.00  0.00    +0.001 A 
ATOM     19  C   UNL     1       1.079   5.860  -3.772  0.00  0.00    +0.003 A 
ATOM     20  C   UNL     1       0.051   5.803  -4.676  0.00  0.00    +0.038 A 
BRANCH  14  22
ATOM     21  C   UNL     1      -1.986   5.429  -6.504  0.00  0.00    +0.253 C 
ATOM     22  O   UNL     1      -2.278   5.557  -5.133  0.00  0.00    -0.468 OA
ENDBRANCH  14  22
ENDBRANCH  13  19
ENDBRANCH   1  13
TORSDOF 9
ENDMDL
MODEL 7
REMARK VINA RESULT:      -7.1      2.508      3.549
REMARK  Name = 
REMARK  9 active torsions:
REMARK  status: ('A' for Active; 'I' for Inactive)
REMARK    1  A    between atoms: O_2  and  C_3
REMARK    2  A    between atoms: C_5  and  C_6
REMARK    3  A    between atoms: C_6  and  N_7
REMARK    4  A    between atoms: C_8  and  C_10
REMARK    5  A    between atoms: C_10  and  C_11
REMARK    6  A    between atoms: C_11  and  C_12
REMARK    7  A    between atoms: C_12  and  C_13
REMARK    8  A    between atoms: C_13  and  C_14
REMARK    9  A    between atoms: C_15  and  C_16
REMARK                            x       y       z     vdW  Elec       q    Type
REMARK                         _______ _______ _______ _____ _____    ______ ____
ROOT
ATOM      1  N   UNL     1       3.746   5.340  -5.304  0.00  0.00    -0.201 NA
ATOM      2  C   UNL     1       2.883   6.133  -4.478  0.00  0.00    +0.242 C 
ATOM      3  O   UNL     1       3.384   7.244  -4.124  0.00  0.00    -0.273 OA
ENDROOT
BRANCH   2   4
ATOM      4  C   UNL     1       1.411   5.875  -4.391  0.00  0.00    +0.087 C 
BRANCH   4   5
ATOM      5  C   UNL     1       0.706   6.150  -5.687  0.00  0.00    +0.010 C 
BRANCH   5   6
ATOM      6  C   UNL     1       0.047   4.904  -6.211  0.00  0.00    +0.005 C 
BRANCH   6   7
ATOM      7  C   UNL     1      -1.279   5.211  -6.894  0.00  0.00    +0.026 C 
BRANCH   7   8
ATOM      8  C   UNL     1      -2.019   6.133  -5.972  0.00  0.00    -0.031 C 
ATOM      9  C   UNL     1      -2.762   5.675  -4.959  0.00  0.00    -0.031 C 
BRANCH   9  10
ATOM     10  C   UNL     1      -2.765   6.298  -3.612  0.00  0.00    +0.022 C 
ATOM     11  C   UNL     1      -2.105   5.402  -2.571  0.00  0.00    +0.005 C 
ATOM     12  C   UNL     1      -2.056   7.646  -3.670  0.00  0.00    +0.005 C 
ENDBRANCH   9  10
ENDBRANCH   7   8
ENDBRANCH   6   7
ENDBRANCH   5   6
ENDBRANCH   4   5
ENDBRANCH   2   4
BRANCH   1  13
ATOM     13  C   UNL     1       4.584   5.919  -6.337  0.00  0.00    +0.142 C 
BRANCH  13  19
ATOM     14  C   UNL     1       2.985   5.022  -9.595  0.00  0.00    +0.177 A 
ATOM     15  C   UNL     1       4.003   5.466 -10.428  0.00  0.00    +0.229 A 
ATOM     16  O   UNL     1       3.755   5.903 -11.724  0.00  0.00    -0.283 OA
ATOM     17  C   UNL     1       5.288   5.530  -9.906  0.00  0.00    +0.045 A 
ATOM     18  C   UNL     1       5.441   5.300  -8.543  0.00  0.00    +0.001 A 
ATOM     19  C   UNL     1       4.358   5.340  -7.671  0.00  0.00    +0.003 A 
ATOM     20  C   UNL     1       3.123   5.110  -8.216  0.00  0.00    +0.038 A 
BRANCH  14  22
ATOM     21  C   UNL     1       0.768   5.916  -9.922  0.00  0.00    +0.253 C 
ATOM     22  O   UNL     1       1.726   4.907 -10.140  0.00  0.00    -0.468 OA
ENDBRANCH  14  22
ENDBRANCH  13  19
ENDBRANCH   1  13
TORSDOF 9
ENDMDL
MODEL 8
REMARK VINA RESULT:      -7.0      3.669      8.563
REMARK  Name = 
REMARK  9 active torsions:
REMARK  status: ('A' for Active; 'I' for Inactive)
REMARK    1  A    between atoms: O_2  and  C_3
REMARK    2  A    between atoms: C_5  and  C_6
REMARK    3  A    between atoms: C_6  and  N_7
REMARK    4  A    between atoms: C_8  and  C_10
REMARK    5  A    between atoms: C_10  and  C_11
REMARK    6  A    between atoms: C_11  and  C_12
REMARK    7  A    between atoms: C_12  and  C_13
REMARK    8  A    between atoms: C_13  and  C_14
REMARK    9  A    between atoms: C_15  and  C_16
REMARK                            x       y       z     vdW  Elec       q    Type
REMARK                         _______ _______ _______ _____ _____    ______ ____
ROOT
ATOM      1  N   UNL     1       0.590   5.331  -8.011  0.00  0.00    -0.201 NA
ATOM      2  C   UNL     1       0.901   5.458  -9.404  0.00  0.00    +0.242 C 
ATOM      3  O   UNL     1       0.087   4.859 -10.171  0.00  0.00    -0.273 OA
ENDROOT
BRANCH   2   4
ATOM      4  C   UNL     1       1.825   6.517  -9.917  0.00  0.00    +0.087 C 
BRANCH   4   5
ATOM      5  C   UNL     1       2.994   6.748  -9.003  0.00  0.00    +0.010 C 
BRANCH   5   6
ATOM      6  C   UNL     1       4.082   5.745  -9.265  0.00  0.00    +0.005 C 
BRANCH   6   7
ATOM      7  C   UNL     1       4.873   5.427  -8.003  0.00  0.00    +0.026 C 
BRANCH   7   8
ATOM      8  C   UNL     1       4.070   5.971  -6.860  0.00  0.00    -0.031 C 
ATOM      9  C   UNL     1       3.992   5.338  -5.684  0.00  0.00    -0.031 C 
BRANCH   9  10
ATOM     10  C   UNL     1       4.060   6.042  -4.380  0.00  0.00    +0.022 C 
ATOM     11  C   UNL     1       4.476   5.106  -3.251  0.00  0.00    +0.005 C 
ATOM     12  C   UNL     1       5.035   7.210  -4.480  0.00  0.00    +0.005 C 
ENDBRANCH   9  10
ENDBRANCH   7   8
ENDBRANCH   6   7
ENDBRANCH   5   6
ENDBRANCH   4   5
ENDBRANCH   2   4
BRANCH   1  13
ATOM     13  C   UNL     1      -0.770   5.371  -7.509  0.00  0.00    +0.142 C 
BRANCH  13  19
ATOM     14  C   UNL     1      -1.891   5.667  -3.954  0.00  0.00    +0.177 A 
ATOM     15  C   UNL     1      -0.660   5.434  -3.354  0.00  0.00    +0.229 A 
ATOM     16  O   UNL     1      -0.556   4.876  -2.085  0.00  0.00    -0.283 OA
ATOM     17  C   UNL     1       0.484   5.712  -4.088  0.00  0.00    +0.045 A 
ATOM     18  C   UNL     1       0.323   6.050  -5.427  0.00  0.00    +0.001 A 
ATOM     19  C   UNL     1      -0.867   5.800  -6.103  0.00  0.00    +0.003 A 
ATOM     20  C   UNL     1      -1.997   5.694  -5.338  0.00  0.00    +0.038 A 
BRANCH  14  22
ATOM     21  C   UNL     1      -3.597   6.496  -2.463  0.00  0.00    +0.253 C 
ATOM     22  O   UNL     1      -3.018   5.443  -3.196  0.00  0.00    -0.468 OA
ENDBRANCH  14  22
ENDBRANCH  13  19
ENDBRANCH   1  13
TORSDOF 9
ENDMDL
MODEL 9
REMARK VINA RESULT:      -7.0      4.394      7.184
REMARK  Name = 
REMARK  9 active torsions:
REMARK  status: ('A' for Active; 'I' for Inactive)
REMARK    1  A    between atoms: O_2  and  C_3
REMARK    2  A    between atoms: C_5  and  C_6
REMARK    3  A    between atoms: C_6  and  N_7
REMARK    4  A    between atoms: C_8  and  C_10
REMARK    5  A    between atoms: C_10  and  C_11
REMARK    6  A    between atoms: C_11  and  C_12
REMARK    7  A    between atoms: C_12  and  C_13
REMARK    8  A    between atoms: C_13  and  C_14
REMARK    9  A    between atoms: C_15  and  C_16
REMARK                            x       y       z     vdW  Elec       q    Type
REMARK                         _______ _______ _______ _____ _____    ______ ____
ROOT
ATOM      1  N   UNL     1      -1.846   6.271  -4.015  0.00  0.00    -0.201 NA
ATOM      2  C   UNL     1      -2.086   5.557  -2.796  0.00  0.00    +0.242 C 
ATOM      3  O   UNL     1      -2.917   4.604  -2.911  0.00  0.00    -0.273 OA
ENDROOT
BRANCH   2   4
ATOM      4  C   UNL     1      -1.156   5.647  -1.627  0.00  0.00    +0.087 C 
BRANCH   4   5
ATOM      5  C   UNL     1       0.177   5.018  -1.909  0.00  0.00    +0.010 C 
BRANCH   5   6
ATOM      6  C   UNL     1       1.206   5.481  -0.914  0.00  0.00    +0.005 C 
BRANCH   6   7
ATOM      7  C   UNL     1       2.573   4.868  -1.189  0.00  0.00    +0.026 C 
BRANCH   7   8
ATOM      8  C   UNL     1       2.987   5.364  -2.542  0.00  0.00    -0.031 C 
ATOM      9  C   UNL     1       3.797   6.418  -2.692  0.00  0.00    -0.031 C 
BRANCH   9  10
ATOM     10  C   UNL     1       4.900   6.455  -3.685  0.00  0.00    +0.022 C 
ATOM     11  C   UNL     1       4.692   5.440  -4.802  0.00  0.00    +0.005 C 
ATOM     12  C   UNL     1       5.016   7.860  -4.267  0.00  0.00    +0.005 C 
ENDBRANCH   9  10
ENDBRANCH   7   8
ENDBRANCH   6   7
ENDBRANCH   5   6
ENDBRANCH   4   5
ENDBRANCH   2   4
BRANCH   1  13
ATOM     13  C   UNL     1      -1.749   5.609  -5.302  0.00  0.00    +0.142 C 
BRANCH  13  19
ATOM     14  C   UNL     1       0.932   6.084  -7.864  0.00  0.00    +0.177 A 
ATOM     15  C   UNL     1       1.593   7.136  -7.245  0.00  0.00    +0.229 A 
ATOM     16  O   UNL     1       2.311   8.081  -7.969  0.00  0.00    -0.283 OA
ATOM     17  C   UNL     1       1.465   7.264  -5.869  0.00  0.00    +0.045 A 
ATOM     18  C   UNL     1       0.555   6.431  -5.227  0.00  0.00    +0.001 A 
ATOM     19  C   UNL     1      -0.425   5.742  -5.934  0.00  0.00    +0.003 A 
ATOM     20  C   UNL     1      -0.173   5.501  -7.258  0.00  0.00    +0.038 A 
BRANCH  14  22
ATOM     21  C   UNL     1       1.689   4.751  -9.728  0.00  0.00    +0.253 C 
ATOM     22  O   UNL     1       1.114   5.931  -9.220  0.00  0.00    -0.468 OA
ENDBRANCH  14  22
ENDBRANCH  13  19
ENDBRANCH   1  13
TORSDOF 9
ENDMDL
