MODEL 1
REMARK VINA RESULT:      -6.6      0.000      0.000
REMARK  Name = 
REMARK  2 active torsions:
REMARK  status: ('A' for Active; 'I' for Inactive)
REMARK    1  A    between atoms: N_5  and  C_6
REMARK    2  A    between atoms: C_8  and  C_9
REMARK                            x       y       z     vdW  Elec       q    Type
REMARK                         _______ _______ _______ _____ _____    ______ ____
ROOT
ATOM      1  C   UNL     1       1.111   5.194  -6.175  0.00  0.00    +0.274 C 
ATOM      2  C   UNL     1       1.908   6.588  -6.528  0.00  0.00    +0.338 C 
ATOM      3  F   UNL     1       1.138   7.570  -6.840  0.00  0.00    -0.197 F 
ATOM      4  F   UNL     1       2.762   6.245  -7.526  0.00  0.00    -0.197 F 
ATOM      5  C   UNL     1       2.738   6.794  -5.165  0.00  0.00    +0.247 C 
ATOM      6  O   UNL     1       3.957   7.382  -5.841  0.00  0.00    -0.214 OA
ATOM      7  C   UNL     1       3.293   5.189  -5.440  0.00  0.00    +0.186 C 
ATOM      8  O   UNL     1       1.937   4.795  -4.963  0.00  0.00    -0.328 OA
ENDROOT
BRANCH   1  14
ATOM      9  N   UNL     1      -2.863   4.874  -2.498  0.00  0.00    -0.107 NA
ATOM     10  C   UNL     1      -2.075   5.539  -3.431  0.00  0.00    +0.176 A 
ATOM     11  N   UNL     1      -2.304   5.615  -4.749  0.00  0.00    -0.174 NA
ATOM     12  C   UNL     1      -1.271   5.507  -5.628  0.00  0.00    +0.353 A 
ATOM     13  O   UNL     1      -1.509   5.647  -6.867  0.00  0.00    -0.244 OA
ATOM     14  N   UNL     1      -0.004   5.802  -5.218  0.00  0.00    -0.251 N 
ATOM     15  C   UNL     1       0.168   5.900  -3.945  0.00  0.00    +0.085 A 
ATOM     16  C   UNL     1      -0.825   5.983  -3.019  0.00  0.00    +0.057 A 
ENDBRANCH   1  14
BRANCH   7  17
ATOM     17  C   UNL     1       3.911   5.126  -3.923  0.00  0.00    +0.214 C 
ATOM     18  O   UNL     1       5.224   4.668  -4.055  0.00  0.00    -0.218 OA
ENDBRANCH   7  17
TORSDOF 2
ENDMDL
MODEL 2
REMARK VINA RESULT:      -6.5      2.349      3.181
REMARK  Name = 
REMARK  2 active torsions:
REMARK  status: ('A' for Active; 'I' for Inactive)
REMARK    1  A    between atoms: N_5  and  C_6
REMARK    2  A    between atoms: C_8  and  C_9
REMARK                            x       y       z     vdW  Elec       q    Type
REMARK                         _______ _______ _______ _____ _____    ______ ____
ROOT
ATOM      1  C   UNL     1       3.069   5.095  -4.104  0.00  0.00    +0.274 C 
ATOM      2  C   UNL     1       4.393   5.711  -4.859  0.00  0.00    +0.338 C 
ATOM      3  F   UNL     1       4.425   5.492  -6.126  0.00  0.00    -0.197 F 
ATOM      4  F   UNL     1       5.444   5.161  -4.198  0.00  0.00    -0.197 F 
ATOM      5  C   UNL     1       4.259   7.261  -4.448  0.00  0.00    +0.247 C 
ATOM      6  O   UNL     1       5.749   7.495  -4.333  0.00  0.00    -0.214 OA
ATOM      7  C   UNL     1       4.172   6.669  -2.836  0.00  0.00    +0.186 C 
ATOM      8  O   UNL     1       2.780   6.289  -3.207  0.00  0.00    -0.328 OA
ENDROOT
BRANCH   1  14
ATOM      9  N   UNL     1      -2.024   5.792  -5.834  0.00  0.00    -0.107 NA
ATOM     10  C   UNL     1      -0.642   5.817  -5.978  0.00  0.00    +0.176 A 
ATOM     11  N   UNL     1       0.131   4.796  -6.374  0.00  0.00    -0.174 NA
ATOM     12  C   UNL     1       1.328   4.571  -5.767  0.00  0.00    +0.353 A 
ATOM     13  O   UNL     1       2.067   3.637  -6.206  0.00  0.00    -0.244 OA
ATOM     14  N   UNL     1       1.963   5.598  -5.131  0.00  0.00    -0.251 N 
ATOM     15  C   UNL     1       1.254   6.649  -4.911  0.00  0.00    +0.085 A 
ATOM     16  C   UNL     1       0.040   6.913  -5.466  0.00  0.00    +0.057 A 
ENDBRANCH   1  14
BRANCH   7  17
ATOM     17  C   UNL     1       3.691   8.143  -2.303  0.00  0.00    +0.214 C 
ATOM     18  O   UNL     1       4.155   8.254  -0.990  0.00  0.00    -0.218 OA
ENDBRANCH   7  17
TORSDOF 2
ENDMDL
MODEL 3
REMARK VINA RESULT:      -6.4      1.999      2.261
REMARK  Name = 
REMARK  2 active torsions:
REMARK  status: ('A' for Active; 'I' for Inactive)
REMARK    1  A    between atoms: N_5  and  C_6
REMARK    2  A    between atoms: C_8  and  C_9
REMARK                            x       y       z     vdW  Elec       q    Type
REMARK                         _______ _______ _______ _____ _____    ______ ____
ROOT
ATOM      1  C   UNL     1       2.598   5.304  -4.144  0.00  0.00    +0.274 C 
ATOM      2  C   UNL     1       3.304   6.706  -4.636  0.00  0.00    +0.338 C 
ATOM      3  F   UNL     1       2.616   7.364  -5.502  0.00  0.00    -0.197 F 
ATOM      4  F   UNL     1       4.521   6.325  -5.101  0.00  0.00    -0.197 F 
ATOM      5  C   UNL     1       3.483   7.446  -3.218  0.00  0.00    +0.247 C 
ATOM      6  O   UNL     1       4.794   8.108  -3.582  0.00  0.00    -0.214 OA
ATOM      7  C   UNL     1       4.283   6.002  -2.737  0.00  0.00    +0.186 C 
ATOM      8  O   UNL     1       2.905   5.438  -2.661  0.00  0.00    -0.328 OA
ENDROOT
BRANCH   1  14
ATOM      9  N   UNL     1      -2.578   4.877  -2.583  0.00  0.00    -0.107 NA
ATOM     10  C   UNL     1      -1.502   5.527  -3.176  0.00  0.00    +0.176 A 
ATOM     11  N   UNL     1      -1.112   5.407  -4.453  0.00  0.00    -0.174 NA
ATOM     12  C   UNL     1       0.213   5.340  -4.758  0.00  0.00    +0.353 A 
ATOM     13  O   UNL     1       0.555   5.292  -5.979  0.00  0.00    -0.244 OA
ATOM     14  N   UNL     1       1.130   5.860  -3.892  0.00  0.00    -0.251 N 
ATOM     15  C   UNL     1       0.697   6.137  -2.712  0.00  0.00    +0.085 A 
ATOM     16  C   UNL     1      -0.611   6.191  -2.343  0.00  0.00    +0.057 A 
ENDBRANCH   1  14
BRANCH   7  17
ATOM     17  C   UNL     1       4.239   6.480  -1.170  0.00  0.00    +0.214 C 
ATOM     18  O   UNL     1       3.958   5.336  -0.420  0.00  0.00    -0.218 OA
ENDBRANCH   7  17
TORSDOF 2
ENDMDL
MODEL 4
REMARK VINA RESULT:      -6.4      2.622      3.829
REMARK  Name = 
REMARK  2 active torsions:
REMARK  status: ('A' for Active; 'I' for Inactive)
REMARK    1  A    between atoms: N_5  and  C_6
REMARK    2  A    between atoms: C_8  and  C_9
REMARK                            x       y       z     vdW  Elec       q    Type
REMARK                         _______ _______ _______ _____ _____    ______ ____
ROOT
ATOM      1  C   UNL     1       3.332   6.364  -3.927  0.00  0.00    +0.274 C 
ATOM      2  C   UNL     1       3.874   5.198  -4.952  0.00  0.00    +0.338 C 
ATOM      3  F   UNL     1       3.999   4.038  -4.410  0.00  0.00    -0.197 F 
ATOM      4  F   UNL     1       5.044   5.690  -5.433  0.00  0.00    -0.197 F 
ATOM      5  C   UNL     1       2.749   5.285  -6.101  0.00  0.00    +0.247 C 
ATOM      6  O   UNL     1       3.701   4.986  -7.238  0.00  0.00    -0.214 OA
ATOM      7  C   UNL     1       3.139   6.960  -6.143  0.00  0.00    +0.186 C 
ATOM      8  O   UNL     1       2.349   7.025  -4.881  0.00  0.00    -0.328 OA
ENDROOT
BRANCH   1  14
ATOM      9  N   UNL     1      -1.005   5.815  -0.716  0.00  0.00    -0.107 NA
ATOM     10  C   UNL     1       0.013   5.337  -1.533  0.00  0.00    +0.176 A 
ATOM     11  N   UNL     1       1.255   5.016  -1.144  0.00  0.00    -0.174 NA
ATOM     12  C   UNL     1       2.320   5.347  -1.924  0.00  0.00    +0.353 A 
ATOM     13  O   UNL     1       3.479   4.974  -1.562  0.00  0.00    -0.244 OA
ATOM     14  N   UNL     1       2.139   5.549  -3.261  0.00  0.00    -0.251 N 
ATOM     15  C   UNL     1       0.919   5.683  -3.650  0.00  0.00    +0.085 A 
ATOM     16  C   UNL     1      -0.183   5.395  -2.907  0.00  0.00    +0.057 A 
ENDBRANCH   1  14
BRANCH   7  17
ATOM     17  C   UNL     1       1.813   7.262  -7.058  0.00  0.00    +0.214 C 
ATOM     18  O   UNL     1       2.138   8.351  -7.869  0.00  0.00    -0.218 OA
ENDBRANCH   7  17
TORSDOF 2
ENDMDL
MODEL 5
REMARK VINA RESULT:      -6.3      3.537      5.088
REMARK  Name = 
REMARK  2 active torsions:
REMARK  status: ('A' for Active; 'I' for Inactive)
REMARK    1  A    between atoms: N_5  and  C_6
REMARK    2  A    between atoms: C_8  and  C_9
REMARK                            x       y       z     vdW  Elec       q    Type
REMARK                         _______ _______ _______ _____ _____    ______ ____
ROOT
ATOM      1  C   UNL     1       1.926   4.342  -8.525  0.00  0.00    +0.274 C 
ATOM      2  C   UNL     1       0.756   5.411  -8.962  0.00  0.00    +0.338 C 
ATOM      3  F   UNL     1      -0.012   5.773  -7.995  0.00  0.00    -0.197 F 
ATOM      4  F   UNL     1       0.089   4.789  -9.967  0.00  0.00    -0.197 F 
ATOM      5  C   UNL     1       1.664   6.590  -9.576  0.00  0.00    +0.247 C 
ATOM      6  O   UNL     1       0.675   6.966 -10.657  0.00  0.00    -0.214 OA
ATOM      7  C   UNL     1       2.345   5.350 -10.553  0.00  0.00    +0.186 C 
ATOM      8  O   UNL     1       3.069   4.969  -9.308  0.00  0.00    -0.328 OA
ENDROOT
BRANCH   1  14
ATOM      9  N   UNL     1       5.134   4.926  -4.191  0.00  0.00    -0.107 NA
ATOM     10  C   UNL     1       4.031   5.234  -4.979  0.00  0.00    +0.176 A 
ATOM     11  N   UNL     1       2.829   4.643  -4.924  0.00  0.00    -0.174 NA
ATOM     12  C   UNL     1       2.155   4.362  -6.073  0.00  0.00    +0.353 A 
ATOM     13  O   UNL     1       0.991   3.861  -5.988  0.00  0.00    -0.244 OA
ATOM     14  N   UNL     1       2.426   5.073  -7.205  0.00  0.00    -0.251 N 
ATOM     15  C   UNL     1       3.502   5.780  -7.181  0.00  0.00    +0.085 A 
ATOM     16  C   UNL     1       4.232   6.070  -6.070  0.00  0.00    +0.057 A 
ENDBRANCH   1  14
BRANCH   7  17
ATOM     17  C   UNL     1       3.551   6.357 -11.019  0.00  0.00    +0.214 C 
ATOM     18  O   UNL     1       4.699   5.568 -11.124  0.00  0.00    -0.218 OA
ENDBRANCH   7  17
TORSDOF 2
ENDMDL
MODEL 6
REMARK VINA RESULT:      -6.3      3.129      4.782
REMARK  Name = 
REMARK  2 active torsions:
REMARK  status: ('A' for Active; 'I' for Inactive)
REMARK    1  A    between atoms: N_5  and  C_6
REMARK    2  A    between atoms: C_8  and  C_9
REMARK                            x       y       z     vdW  Elec       q    Type
REMARK                         _______ _______ _______ _____ _____    ______ ____
ROOT
ATOM      1  C   UNL     1       2.042   4.146  -6.434  0.00  0.00    +0.274 C 
ATOM      2  C   UNL     1       2.937   5.309  -5.693  0.00  0.00    +0.338 C 
ATOM      3  F   UNL     1       3.851   5.824  -6.438  0.00  0.00    -0.197 F 
ATOM      4  F   UNL     1       3.433   4.699  -4.587  0.00  0.00    -0.197 F 
ATOM      5  C   UNL     1       1.771   6.331  -5.259  0.00  0.00    +0.247 C 
ATOM      6  O   UNL     1       2.433   6.741  -3.963  0.00  0.00    -0.214 OA
ATOM      7  C   UNL     1       1.050   4.955  -4.520  0.00  0.00    +0.186 C 
ATOM      8  O   UNL     1       0.681   4.582  -5.915  0.00  0.00    -0.328 OA
ENDROOT
BRANCH   1  14
ATOM      9  N   UNL     1      -0.266   4.728 -11.308  0.00  0.00    -0.107 NA
ATOM     10  C   UNL     1       0.632   5.069 -10.302  0.00  0.00    +0.176 A 
ATOM     11  N   UNL     1       1.860   4.560 -10.132  0.00  0.00    -0.174 NA
ATOM     12  C   UNL     1       2.309   4.268  -8.880  0.00  0.00    +0.353 A 
ATOM     13  O   UNL     1       3.499   3.848  -8.744  0.00  0.00    -0.244 OA
ATOM     14  N   UNL     1       1.765   4.905  -7.804  0.00  0.00    -0.251 N 
ATOM     15  C   UNL     1       0.668   5.542  -8.022  0.00  0.00    +0.085 A 
ATOM     16  C   UNL     1       0.156   5.837  -9.247  0.00  0.00    +0.057 A 
ENDBRANCH   1  14
BRANCH   7  17
ATOM     17  C   UNL     1      -0.349   5.783  -4.308  0.00  0.00    +0.214 C 
ATOM     18  O   UNL     1      -0.898   5.320  -3.109  0.00  0.00    -0.218 OA
ENDBRANCH   7  17
TORSDOF 2
ENDMDL
MODEL 7
REMARK VINA RESULT:      -6.3      4.462      6.566
REMARK  Name = 
REMARK  2 active torsions:
REMARK  status: ('A' for Active; 'I' for Inactive)
REMARK    1  A    between atoms: N_5  and  C_6
REMARK    2  A    between atoms: C_8  and  C_9
REMARK                            x       y       z     vdW  Elec       q    Type
REMARK                         _______ _______ _______ _____ _____    ______ ____
ROOT
ATOM      1  C   UNL     1       2.603   6.176  -8.910  0.00  0.00    +0.274 C 
ATOM      2  C   UNL     1       1.908   4.779  -8.392  0.00  0.00    +0.338 C 
ATOM      3  F   UNL     1       2.034   3.794  -9.210  0.00  0.00    -0.197 F 
ATOM      4  F   UNL     1       0.614   5.113  -8.156  0.00  0.00    -0.197 F 
ATOM      5  C   UNL     1       2.672   4.586  -6.988  0.00  0.00    +0.247 C 
ATOM      6  O   UNL     1       1.480   3.990  -6.272  0.00  0.00    -0.214 OA
ATOM      7  C   UNL     1       2.142   6.187  -6.653  0.00  0.00    +0.186 C 
ATOM      8  O   UNL     1       3.233   6.586  -7.588  0.00  0.00    -0.328 OA
ENDROOT
BRANCH   1  14
ATOM      9  N   UNL     1       7.723   6.538 -10.662  0.00  0.00    -0.107 NA
ATOM     10  C   UNL     1       6.547   5.855 -10.372  0.00  0.00    +0.176 A 
ATOM     11  N   UNL     1       5.504   5.690 -11.196  0.00  0.00    -0.174 NA
ATOM     12  C   UNL     1       4.234   5.792 -10.716  0.00  0.00    +0.353 A 
ATOM     13  O   UNL     1       3.265   5.568 -11.505  0.00  0.00    -0.244 OA
ATOM     14  N   UNL     1       3.996   5.578  -9.390  0.00  0.00    -0.251 N 
ATOM     15  C   UNL     1       5.033   5.564  -8.626  0.00  0.00    +0.085 A 
ATOM     16  C   UNL     1       6.324   5.492  -9.050  0.00  0.00    +0.057 A 
ENDBRANCH   1  14
BRANCH   7  17
ATOM     17  C   UNL     1       3.143   6.265  -5.357  0.00  0.00    +0.214 C 
ATOM     18  O   UNL     1       3.799   7.495  -5.444  0.00  0.00    -0.218 OA
ENDBRANCH   7  17
TORSDOF 2
ENDMDL
MODEL 8
REMARK VINA RESULT:      -6.2      6.355      8.019
REMARK  Name = 
REMARK  2 active torsions:
REMARK  status: ('A' for Active; 'I' for Inactive)
REMARK    1  A    between atoms: N_5  and  C_6
REMARK    2  A    between atoms: C_8  and  C_9
REMARK                            x       y       z     vdW  Elec       q    Type
REMARK                         _______ _______ _______ _____ _____    ______ ____
ROOT
ATOM      1  C   UNL     1       5.517   7.175 -10.805  0.00  0.00    +0.274 C 
ATOM      2  C   UNL     1       6.526   5.890 -10.617  0.00  0.00    +0.338 C 
ATOM      3  F   UNL     1       6.142   5.048  -9.723  0.00  0.00    -0.197 F 
ATOM      4  F   UNL     1       7.732   6.447 -10.339  0.00  0.00    -0.197 F 
ATOM      5  C   UNL     1       6.538   5.316 -12.120  0.00  0.00    +0.247 C 
ATOM      6  O   UNL     1       7.985   4.877 -12.080  0.00  0.00    -0.214 OA
ATOM      7  C   UNL     1       6.978   6.917 -12.566  0.00  0.00    +0.186 C 
ATOM      8  O   UNL     1       5.540   7.223 -12.325  0.00  0.00    -0.328 OA
ENDROOT
BRANCH   1  14
ATOM      9  N   UNL     1       0.133   6.778 -11.329  0.00  0.00    -0.107 NA
ATOM     10  C   UNL     1       1.398   6.287 -11.025  0.00  0.00    +0.176 A 
ATOM     11  N   UNL     1       2.012   6.365  -9.837  0.00  0.00    -0.174 NA
ATOM     12  C   UNL     1       3.342   6.648  -9.774  0.00  0.00    +0.353 A 
ATOM     13  O   UNL     1       3.911   6.651  -8.639  0.00  0.00    -0.244 OA
ATOM     14  N   UNL     1       4.139   6.382 -10.849  0.00  0.00    -0.251 N 
ATOM     15  C   UNL     1       3.528   6.135 -11.955  0.00  0.00    +0.085 A 
ATOM     16  C   UNL     1       2.199   5.873 -12.082  0.00  0.00    +0.057 A 
ENDBRANCH   1  14
BRANCH   7  17
ATOM     17  C   UNL     1       6.701   6.571 -14.144  0.00  0.00    +0.214 C 
ATOM     18  O   UNL     1       6.328   7.774 -14.748  0.00  0.00    -0.218 OA
ENDBRANCH   7  17
TORSDOF 2
ENDMDL
MODEL 9
REMARK VINA RESULT:      -6.1      2.557      3.959
REMARK  Name = 
REMARK  2 active torsions:
REMARK  status: ('A' for Active; 'I' for Inactive)
REMARK    1  A    between atoms: N_5  and  C_6
REMARK    2  A    between atoms: C_8  and  C_9
REMARK                            x       y       z     vdW  Elec       q    Type
REMARK                         _______ _______ _______ _____ _____    ______ ____
ROOT
ATOM      1  C   UNL     1       2.462   6.761  -7.138  0.00  0.00    +0.274 C 
ATOM      2  C   UNL     1       3.370   5.394  -7.242  0.00  0.00    +0.338 C 
ATOM      3  F   UNL     1       3.421   4.713  -6.152  0.00  0.00    -0.197 F 
ATOM      4  F   UNL     1       4.588   5.829  -7.655  0.00  0.00    -0.197 F 
ATOM      5  C   UNL     1       2.628   4.653  -8.463  0.00  0.00    +0.247 C 
ATOM      6  O   UNL     1       3.892   4.050  -9.037  0.00  0.00    -0.214 OA
ATOM      7  C   UNL     1       2.881   6.127  -9.312  0.00  0.00    +0.186 C 
ATOM      8  O   UNL     1       1.754   6.631  -8.477  0.00  0.00    -0.328 OA
ENDROOT
BRANCH   1  14
ATOM      9  N   UNL     1      -2.599   6.899  -5.193  0.00  0.00    -0.107 NA
ATOM     10  C   UNL     1      -1.340   6.333  -5.360  0.00  0.00    +0.176 A 
ATOM     11  N   UNL     1      -0.260   6.568  -4.603  0.00  0.00    -0.174 NA
ATOM     12  C   UNL     1       0.964   6.702  -5.183  0.00  0.00    +0.353 A 
ATOM     13  O   UNL     1       1.978   6.859  -4.436  0.00  0.00    -0.244 OA
ATOM     14  N   UNL     1       1.194   6.141  -6.405  0.00  0.00    -0.251 N 
ATOM     15  C   UNL     1       0.151   5.756  -7.054  0.00  0.00    +0.085 A 
ATOM     16  C   UNL     1      -1.101   5.631  -6.535  0.00  0.00    +0.057 A 
ENDBRANCH   1  14
BRANCH   7  17
ATOM     17  C   UNL     1       1.863   5.638 -10.499  0.00  0.00    +0.214 C 
ATOM     18  O   UNL     1       0.970   6.692 -10.706  0.00  0.00    -0.218 OA
ENDBRANCH   7  17
TORSDOF 2
ENDMDL
