MODEL 1
REMARK VINA RESULT:      -8.5      0.000      0.000
REMARK  Name = 
REMARK  6 active torsions:
REMARK  status: ('A' for Active; 'I' for Inactive)
REMARK    1  A    between atoms: C_2  and  C_3
REMARK    2  A    between atoms: C_3  and  C_4
REMARK    3  A    between atoms: C_4  and  C_5
REMARK    4  A    between atoms: C_5  and  C_6
REMARK    5  A    between atoms: C_6  and  C_7
REMARK    6  A    between atoms: C_7  and  C_10
REMARK                            x       y       z     vdW  Elec       q    Type
REMARK                         _______ _______ _______ _____ _____    ______ ____
ROOT
ATOM      1  C   UNL     1       2.869   4.864  -6.665  0.00  0.00    -0.017 A 
ATOM      2  C   UNL     1       3.533   5.193  -5.645  0.00  0.00    +0.032 A 
ATOM      3  C   UNL     1       3.074   5.614  -4.377  0.00  0.00    +0.137 A 
ATOM      4  O   UNL     1       3.724   6.462  -3.386  0.00  0.00    -0.483 OA
ATOM      5  C   UNL     1       3.785   7.004  -2.182  0.00  0.00    +0.134 C 
ATOM      6  C   UNL     1       2.267   6.619  -1.881  0.00  0.00    +0.042 C 
ATOM      7  C   UNL     1       2.136   6.832  -3.557  0.00  0.00    +0.039 C 
ATOM      8  C   UNL     1       3.762   6.716  -3.850  0.00  0.00    +0.069 C 
ATOM      9  C   UNL     1       4.359   5.323  -3.370  0.00  0.00    +0.151 C 
ATOM     10  O   UNL     1       5.335   4.782  -3.842  0.00  0.00    -0.296 OA
ATOM     11  C   UNL     1       3.982   4.668  -2.091  0.00  0.00    +0.065 C 
ATOM     12  C   UNL     1       2.548   5.022  -1.848  0.00  0.00    +0.012 C 
ATOM     13  C   UNL     1       4.617   6.704  -1.023  0.00  0.00    +0.044 C 
ATOM     14  C   UNL     1       3.818   8.541  -2.245  0.00  0.00    +0.044 C 
ATOM     15  C   UNL     1       1.897   5.360  -4.010  0.00  0.00    +0.051 A 
ATOM     16  C   UNL     1       1.084   4.972  -5.000  0.00  0.00    +0.194 A 
ATOM     17  O   UNL     1      -0.214   5.477  -4.816  0.00  0.00    -0.287 OA
ATOM     18  C   UNL     1       1.573   4.575  -6.257  0.00  0.00    +0.038 A 
ENDROOT
BRANCH   1  19
ATOM     19  C   UNL     1       3.368   5.516  -7.878  0.00  0.00    +0.019 C 
ATOM     20  C   UNL     1       2.934   4.870  -9.191  0.00  0.00    +0.004 C 
ATOM     21  C   UNL     1       2.852   6.914  -7.873  0.00  0.00    +0.004 C 
BRANCH  19  22
ATOM     22  C   UNL     1       4.847   5.431  -7.805  0.00  0.00    +0.004 C 
BRANCH  22  23
ATOM     23  C   UNL     1       5.370   5.505  -9.201  0.00  0.00    +0.000 C 
BRANCH  23  24
ATOM     24  C   UNL     1       6.891   5.579  -9.158  0.00  0.00    +0.000 C 
BRANCH  24  25
ATOM     25  C   UNL     1       7.282   6.526 -10.261  0.00  0.00    +0.000 C 
BRANCH  25  27
ATOM     26  C   UNL     1       6.475   8.184 -11.475  0.00  0.00    +0.000 C 
ATOM     27  C   UNL     1       6.077   7.192 -10.910  0.00  0.00    +0.000 C 
ENDBRANCH  25  27
ENDBRANCH  24  25
ENDBRANCH  23  24
ENDBRANCH  22  23
ENDBRANCH  19  22
ENDBRANCH   1  19
TORSDOF 6
ENDMDL
MODEL 2
REMARK VINA RESULT:      -8.3      3.036      5.219
REMARK  Name = 
REMARK  6 active torsions:
REMARK  status: ('A' for Active; 'I' for Inactive)
REMARK    1  A    between atoms: C_2  and  C_3
REMARK    2  A    between atoms: C_3  and  C_4
REMARK    3  A    between atoms: C_4  and  C_5
REMARK    4  A    between atoms: C_5  and  C_6
REMARK    5  A    between atoms: C_6  and  C_7
REMARK    6  A    between atoms: C_7  and  C_10
REMARK                            x       y       z     vdW  Elec       q    Type
REMARK                         _______ _______ _______ _____ _____    ______ ____
ROOT
ATOM      1  C   UNL     1      -0.636   5.578  -2.699  0.00  0.00    -0.017 A 
ATOM      2  C   UNL     1       0.450   5.654  -3.333  0.00  0.00    +0.032 A 
ATOM      3  C   UNL     1       1.756   5.882  -2.846  0.00  0.00    +0.137 A 
ATOM      4  O   UNL     1       2.909   6.472  -3.516  0.00  0.00    -0.483 OA
ATOM      5  C   UNL     1       4.194   6.780  -3.560  0.00  0.00    +0.134 C 
ATOM      6  C   UNL     1       4.363   6.495  -1.999  0.00  0.00    +0.042 C 
ATOM      7  C   UNL     1       2.751   7.018  -1.977  0.00  0.00    +0.039 C 
ATOM      8  C   UNL     1       2.501   6.801  -3.600  0.00  0.00    +0.069 C 
ATOM      9  C   UNL     1       2.739   5.293  -4.045  0.00  0.00    +0.151 C 
ATOM     10  O   UNL     1       2.211   4.755  -4.995  0.00  0.00    -0.296 OA
ATOM     11  C   UNL     1       3.861   4.458  -3.545  0.00  0.00    +0.065 C 
ATOM     12  C   UNL     1       4.113   4.899  -2.137  0.00  0.00    +0.012 C 
ATOM     13  C   UNL     1       5.307   6.199  -4.299  0.00  0.00    +0.044 C 
ATOM     14  C   UNL     1       4.415   8.294  -3.731  0.00  0.00    +0.044 C 
ATOM     15  C   UNL     1       2.027   5.681  -1.635  0.00  0.00    +0.051 A 
ATOM     16  C   UNL     1       0.954   5.557  -0.844  0.00  0.00    +0.194 A 
ATOM     17  O   UNL     1       1.181   6.143   0.413  0.00  0.00    -0.287 OA
ATOM     18  C   UNL     1      -0.336   5.347  -1.363  0.00  0.00    +0.038 A 
ENDROOT
BRANCH   1  19
ATOM     19  C   UNL     1      -1.690   6.387  -3.316  0.00  0.00    +0.019 C 
ATOM     20  C   UNL     1      -3.065   5.727  -3.382  0.00  0.00    +0.004 C 
ATOM     21  C   UNL     1      -1.827   7.630  -2.505  0.00  0.00    +0.004 C 
BRANCH  19  22
ATOM     22  C   UNL     1      -1.246   6.635  -4.710  0.00  0.00    +0.004 C 
BRANCH  22  23
ATOM     23  C   UNL     1      -2.458   6.596  -5.580  0.00  0.00    +0.000 C 
BRANCH  23  24
ATOM     24  C   UNL     1      -2.278   5.510  -6.633  0.00  0.00    +0.000 C 
BRANCH  24  25
ATOM     25  C   UNL     1      -0.795   5.270  -6.718  0.00  0.00    +0.000 C 
BRANCH  25  27
ATOM     26  C   UNL     1       0.847   5.974  -8.016  0.00  0.00    +0.000 C 
ATOM     27  C   UNL     1      -0.250   5.479  -8.124  0.00  0.00    +0.000 C 
ENDBRANCH  25  27
ENDBRANCH  24  25
ENDBRANCH  23  24
ENDBRANCH  22  23
ENDBRANCH  19  22
ENDBRANCH   1  19
TORSDOF 6
ENDMDL
MODEL 3
REMARK VINA RESULT:      -8.3      2.653      5.629
REMARK  Name = 
REMARK  6 active torsions:
REMARK  status: ('A' for Active; 'I' for Inactive)
REMARK    1  A    between atoms: C_2  and  C_3
REMARK    2  A    between atoms: C_3  and  C_4
REMARK    3  A    between atoms: C_4  and  C_5
REMARK    4  A    between atoms: C_5  and  C_6
REMARK    5  A    between atoms: C_6  and  C_7
REMARK    6  A    between atoms: C_7  and  C_10
REMARK                            x       y       z     vdW  Elec       q    Type
REMARK                         _______ _______ _______ _____ _____    ______ ____
ROOT
ATOM      1  C   UNL     1       2.221   4.991  -5.351  0.00  0.00    -0.017 A 
ATOM      2  C   UNL     1       1.359   5.439  -4.549  0.00  0.00    +0.032 A 
ATOM      3  C   UNL     1       0.021   5.818  -4.795  0.00  0.00    +0.137 A 
ATOM      4  O   UNL     1      -0.820   6.777  -4.088  0.00  0.00    -0.483 OA
ATOM      5  C   UNL     1      -1.989   7.351  -3.862  0.00  0.00    +0.134 C 
ATOM      6  C   UNL     1      -2.595   6.754  -5.211  0.00  0.00    +0.042 C 
ATOM      7  C   UNL     1      -0.984   6.905  -5.714  0.00  0.00    +0.039 C 
ATOM      8  C   UNL     1      -0.360   7.023  -4.184  0.00  0.00    +0.069 C 
ATOM      9  C   UNL     1      -0.697   5.744  -3.301  0.00  0.00    +0.151 C 
ATOM     10  O   UNL     1      -0.029   5.342  -2.373  0.00  0.00    -0.296 OA
ATOM     11  C   UNL     1      -2.021   5.072  -3.305  0.00  0.00    +0.065 C 
ATOM     12  C   UNL     1      -2.558   5.217  -4.694  0.00  0.00    +0.012 C 
ATOM     13  C   UNL     1      -2.949   7.205  -2.774  0.00  0.00    +0.044 C 
ATOM     14  C   UNL     1      -1.931   8.875  -4.072  0.00  0.00    +0.044 C 
ATOM     15  C   UNL     1      -0.580   5.403  -5.819  0.00  0.00    +0.051 A 
ATOM     16  C   UNL     1       0.223   4.876  -6.752  0.00  0.00    +0.194 A 
ATOM     17  O   UNL     1      -0.230   5.188  -8.045  0.00  0.00    -0.287 OA
ATOM     18  C   UNL     1       1.556   4.525  -6.478  0.00  0.00    +0.038 A 
ENDROOT
BRANCH   1  19
ATOM     19  C   UNL     1       3.507   5.681  -5.216  0.00  0.00    +0.019 C 
ATOM     20  C   UNL     1       4.599   4.889  -4.501  0.00  0.00    +0.004 C 
ATOM     21  C   UNL     1       3.997   5.978  -6.592  0.00  0.00    +0.004 C 
BRANCH  19  22
ATOM     22  C   UNL     1       3.233   6.895  -4.409  0.00  0.00    +0.004 C 
BRANCH  22  23
ATOM     23  C   UNL     1       4.526   7.333  -3.806  0.00  0.00    +0.000 C 
BRANCH  23  24
ATOM     24  C   UNL     1       4.249   7.983  -2.457  0.00  0.00    +0.000 C 
BRANCH  24  25
ATOM     25  C   UNL     1       3.287   7.063  -1.754  0.00  0.00    +0.000 C 
BRANCH  25  27
ATOM     26  C   UNL     1       3.367   4.958  -1.093  0.00  0.00    +0.000 C 
ATOM     27  C   UNL     1       3.996   5.980  -0.953  0.00  0.00    +0.000 C 
ENDBRANCH  25  27
ENDBRANCH  24  25
ENDBRANCH  23  24
ENDBRANCH  22  23
ENDBRANCH  19  22
ENDBRANCH   1  19
TORSDOF 6
ENDMDL
MODEL 4
REMARK VINA RESULT:      -8.2      2.578      4.514
REMARK  Name = 
REMARK  6 active torsions:
REMARK  status: ('A' for Active; 'I' for Inactive)
REMARK    1  A    between atoms: C_2  and  C_3
REMARK    2  A    between atoms: C_3  and  C_4
REMARK    3  A    between atoms: C_4  and  C_5
REMARK    4  A    between atoms: C_5  and  C_6
REMARK    5  A    between atoms: C_6  and  C_7
REMARK    6  A    between atoms: C_7  and  C_10
REMARK                            x       y       z     vdW  Elec       q    Type
REMARK                         _______ _______ _______ _____ _____    ______ ____
ROOT
ATOM      1  C   UNL     1       1.997   4.781  -5.203  0.00  0.00    -0.017 A 
ATOM      2  C   UNL     1       1.118   5.235  -4.422  0.00  0.00    +0.032 A 
ATOM      3  C   UNL     1      -0.187   5.692  -4.712  0.00  0.00    +0.137 A 
ATOM      4  O   UNL     1      -1.014   6.659  -4.001  0.00  0.00    -0.483 OA
ATOM      5  C   UNL     1      -2.164   7.279  -3.804  0.00  0.00    +0.134 C 
ATOM      6  C   UNL     1      -2.731   6.775  -5.207  0.00  0.00    +0.042 C 
ATOM      7  C   UNL     1      -1.092   6.867  -5.626  0.00  0.00    +0.039 C 
ATOM      8  C   UNL     1      -0.539   6.885  -4.064  0.00  0.00    +0.069 C 
ATOM      9  C   UNL     1      -0.980   5.587  -3.260  0.00  0.00    +0.151 C 
ATOM     10  O   UNL     1      -0.378   5.110  -2.321  0.00  0.00    -0.296 OA
ATOM     11  C   UNL     1      -2.333   4.983  -3.357  0.00  0.00    +0.065 C 
ATOM     12  C   UNL     1      -2.793   5.216  -4.762  0.00  0.00    +0.012 C 
ATOM     13  C   UNL     1      -3.182   7.133  -2.771  0.00  0.00    +0.044 C 
ATOM     14  C   UNL     1      -2.023   8.806  -3.939  0.00  0.00    +0.044 C 
ATOM     15  C   UNL     1      -0.755   5.353  -5.782  0.00  0.00    +0.051 A 
ATOM     16  C   UNL     1       0.067   4.829  -6.700  0.00  0.00    +0.194 A 
ATOM     17  O   UNL     1      -0.306   5.221  -7.997  0.00  0.00    -0.287 OA
ATOM     18  C   UNL     1       1.367   4.400  -6.380  0.00  0.00    +0.038 A 
ENDROOT
BRANCH   1  19
ATOM     19  C   UNL     1       3.306   5.398  -4.975  0.00  0.00    +0.019 C 
ATOM     20  C   UNL     1       3.309   6.586  -4.016  0.00  0.00    +0.004 C 
ATOM     21  C   UNL     1       4.194   4.351  -4.395  0.00  0.00    +0.004 C 
BRANCH  19  22
ATOM     22  C   UNL     1       3.758   5.892  -6.299  0.00  0.00    +0.004 C 
BRANCH  22  23
ATOM     23  C   UNL     1       3.174   7.251  -6.493  0.00  0.00    +0.000 C 
BRANCH  23  24
ATOM     24  C   UNL     1       2.729   7.397  -7.943  0.00  0.00    +0.000 C 
BRANCH  24  25
ATOM     25  C   UNL     1       3.351   6.240  -8.676  0.00  0.00    +0.000 C 
BRANCH  25  27
ATOM     26  C   UNL     1       5.121   6.288  -9.996  0.00  0.00    +0.000 C 
ATOM     27  C   UNL     1       3.969   6.655 -10.004  0.00  0.00    +0.000 C 
ENDBRANCH  25  27
ENDBRANCH  24  25
ENDBRANCH  23  24
ENDBRANCH  22  23
ENDBRANCH  19  22
ENDBRANCH   1  19
TORSDOF 6
ENDMDL
MODEL 5
REMARK VINA RESULT:      -7.8      4.208      7.967
REMARK  Name = 
REMARK  6 active torsions:
REMARK  status: ('A' for Active; 'I' for Inactive)
REMARK    1  A    between atoms: C_2  and  C_3
REMARK    2  A    between atoms: C_3  and  C_4
REMARK    3  A    between atoms: C_4  and  C_5
REMARK    4  A    between atoms: C_5  and  C_6
REMARK    5  A    between atoms: C_6  and  C_7
REMARK    6  A    between atoms: C_7  and  C_10
REMARK                            x       y       z     vdW  Elec       q    Type
REMARK                         _______ _______ _______ _____ _____    ______ ____
ROOT
ATOM      1  C   UNL     1       2.221   5.256  -9.562  0.00  0.00    -0.017 A 
ATOM      2  C   UNL     1       2.886   5.760 -10.507  0.00  0.00    +0.032 A 
ATOM      3  C   UNL     1       4.285   5.892 -10.644  0.00  0.00    +0.137 A 
ATOM      4  O   UNL     1       5.058   6.868 -11.402  0.00  0.00    -0.483 OA
ATOM      5  C   UNL     1       6.201   7.319 -11.888  0.00  0.00    +0.134 C 
ATOM      6  C   UNL     1       7.041   6.352 -10.938  0.00  0.00    +0.042 C 
ATOM      7  C   UNL     1       5.707   6.594  -9.921  0.00  0.00    +0.039 C 
ATOM      8  C   UNL     1       4.703   7.143 -11.120  0.00  0.00    +0.069 C 
ATOM      9  C   UNL     1       4.512   6.071 -12.278  0.00  0.00    +0.151 C 
ATOM     10  O   UNL     1       3.538   5.986 -12.995  0.00  0.00    -0.296 OA
ATOM     11  C   UNL     1       5.621   5.247 -12.823  0.00  0.00    +0.065 C 
ATOM     12  C   UNL     1       6.554   4.995 -11.680  0.00  0.00    +0.012 C 
ATOM     13  C   UNL     1       6.758   7.303 -13.236  0.00  0.00    +0.044 C 
ATOM     14  C   UNL     1       6.508   8.747 -11.402  0.00  0.00    +0.044 C 
ATOM     15  C   UNL     1       5.062   5.175  -9.961  0.00  0.00    +0.051 A 
ATOM     16  C   UNL     1       4.475   4.557  -8.929  0.00  0.00    +0.194 A 
ATOM     17  O   UNL     1       5.334   4.500  -7.818  0.00  0.00    -0.287 OA
ATOM     18  C   UNL     1       3.077   4.459  -8.814  0.00  0.00    +0.038 A 
ENDROOT
BRANCH   1  19
ATOM     19  C   UNL     1       1.113   6.122  -9.148  0.00  0.00    +0.019 C 
ATOM     20  C   UNL     1       1.460   7.162  -8.087  0.00  0.00    +0.004 C 
ATOM     21  C   UNL     1       0.647   6.853 -10.360  0.00  0.00    +0.004 C 
BRANCH  19  22
ATOM     22  C   UNL     1       0.088   5.218  -8.570  0.00  0.00    +0.004 C 
BRANCH  22  23
ATOM     23  C   UNL     1      -0.144   5.649  -7.160  0.00  0.00    +0.000 C 
BRANCH  23  24
ATOM     24  C   UNL     1      -1.423   4.998  -6.647  0.00  0.00    +0.000 C 
BRANCH  24  25
ATOM     25  C   UNL     1      -2.347   6.136  -6.306  0.00  0.00    +0.000 C 
BRANCH  25  27
ATOM     26  C   UNL     1      -2.147   7.744  -4.805  0.00  0.00    +0.000 C 
ATOM     27  C   UNL     1      -2.257   6.540  -4.841  0.00  0.00    +0.000 C 
ENDBRANCH  25  27
ENDBRANCH  24  25
ENDBRANCH  23  24
ENDBRANCH  22  23
ENDBRANCH  19  22
ENDBRANCH   1  19
TORSDOF 6
ENDMDL
MODEL 6
REMARK VINA RESULT:      -7.7      2.156      6.450
REMARK  Name = 
REMARK  6 active torsions:
REMARK  status: ('A' for Active; 'I' for Inactive)
REMARK    1  A    between atoms: C_2  and  C_3
REMARK    2  A    between atoms: C_3  and  C_4
REMARK    3  A    between atoms: C_4  and  C_5
REMARK    4  A    between atoms: C_5  and  C_6
REMARK    5  A    between atoms: C_6  and  C_7
REMARK    6  A    between atoms: C_7  and  C_10
REMARK                            x       y       z     vdW  Elec       q    Type
REMARK                         _______ _______ _______ _____ _____    ______ ____
ROOT
ATOM      1  C   UNL     1       2.562   5.570  -3.267  0.00  0.00    -0.017 A 
ATOM      2  C   UNL     1       2.225   5.212  -4.427  0.00  0.00    +0.032 A 
ATOM      3  C   UNL     1       2.672   5.695  -5.677  0.00  0.00    +0.137 A 
ATOM      4  O   UNL     1       1.993   5.707  -6.967  0.00  0.00    -0.483 OA
ATOM      5  C   UNL     1       1.987   5.908  -8.273  0.00  0.00    +0.134 C 
ATOM      6  C   UNL     1       3.371   6.698  -8.206  0.00  0.00    +0.042 C 
ATOM      7  C   UNL     1       2.776   7.119  -6.676  0.00  0.00    +0.039 C 
ATOM      8  C   UNL     1       1.650   5.905  -6.614  0.00  0.00    +0.069 C 
ATOM      9  C   UNL     1       2.316   4.466  -6.732  0.00  0.00    +0.151 C 
ATOM     10  O   UNL     1       1.853   3.444  -6.272  0.00  0.00    -0.296 OA
ATOM     11  C   UNL     1       3.417   4.147  -7.676  0.00  0.00    +0.065 C 
ATOM     12  C   UNL     1       4.239   5.392  -7.793  0.00  0.00    +0.012 C 
ATOM     13  C   UNL     1       1.994   4.981  -9.399  0.00  0.00    +0.044 C 
ATOM     14  C   UNL     1       0.934   6.951  -8.689  0.00  0.00    +0.044 C 
ATOM     15  C   UNL     1       3.759   6.323  -5.764  0.00  0.00    +0.051 A 
ATOM     16  C   UNL     1       4.246   6.745  -4.591  0.00  0.00    +0.194 A 
ATOM     17  O   UNL     1       4.858   8.004  -4.719  0.00  0.00    -0.287 OA
ATOM     18  C   UNL     1       3.766   6.256  -3.363  0.00  0.00    +0.038 A 
ENDROOT
BRANCH   1  19
ATOM     19  C   UNL     1       1.401   5.793  -2.402  0.00  0.00    +0.019 C 
ATOM     20  C   UNL     1       0.935   4.575  -1.609  0.00  0.00    +0.004 C 
ATOM     21  C   UNL     1       1.775   6.851  -1.422  0.00  0.00    +0.004 C 
BRANCH  19  22
ATOM     22  C   UNL     1       0.292   6.188  -3.306  0.00  0.00    +0.004 C 
BRANCH  22  23
ATOM     23  C   UNL     1      -0.951   5.534  -2.802  0.00  0.00    +0.000 C 
BRANCH  23  24
ATOM     24  C   UNL     1      -2.144   6.069  -3.584  0.00  0.00    +0.000 C 
BRANCH  24  25
ATOM     25  C   UNL     1      -1.582   6.566  -4.889  0.00  0.00    +0.000 C 
BRANCH  25  27
ATOM     26  C   UNL     1      -1.732   5.249  -6.656  0.00  0.00    +0.000 C 
ATOM     27  C   UNL     1      -2.389   6.091  -6.089  0.00  0.00    +0.000 C 
ENDBRANCH  25  27
ENDBRANCH  24  25
ENDBRANCH  23  24
ENDBRANCH  22  23
ENDBRANCH  19  22
ENDBRANCH   1  19
TORSDOF 6
ENDMDL
MODEL 7
REMARK VINA RESULT:      -7.6      1.771      2.821
REMARK  Name = 
REMARK  6 active torsions:
REMARK  status: ('A' for Active; 'I' for Inactive)
REMARK    1  A    between atoms: C_2  and  C_3
REMARK    2  A    between atoms: C_3  and  C_4
REMARK    3  A    between atoms: C_4  and  C_5
REMARK    4  A    between atoms: C_5  and  C_6
REMARK    5  A    between atoms: C_6  and  C_7
REMARK    6  A    between atoms: C_7  and  C_10
REMARK                            x       y       z     vdW  Elec       q    Type
REMARK                         _______ _______ _______ _____ _____    ______ ____
ROOT
ATOM      1  C   UNL     1       2.228   5.058  -6.263  0.00  0.00    -0.017 A 
ATOM      2  C   UNL     1       3.025   5.354  -5.333  0.00  0.00    +0.032 A 
ATOM      3  C   UNL     1       2.746   5.721  -3.998  0.00  0.00    +0.137 A 
ATOM      4  O   UNL     1       3.525   6.537  -3.075  0.00  0.00    -0.483 OA
ATOM      5  C   UNL     1       3.751   7.032  -1.870  0.00  0.00    +0.134 C 
ATOM      6  C   UNL     1       2.291   6.622  -1.377  0.00  0.00    +0.042 C 
ATOM      7  C   UNL     1       1.927   6.898  -3.009  0.00  0.00    +0.039 C 
ATOM      8  C   UNL     1       3.497   6.809  -3.529  0.00  0.00    +0.069 C 
ATOM      9  C   UNL     1       4.160   5.404  -3.191  0.00  0.00    +0.151 C 
ATOM     10  O   UNL     1       5.063   4.891  -3.815  0.00  0.00    -0.296 OA
ATOM     11  C   UNL     1       3.967   4.697  -1.899  0.00  0.00    +0.065 C 
ATOM     12  C   UNL     1       2.580   5.028  -1.446  0.00  0.00    +0.012 C 
ATOM     13  C   UNL     1       4.737   6.696  -0.851  0.00  0.00    +0.044 C 
ATOM     14  C   UNL     1       3.769   8.572  -1.877  0.00  0.00    +0.044 C 
ATOM     15  C   UNL     1       1.633   5.443  -3.481  0.00  0.00    +0.051 A 
ATOM     16  C   UNL     1       0.691   5.085  -4.363  0.00  0.00    +0.194 A 
ATOM     17  O   UNL     1      -0.571   5.571  -3.981  0.00  0.00    -0.287 OA
ATOM     18  C   UNL     1       1.002   4.742  -5.691  0.00  0.00    +0.038 A 
ENDROOT
BRANCH   1  19
ATOM     19  C   UNL     1       2.550   5.761  -7.507  0.00  0.00    +0.019 C 
ATOM     20  C   UNL     1       2.178   7.240  -7.535  0.00  0.00    +0.004 C 
ATOM     21  C   UNL     1       4.025   5.665  -7.700  0.00  0.00    +0.004 C 
BRANCH  19  22
ATOM     22  C   UNL     1       1.768   5.082  -8.570  0.00  0.00    +0.004 C 
BRANCH  22  23
ATOM     23  C   UNL     1       0.656   5.997  -8.961  0.00  0.00    +0.000 C 
BRANCH  23  24
ATOM     24  C   UNL     1       0.189   5.638 -10.366  0.00  0.00    +0.000 C 
BRANCH  24  25
ATOM     25  C   UNL     1      -0.073   6.951 -11.053  0.00  0.00    +0.000 C 
BRANCH  25  27
ATOM     26  C   UNL     1       1.539   6.531 -12.504  0.00  0.00    +0.000 C 
ATOM     27  C   UNL     1       0.408   6.958 -12.498  0.00  0.00    +0.000 C 
ENDBRANCH  25  27
ENDBRANCH  24  25
ENDBRANCH  23  24
ENDBRANCH  22  23
ENDBRANCH  19  22
ENDBRANCH   1  19
TORSDOF 6
ENDMDL
MODEL 8
REMARK VINA RESULT:      -7.6      2.795      7.384
REMARK  Name = 
REMARK  6 active torsions:
REMARK  status: ('A' for Active; 'I' for Inactive)
REMARK    1  A    between atoms: C_2  and  C_3
REMARK    2  A    between atoms: C_3  and  C_4
REMARK    3  A    between atoms: C_4  and  C_5
REMARK    4  A    between atoms: C_5  and  C_6
REMARK    5  A    between atoms: C_6  and  C_7
REMARK    6  A    between atoms: C_7  and  C_10
REMARK                            x       y       z     vdW  Elec       q    Type
REMARK                         _______ _______ _______ _____ _____    ______ ____
ROOT
ATOM      1  C   UNL     1      -0.810   5.914  -3.194  0.00  0.00    -0.017 A 
ATOM      2  C   UNL     1      -0.410   5.738  -4.376  0.00  0.00    +0.032 A 
ATOM      3  C   UNL     1       0.902   5.801  -4.894  0.00  0.00    +0.137 A 
ATOM      4  O   UNL     1       1.356   6.114  -6.244  0.00  0.00    -0.483 OA
ATOM      5  C   UNL     1       2.307   6.199  -7.158  0.00  0.00    +0.134 C 
ATOM      6  C   UNL     1       3.448   6.065  -6.052  0.00  0.00    +0.042 C 
ATOM      7  C   UNL     1       2.281   6.846  -5.103  0.00  0.00    +0.039 C 
ATOM      8  C   UNL     1       1.012   6.494  -6.109  0.00  0.00    +0.069 C 
ATOM      9  C   UNL     1       0.819   4.928  -6.302  0.00  0.00    +0.151 C 
ATOM     10  O   UNL     1      -0.231   4.382  -6.567  0.00  0.00    -0.296 OA
ATOM     11  C   UNL     1       1.947   3.980  -6.488  0.00  0.00    +0.065 C 
ATOM     12  C   UNL     1       3.087   4.527  -5.687  0.00  0.00    +0.012 C 
ATOM     13  C   UNL     1       2.625   5.364  -8.309  0.00  0.00    +0.044 C 
ATOM     14  C   UNL     1       2.438   7.627  -7.718  0.00  0.00    +0.044 C 
ATOM     15  C   UNL     1       1.894   5.693  -4.128  0.00  0.00    +0.051 A 
ATOM     16  C   UNL     1       1.604   5.837  -2.829  0.00  0.00    +0.194 A 
ATOM     17  O   UNL     1       2.633   6.513  -2.152  0.00  0.00    -0.287 OA
ATOM     18  C   UNL     1       0.284   5.786  -2.349  0.00  0.00    +0.038 A 
ENDROOT
BRANCH   1  19
ATOM     19  C   UNL     1      -1.967   6.812  -3.134  0.00  0.00    +0.019 C 
ATOM     20  C   UNL     1      -2.071   7.819  -4.276  0.00  0.00    +0.004 C 
ATOM     21  C   UNL     1      -3.190   5.961  -3.172  0.00  0.00    +0.004 C 
BRANCH  19  22
ATOM     22  C   UNL     1      -1.818   7.580  -1.873  0.00  0.00    +0.004 C 
BRANCH  22  23
ATOM     23  C   UNL     1      -2.581   6.854  -0.815  0.00  0.00    +0.000 C 
BRANCH  23  24
ATOM     24  C   UNL     1      -1.863   7.024   0.518  0.00  0.00    +0.000 C 
BRANCH  24  25
ATOM     25  C   UNL     1      -1.074   8.300   0.393  0.00  0.00    +0.000 C 
BRANCH  25  27
ATOM     26  C   UNL     1       0.936   7.501   0.837  0.00  0.00    +0.000 C 
ATOM     27  C   UNL     1       0.159   8.312   1.285  0.00  0.00    +0.000 C 
ENDBRANCH  25  27
ENDBRANCH  24  25
ENDBRANCH  23  24
ENDBRANCH  22  23
ENDBRANCH  19  22
ENDBRANCH   1  19
TORSDOF 6
ENDMDL
MODEL 9
REMARK VINA RESULT:      -7.5      2.592      6.673
REMARK  Name = 
REMARK  6 active torsions:
REMARK  status: ('A' for Active; 'I' for Inactive)
REMARK    1  A    between atoms: C_2  and  C_3
REMARK    2  A    between atoms: C_3  and  C_4
REMARK    3  A    between atoms: C_4  and  C_5
REMARK    4  A    between atoms: C_5  and  C_6
REMARK    5  A    between atoms: C_6  and  C_7
REMARK    6  A    between atoms: C_7  and  C_10
REMARK                            x       y       z     vdW  Elec       q    Type
REMARK                         _______ _______ _______ _____ _____    ______ ____
ROOT
ATOM      1  C   UNL     1      -1.330   6.914  -3.421  0.00  0.00    -0.017 A 
ATOM      2  C   UNL     1      -0.179   6.660  -3.867  0.00  0.00    +0.032 A 
ATOM      3  C   UNL     1       0.203   6.212  -5.151  0.00  0.00    +0.137 A 
ATOM      4  O   UNL     1       1.371   5.439  -5.558  0.00  0.00    -0.483 OA
ATOM      5  C   UNL     1       2.151   4.919  -6.489  0.00  0.00    +0.134 C 
ATOM      6  C   UNL     1       1.050   5.165  -7.617  0.00  0.00    +0.042 C 
ATOM      7  C   UNL     1       0.005   4.921  -6.305  0.00  0.00    +0.039 C 
ATOM      8  C   UNL     1       1.158   5.185  -5.144  0.00  0.00    +0.069 C 
ATOM      9  C   UNL     1       1.804   6.633  -5.261  0.00  0.00    +0.151 C 
ATOM     10  O   UNL     1       2.289   7.257  -4.342  0.00  0.00    -0.296 OA
ATOM     11  C   UNL     1       2.171   7.264  -6.555  0.00  0.00    +0.065 C 
ATOM     12  C   UNL     1       1.166   6.781  -7.554  0.00  0.00    +0.012 C 
ATOM     13  C   UNL     1       3.467   5.308  -6.982  0.00  0.00    +0.044 C 
ATOM     14  C   UNL     1       2.270   3.391  -6.351  0.00  0.00    +0.044 C 
ATOM     15  C   UNL     1      -0.570   6.360  -6.132  0.00  0.00    +0.051 A 
ATOM     16  C   UNL     1      -1.831   6.659  -5.798  0.00  0.00    +0.194 A 
ATOM     17  O   UNL     1      -2.746   6.038  -6.666  0.00  0.00    -0.287 OA
ATOM     18  C   UNL     1      -2.181   7.086  -4.505  0.00  0.00    +0.038 A 
ENDROOT
BRANCH   1  19
ATOM     19  C   UNL     1      -1.560   6.297  -2.112  0.00  0.00    +0.019 C 
ATOM     20  C   UNL     1      -1.894   7.269  -0.983  0.00  0.00    +0.004 C 
ATOM     21  C   UNL     1      -2.713   5.365  -2.259  0.00  0.00    +0.004 C 
BRANCH  19  22
ATOM     22  C   UNL     1      -0.290   5.618  -1.756  0.00  0.00    +0.004 C 
BRANCH  22  23
ATOM     23  C   UNL     1       0.199   6.221  -0.481  0.00  0.00    +0.000 C 
BRANCH  23  24
ATOM     24  C   UNL     1       1.706   6.419  -0.572  0.00  0.00    +0.000 C 
BRANCH  24  25
ATOM     25  C   UNL     1       2.228   5.219  -1.316  0.00  0.00    +0.000 C 
BRANCH  25  27
ATOM     26  C   UNL     1       4.196   6.197  -1.539  0.00  0.00    +0.000 C 
ATOM     27  C   UNL     1       3.746   5.111  -1.256  0.00  0.00    +0.000 C 
ENDBRANCH  25  27
ENDBRANCH  24  25
ENDBRANCH  23  24
ENDBRANCH  22  23
ENDBRANCH  19  22
ENDBRANCH   1  19
TORSDOF 6
ENDMDL
