MODEL 1
REMARK VINA RESULT:      -6.3      0.000      0.000
REMARK  Name = 
REMARK  1 active torsions:
REMARK  status: ('A' for Active; 'I' for Inactive)
REMARK    1  A    between atoms: C_3  and  C_4
REMARK                            x       y       z     vdW  Elec       q    Type
REMARK                         _______ _______ _______ _____ _____    ______ ____
ROOT
ATOM      1  C   UNL     1       2.111   7.625  -7.934  0.00  0.00    +0.020 C 
ATOM      2  C   UNL     1       1.912   6.019  -8.089  0.00  0.00    +0.089 C 
ATOM      3  N   UNL     1       3.443   5.733  -8.032  0.00  0.00    -0.268 NA
ATOM      4  C   UNL     1       3.491   4.395  -8.622  0.00  0.00    +0.090 C 
ATOM      5  C   UNL     1       3.914   5.660  -6.717  0.00  0.00    +0.105 C 
ATOM      6  C   UNL     1       3.536   6.770  -5.788  0.00  0.00    +0.160 C 
ATOM      7  O   UNL     1       2.136   6.901  -5.822  0.00  0.00    -0.349 OA
ATOM      8  C   UNL     1       1.656   5.605  -6.435  0.00  0.00    +0.152 C 
ENDROOT
BRANCH   8   9
ATOM      9  C   UNL     1       0.119   6.070  -6.401  0.00  0.00    +0.006 A 
ATOM     10  C   UNL     1      -0.063   6.977  -5.367  0.00  0.00    -0.002 A 
ATOM     11  C   UNL     1      -1.250   6.963  -4.643  0.00  0.00    -0.000 A 
ATOM     12  C   UNL     1      -2.283   6.221  -5.204  0.00  0.00    -0.000 A 
ATOM     13  C   UNL     1      -2.162   5.695  -6.486  0.00  0.00    -0.000 A 
ATOM     14  C   UNL     1      -0.874   5.320  -6.858  0.00  0.00    -0.002 A 
ENDBRANCH   8   9
TORSDOF 1
ENDMDL
MODEL 2
REMARK VINA RESULT:      -6.3      3.564      6.477
REMARK  Name = 
REMARK  1 active torsions:
REMARK  status: ('A' for Active; 'I' for Inactive)
REMARK    1  A    between atoms: C_3  and  C_4
REMARK                            x       y       z     vdW  Elec       q    Type
REMARK                         _______ _______ _______ _____ _____    ______ ____
ROOT
ATOM      1  C   UNL     1       2.842   7.261  -8.501  0.00  0.00    +0.020 C 
ATOM      2  C   UNL     1       3.450   5.778  -8.224  0.00  0.00    +0.089 C 
ATOM      3  N   UNL     1       2.051   5.094  -8.294  0.00  0.00    -0.268 NA
ATOM      4  C   UNL     1       2.333   3.832  -7.609  0.00  0.00    +0.090 C 
ATOM      5  C   UNL     1       1.671   4.814  -9.610  0.00  0.00    +0.105 C 
ATOM      6  C   UNL     1       1.781   5.921 -10.610  0.00  0.00    +0.160 C 
ATOM      7  O   UNL     1       3.095   6.420 -10.554  0.00  0.00    -0.349 OA
ATOM      8  C   UNL     1       3.873   5.340  -9.838  0.00  0.00    +0.152 C 
ENDROOT
BRANCH   8   9
ATOM      9  C   UNL     1       5.233   6.192  -9.871  0.00  0.00    +0.006 A 
ATOM     10  C   UNL     1       5.150   7.151 -10.869  0.00  0.00    -0.002 A 
ATOM     11  C   UNL     1       6.283   7.475 -11.609  0.00  0.00    -0.000 A 
ATOM     12  C   UNL     1       7.486   7.010 -11.090  0.00  0.00    -0.000 A 
ATOM     13  C   UNL     1       7.535   6.425  -9.829  0.00  0.00    -0.000 A 
ATOM     14  C   UNL     1       6.398   5.713  -9.457  0.00  0.00    -0.002 A 
ENDBRANCH   8   9
TORSDOF 1
ENDMDL
MODEL 3
REMARK VINA RESULT:      -6.0      3.048      6.389
REMARK  Name = 
REMARK  1 active torsions:
REMARK  status: ('A' for Active; 'I' for Inactive)
REMARK    1  A    between atoms: C_3  and  C_4
REMARK                            x       y       z     vdW  Elec       q    Type
REMARK                         _______ _______ _______ _____ _____    ______ ____
ROOT
ATOM      1  C   UNL     1       3.099   4.146  -8.795  0.00  0.00    +0.020 C 
ATOM      2  C   UNL     1       2.788   5.268  -9.931  0.00  0.00    +0.089 C 
ATOM      3  N   UNL     1       1.613   5.893  -9.120  0.00  0.00    -0.268 NA
ATOM      4  C   UNL     1       0.908   6.616 -10.179  0.00  0.00    +0.090 C 
ATOM      5  C   UNL     1       2.065   6.817  -8.171  0.00  0.00    +0.105 C 
ATOM      6  C   UNL     1       3.177   6.389  -7.268  0.00  0.00    +0.160 C 
ATOM      7  O   UNL     1       4.233   5.929  -8.075  0.00  0.00    -0.349 OA
ATOM      8  C   UNL     1       3.918   6.478  -9.448  0.00  0.00    +0.152 C 
ENDROOT
BRANCH   8   9
ATOM      9  C   UNL     1       5.194   5.763 -10.110  0.00  0.00    +0.006 A 
ATOM     10  C   UNL     1       6.198   5.645  -9.161  0.00  0.00    -0.002 A 
ATOM     11  C   UNL     1       7.527   5.794  -9.543  0.00  0.00    -0.000 A 
ATOM     12  C   UNL     1       7.760   5.770 -10.913  0.00  0.00    -0.000 A 
ATOM     13  C   UNL     1       6.741   5.434 -11.799  0.00  0.00    -0.000 A 
ATOM     14  C   UNL     1       5.461   5.816 -11.408  0.00  0.00    -0.002 A 
ENDBRANCH   8   9
TORSDOF 1
ENDMDL
MODEL 4
REMARK VINA RESULT:      -5.9      1.245      2.482
REMARK  Name = 
REMARK  1 active torsions:
REMARK  status: ('A' for Active; 'I' for Inactive)
REMARK    1  A    between atoms: C_3  and  C_4
REMARK                            x       y       z     vdW  Elec       q    Type
REMARK                         _______ _______ _______ _____ _____    ______ ____
ROOT
ATOM      1  C   UNL     1       1.657   3.875  -6.154  0.00  0.00    +0.020 C 
ATOM      2  C   UNL     1       2.206   5.363  -5.797  0.00  0.00    +0.089 C 
ATOM      3  N   UNL     1       3.378   5.273  -6.819  0.00  0.00    -0.268 NA
ATOM      4  C   UNL     1       4.260   6.327  -6.314  0.00  0.00    +0.090 C 
ATOM      5  C   UNL     1       2.972   5.613  -8.114  0.00  0.00    +0.105 C 
ATOM      6  C   UNL     1       1.740   4.950  -8.644  0.00  0.00    +0.160 C 
ATOM      7  O   UNL     1       0.706   5.158  -7.714  0.00  0.00    -0.349 OA
ATOM      8  C   UNL     1       1.206   6.293  -6.849  0.00  0.00    +0.152 C 
ENDROOT
BRANCH   8   9
ATOM      9  C   UNL     1      -0.091   6.245  -5.903  0.00  0.00    +0.006 A 
ATOM     10  C   UNL     1      -1.114   5.579  -6.562  0.00  0.00    -0.002 A 
ATOM     11  C   UNL     1      -2.429   6.002  -6.395  0.00  0.00    -0.000 A 
ATOM     12  C   UNL     1      -2.641   6.891  -5.347  0.00  0.00    -0.000 A 
ATOM     13  C   UNL     1      -1.625   7.171  -4.439  0.00  0.00    -0.000 A 
ATOM     14  C   UNL     1      -0.334   7.146  -4.962  0.00  0.00    -0.002 A 
ENDBRANCH   8   9
TORSDOF 1
ENDMDL
MODEL 5
REMARK VINA RESULT:      -5.8      1.991      3.108
REMARK  Name = 
REMARK  1 active torsions:
REMARK  status: ('A' for Active; 'I' for Inactive)
REMARK    1  A    between atoms: C_3  and  C_4
REMARK                            x       y       z     vdW  Elec       q    Type
REMARK                         _______ _______ _______ _____ _____    ______ ____
ROOT
ATOM      1  C   UNL     1       2.414   3.955  -8.621  0.00  0.00    +0.020 C 
ATOM      2  C   UNL     1       2.785   5.533  -8.489  0.00  0.00    +0.089 C 
ATOM      3  N   UNL     1       3.277   5.633  -9.964  0.00  0.00    -0.268 NA
ATOM      4  C   UNL     1       4.083   6.853  -9.898  0.00  0.00    +0.090 C 
ATOM      5  C   UNL     1       2.220   5.842 -10.856  0.00  0.00    +0.105 C 
ATOM      6  C   UNL     1       1.034   4.937 -10.742  0.00  0.00    +0.160 C 
ATOM      7  O   UNL     1       0.591   4.976  -9.408  0.00  0.00    -0.349 OA
ATOM      8  C   UNL     1       1.240   6.216  -8.836  0.00  0.00    +0.152 C 
ENDROOT
BRANCH   8   9
ATOM      9  C   UNL     1       0.629   5.954  -7.374  0.00  0.00    +0.006 A 
ATOM     10  C   UNL     1      -0.583   5.291  -7.496  0.00  0.00    -0.002 A 
ATOM     11  C   UNL     1      -1.619   5.585  -6.616  0.00  0.00    -0.000 A 
ATOM     12  C   UNL     1      -1.258   6.326  -5.496  0.00  0.00    -0.000 A 
ATOM     13  C   UNL     1       0.081   6.578  -5.215  0.00  0.00    -0.000 A 
ATOM     14  C   UNL     1       0.908   6.716  -6.326  0.00  0.00    -0.002 A 
ENDBRANCH   8   9
TORSDOF 1
ENDMDL
MODEL 6
REMARK VINA RESULT:      -5.7      1.515      1.849
REMARK  Name = 
REMARK  1 active torsions:
REMARK  status: ('A' for Active; 'I' for Inactive)
REMARK    1  A    between atoms: C_3  and  C_4
REMARK                            x       y       z     vdW  Elec       q    Type
REMARK                         _______ _______ _______ _____ _____    ______ ____
ROOT
ATOM      1  C   UNL     1       1.996   6.860  -6.339  0.00  0.00    +0.020 C 
ATOM      2  C   UNL     1       0.951   6.135  -7.351  0.00  0.00    +0.089 C 
ATOM      3  N   UNL     1       2.060   5.264  -8.015  0.00  0.00    -0.268 NA
ATOM      4  C   UNL     1       1.396   4.885  -9.263  0.00  0.00    +0.090 C 
ATOM      5  C   UNL     1       2.324   4.104  -7.279  0.00  0.00    +0.105 C 
ATOM      6  C   UNL     1       2.565   4.260  -5.811  0.00  0.00    +0.160 C 
ATOM      7  O   UNL     1       1.479   4.969  -5.271  0.00  0.00    -0.349 OA
ATOM      8  C   UNL     1       0.402   4.862  -6.326  0.00  0.00    +0.152 C 
ENDROOT
BRANCH   8   9
ATOM      9  C   UNL     1      -0.618   5.776  -5.488  0.00  0.00    +0.006 A 
ATOM     10  C   UNL     1      -0.431   5.547  -4.132  0.00  0.00    -0.002 A 
ATOM     11  C   UNL     1      -1.526   5.554  -3.276  0.00  0.00    -0.000 A 
ATOM     12  C   UNL     1      -2.699   6.076  -3.812  0.00  0.00    -0.000 A 
ATOM     13  C   UNL     1      -2.692   6.704  -5.052  0.00  0.00    -0.000 A 
ATOM     14  C   UNL     1      -1.777   6.199  -5.972  0.00  0.00    -0.002 A 
ENDBRANCH   8   9
TORSDOF 1
ENDMDL
MODEL 7
REMARK VINA RESULT:      -5.6      2.884      5.261
REMARK  Name = 
REMARK  1 active torsions:
REMARK  status: ('A' for Active; 'I' for Inactive)
REMARK    1  A    between atoms: C_3  and  C_4
REMARK                            x       y       z     vdW  Elec       q    Type
REMARK                         _______ _______ _______ _____ _____    ______ ____
ROOT
ATOM      1  C   UNL     1      -2.079   7.793  -4.056  0.00  0.00    +0.020 C 
ATOM      2  C   UNL     1      -0.754   7.029  -3.504  0.00  0.00    +0.089 C 
ATOM      3  N   UNL     1      -1.488   6.475  -2.246  0.00  0.00    -0.268 NA
ATOM      4  C   UNL     1      -0.347   6.151  -1.388  0.00  0.00    +0.090 C 
ATOM      5  C   UNL     1      -2.187   5.296  -2.525  0.00  0.00    +0.105 C 
ATOM      6  C   UNL     1      -3.087   5.296  -3.720  0.00  0.00    +0.160 C 
ATOM      7  O   UNL     1      -2.329   5.714  -4.828  0.00  0.00    -0.349 OA
ATOM      8  C   UNL     1      -0.894   5.551  -4.381  0.00  0.00    +0.152 C 
ENDROOT
BRANCH   8   9
ATOM      9  C   UNL     1      -0.318   6.141  -5.759  0.00  0.00    +0.006 A 
ATOM     10  C   UNL     1      -1.050   5.627  -6.819  0.00  0.00    -0.002 A 
ATOM     11  C   UNL     1      -0.408   5.326  -8.016  0.00  0.00    -0.000 A 
ATOM     12  C   UNL     1       0.879   5.836  -8.147  0.00  0.00    -0.000 A 
ATOM     13  C   UNL     1       1.386   6.730  -7.210  0.00  0.00    -0.000 A 
ATOM     14  C   UNL     1       0.937   6.544  -5.905  0.00  0.00    -0.002 A 
ENDBRANCH   8   9
TORSDOF 1
ENDMDL
MODEL 8
REMARK VINA RESULT:      -5.6      2.652      5.733
REMARK  Name = 
REMARK  1 active torsions:
REMARK  status: ('A' for Active; 'I' for Inactive)
REMARK    1  A    between atoms: C_3  and  C_4
REMARK                            x       y       z     vdW  Elec       q    Type
REMARK                         _______ _______ _______ _____ _____    ______ ____
ROOT
ATOM      1  C   UNL     1       2.847   7.195  -7.225  0.00  0.00    +0.020 C 
ATOM      2  C   UNL     1       3.836   6.040  -6.650  0.00  0.00    +0.089 C 
ATOM      3  N   UNL     1       2.729   5.413  -5.752  0.00  0.00    -0.268 NA
ATOM      4  C   UNL     1       3.546   4.651  -4.807  0.00  0.00    +0.090 C 
ATOM      5  C   UNL     1       1.920   4.521  -6.464  0.00  0.00    +0.105 C 
ATOM      6  C   UNL     1       1.356   4.993  -7.767  0.00  0.00    +0.160 C 
ATOM      7  O   UNL     1       2.425   5.453  -8.556  0.00  0.00    -0.349 OA
ATOM      8  C   UNL     1       3.653   4.865  -7.898  0.00  0.00    +0.152 C 
ENDROOT
BRANCH   8   9
ATOM      9  C   UNL     1       4.647   5.588  -8.931  0.00  0.00    +0.006 A 
ATOM     10  C   UNL     1       4.017   5.716 -10.161  0.00  0.00    -0.002 A 
ATOM     11  C   UNL     1       4.757   5.576 -11.330  0.00  0.00    -0.000 A 
ATOM     12  C   UNL     1       6.137   5.600 -11.169  0.00  0.00    -0.000 A 
ATOM     13  C   UNL     1       6.702   5.926  -9.940  0.00  0.00    -0.000 A 
ATOM     14  C   UNL     1       5.967   5.535  -8.824  0.00  0.00    -0.002 A 
ENDBRANCH   8   9
TORSDOF 1
ENDMDL
MODEL 9
REMARK VINA RESULT:      -5.6      2.134      5.065
REMARK  Name = 
REMARK  1 active torsions:
REMARK  status: ('A' for Active; 'I' for Inactive)
REMARK    1  A    between atoms: C_3  and  C_4
REMARK                            x       y       z     vdW  Elec       q    Type
REMARK                         _______ _______ _______ _____ _____    ______ ____
ROOT
ATOM      1  C   UNL     1       2.118   3.915  -6.411  0.00  0.00    +0.020 C 
ATOM      2  C   UNL     1       1.689   5.479  -6.534  0.00  0.00    +0.089 C 
ATOM      3  N   UNL     1       1.366   5.603  -5.015  0.00  0.00    -0.268 NA
ATOM      4  C   UNL     1       0.524   6.799  -5.013  0.00  0.00    +0.090 C 
ATOM      5  C   UNL     1       2.512   5.861  -4.255  0.00  0.00    +0.105 C 
ATOM      6  C   UNL     1       3.703   4.985  -4.486  0.00  0.00    +0.160 C 
ATOM      7  O   UNL     1       3.988   5.003  -5.862  0.00  0.00    -0.349 OA
ATOM      8  C   UNL     1       3.243   6.210  -6.382  0.00  0.00    +0.152 C 
ENDROOT
BRANCH   8   9
ATOM      9  C   UNL     1       3.689   5.928  -7.899  0.00  0.00    +0.006 A 
ATOM     10  C   UNL     1       4.892   5.238  -7.902  0.00  0.00    -0.002 A 
ATOM     11  C   UNL     1       5.835   5.504  -8.889  0.00  0.00    -0.000 A 
ATOM     12  C   UNL     1       5.374   6.248  -9.969  0.00  0.00    -0.000 A 
ATOM     13  C   UNL     1       4.019   6.530 -10.109  0.00  0.00    -0.000 A 
ATOM     14  C   UNL     1       3.318   6.692  -8.917  0.00  0.00    -0.002 A 
ENDBRANCH   8   9
TORSDOF 1
ENDMDL
