MODEL 1
REMARK VINA RESULT:     -10.3      0.000      0.000
REMARK  Name = 
REMARK  5 active torsions:
REMARK  status: ('A' for Active; 'I' for Inactive)
REMARK    1  A    between atoms: N_4  and  C_5
REMARK    2  A    between atoms: C_9  and  N_10
REMARK    3  A    between atoms: N_13  and  C_14
REMARK    4  A    between atoms: C_20  and  N_21
REMARK    5  A    between atoms: N_21  and  C_22
REMARK                            x       y       z     vdW  Elec       q    Type
REMARK                         _______ _______ _______ _____ _____    ______ ____
ROOT
ATOM      1  N   UNL     1       1.751   6.363  -6.372  0.00  0.00    -0.260 N 
ATOM      2  C   UNL     1       0.598   6.181  -5.700  0.00  0.00    +0.076 A 
ATOM      3  C   UNL     1       0.492   6.288  -4.334  0.00  0.00    +0.104 A 
ATOM      4  C   UNL     1      -0.653   5.929  -3.633  0.00  0.00    +0.141 A 
ATOM      5  N   UNL     1      -1.683   5.482  -4.391  0.00  0.00    -0.281 N 
ATOM      6  C   UNL     1      -1.709   5.745  -5.718  0.00  0.00    +0.259 A 
ATOM      7  O   UNL     1      -2.804   5.845  -6.345  0.00  0.00    -0.267 OA
ATOM      8  C   UNL     1      -2.927   5.011  -3.805  0.00  0.00    +0.135 C 
ATOM      9  C   UNL     1       1.655   6.515  -3.621  0.00  0.00    +0.268 A 
ATOM     10  O   UNL     1       1.737   6.380  -2.373  0.00  0.00    -0.267 OA
ATOM     11  N   UNL     1       2.690   7.023  -4.331  0.00  0.00    -0.250 N 
ATOM     12  C   UNL     1      -0.569   6.055  -6.420  0.00  0.00    +0.051 A 
ATOM     13  C   UNL     1      -0.481   5.975  -7.892  0.00  0.00    +0.038 C 
ATOM     14  C   UNL     1       2.818   6.798  -5.660  0.00  0.00    +0.338 A 
ATOM     15  O   UNL     1       3.969   6.639  -6.167  0.00  0.00    -0.246 OA
ENDROOT
BRANCH   1  18
ATOM     16  C   UNL     1       2.940   5.835  -9.806  0.00  0.00    +0.075 A 
ATOM     17  C   UNL     1       2.473   6.414  -8.632  0.00  0.00    +0.034 A 
ATOM     18  C   UNL     1       1.931   5.645  -7.603  0.00  0.00    +0.069 A 
ATOM     19  C   UNL     1       2.568   4.416  -7.452  0.00  0.00    +0.018 A 
ATOM     20  C   UNL     1       3.333   3.863  -8.471  0.00  0.00    +0.003 A 
ATOM     21  C   UNL     1       3.504   4.573  -9.654  0.00  0.00    +0.017 A 
BRANCH  16  24
ATOM     22  C   UNL     1       0.341   6.936 -12.278  0.00  0.00    +0.097 C 
ATOM     23  C   UNL     1       1.233   5.951 -11.606  0.00  0.00    +0.246 C 
ATOM     24  N   UNL     1       2.520   6.290 -11.099  0.00  0.00    -0.179 NA
ATOM     25  O   UNL     1       0.650   4.985 -11.027  0.00  0.00    -0.273 OA
ENDBRANCH  16  24
ENDBRANCH   1  18
BRANCH  11  26
ATOM     26  C   UNL     1       3.719   7.792  -3.669  0.00  0.00    +0.093 C 
ATOM     27  C   UNL     1       4.767   6.999  -2.890  0.00  0.00    +0.025 C 
ATOM     28  C   UNL     1       5.127   7.724  -4.153  0.00  0.00    +0.025 C 
ENDBRANCH  11  26
BRANCH   4  29
ATOM     29  N   UNL     1      -0.508   5.350  -2.354  0.00  0.00    -0.193 NA
BRANCH  29  30
ATOM     30  C   UNL     1      -0.792   5.992  -1.131  0.00  0.00    +0.099 A 
ATOM     31  C   UNL     1      -1.804   6.931  -0.973  0.00  0.00    +0.156 A 
ATOM     32  F   UNL     1      -2.637   7.087  -2.043  0.00  0.00    -0.203 F 
ATOM     33  C   UNL     1      -1.573   8.081  -0.228  0.00  0.00    +0.037 A 
ATOM     34  C   UNL     1      -0.758   7.976   0.867  0.00  0.00    +0.032 A 
ATOM     35  I   UNL     1      -0.526   9.587   2.209  0.00  0.00    -0.042 I 
ATOM     36  C   UNL     1       0.160   6.934   0.872  0.00  0.00    +0.007 A 
ATOM     37  C   UNL     1       0.257   6.091  -0.226  0.00  0.00    +0.019 A 
ENDBRANCH  29  30
ENDBRANCH   4  29
TORSDOF 5
ENDMDL
MODEL 2
REMARK VINA RESULT:     -10.3      3.847      6.033
REMARK  Name = 
REMARK  5 active torsions:
REMARK  status: ('A' for Active; 'I' for Inactive)
REMARK    1  A    between atoms: N_4  and  C_5
REMARK    2  A    between atoms: C_9  and  N_10
REMARK    3  A    between atoms: N_13  and  C_14
REMARK    4  A    between atoms: C_20  and  N_21
REMARK    5  A    between atoms: N_21  and  C_22
REMARK                            x       y       z     vdW  Elec       q    Type
REMARK                         _______ _______ _______ _____ _____    ______ ____
ROOT
ATOM      1  N   UNL     1       2.671   6.396 -11.317  0.00  0.00    -0.260 N 
ATOM      2  C   UNL     1       2.445   6.354  -9.990  0.00  0.00    +0.076 A 
ATOM      3  C   UNL     1       3.440   6.197  -9.056  0.00  0.00    +0.104 A 
ATOM      4  C   UNL     1       3.186   5.978  -7.707  0.00  0.00    +0.141 A 
ATOM      5  N   UNL     1       1.877   5.953  -7.359  0.00  0.00    -0.281 N 
ATOM      6  C   UNL     1       0.947   6.485  -8.186  0.00  0.00    +0.259 A 
ATOM      7  O   UNL     1      -0.133   6.968  -7.735  0.00  0.00    -0.267 OA
ATOM      8  C   UNL     1       1.444   5.676  -5.999  0.00  0.00    +0.135 C 
ATOM      9  C   UNL     1       4.725   5.991  -9.523  0.00  0.00    +0.268 A 
ATOM     10  O   UNL     1       5.667   5.585  -8.797  0.00  0.00    -0.267 OA
ATOM     11  N   UNL     1       4.955   6.378 -10.801  0.00  0.00    -0.250 N 
ATOM     12  C   UNL     1       1.183   6.658  -9.529  0.00  0.00    +0.051 A 
ATOM     13  C   UNL     1       0.105   6.867 -10.517  0.00  0.00    +0.038 C 
ATOM     14  C   UNL     1       3.963   6.410 -11.722  0.00  0.00    +0.338 A 
ATOM     15  O   UNL     1       4.207   6.095 -12.926  0.00  0.00    -0.246 OA
ENDROOT
BRANCH   1  18
ATOM     16  C   UNL     1       0.735   6.209 -14.433  0.00  0.00    +0.075 A 
ATOM     17  C   UNL     1       1.512   6.659 -13.371  0.00  0.00    +0.034 A 
ATOM     18  C   UNL     1       1.631   5.928 -12.190  0.00  0.00    +0.069 A 
ATOM     19  C   UNL     1       1.651   4.552 -12.405  0.00  0.00    +0.018 A 
ATOM     20  C   UNL     1       1.172   3.993 -13.583  0.00  0.00    +0.003 A 
ATOM     21  C   UNL     1       0.701   4.828 -14.589  0.00  0.00    +0.017 A 
BRANCH  16  24
ATOM     22  C   UNL     1      -1.432   7.233 -17.319  0.00  0.00    +0.097 C 
ATOM     23  C   UNL     1      -0.222   7.291 -16.452  0.00  0.00    +0.246 C 
ATOM     24  N   UNL     1      -0.260   7.035 -15.051  0.00  0.00    -0.179 NA
ATOM     25  O   UNL     1       0.880   7.046 -17.027  0.00  0.00    -0.273 OA
ENDBRANCH  16  24
ENDBRANCH   1  18
BRANCH  11  26
ATOM     26  C   UNL     1       6.291   6.730 -11.226  0.00  0.00    +0.093 C 
ATOM     27  C   UNL     1       6.555   8.212 -11.482  0.00  0.00    +0.025 C 
ATOM     28  C   UNL     1       7.181   7.505 -10.316  0.00  0.00    +0.025 C 
ENDBRANCH  11  26
BRANCH   4  29
ATOM     29  N   UNL     1       4.051   5.129  -6.986  0.00  0.00    -0.193 NA
BRANCH  29  30
ATOM     30  C   UNL     1       4.565   5.390  -5.699  0.00  0.00    +0.099 A 
ATOM     31  C   UNL     1       4.337   4.571  -4.600  0.00  0.00    +0.156 A 
ATOM     32  F   UNL     1       3.715   3.386  -4.865  0.00  0.00    -0.203 F 
ATOM     33  C   UNL     1       4.040   5.135  -3.365  0.00  0.00    +0.037 A 
ATOM     34  C   UNL     1       4.652   6.315  -3.040  0.00  0.00    +0.032 A 
ATOM     35  I   UNL     1       4.470   7.141  -1.108  0.00  0.00    -0.042 I 
ATOM     36  C   UNL     1       5.088   7.110  -4.093  0.00  0.00    +0.007 A 
ATOM     37  C   UNL     1       4.845   6.718  -5.402  0.00  0.00    +0.019 A 
ENDBRANCH  29  30
ENDBRANCH   4  29
TORSDOF 5
ENDMDL
MODEL 3
REMARK VINA RESULT:     -10.3      3.489      8.494
REMARK  Name = 
REMARK  5 active torsions:
REMARK  status: ('A' for Active; 'I' for Inactive)
REMARK    1  A    between atoms: N_4  and  C_5
REMARK    2  A    between atoms: C_9  and  N_10
REMARK    3  A    between atoms: N_13  and  C_14
REMARK    4  A    between atoms: C_20  and  N_21
REMARK    5  A    between atoms: N_21  and  C_22
REMARK                            x       y       z     vdW  Elec       q    Type
REMARK                         _______ _______ _______ _____ _____    ______ ____
ROOT
ATOM      1  N   UNL     1       0.192   6.365  -0.748  0.00  0.00    -0.260 N 
ATOM      2  C   UNL     1      -0.282   6.184  -1.995  0.00  0.00    +0.076 A 
ATOM      3  C   UNL     1       0.511   6.205  -3.118  0.00  0.00    +0.104 A 
ATOM      4  C   UNL     1      -0.003   6.193  -4.409  0.00  0.00    +0.141 A 
ATOM      5  N   UNL     1      -1.354   6.133  -4.496  0.00  0.00    -0.281 N 
ATOM      6  C   UNL     1      -2.082   5.726  -3.432  0.00  0.00    +0.259 A 
ATOM      7  O   UNL     1      -3.202   5.153  -3.583  0.00  0.00    -0.267 OA
ATOM      8  C   UNL     1      -2.049   6.174  -5.773  0.00  0.00    +0.135 C 
ATOM      9  C   UNL     1       1.849   6.512  -2.947  0.00  0.00    +0.268 A 
ATOM     10  O   UNL     1       2.615   6.813  -3.897  0.00  0.00    -0.267 OA
ATOM     11  N   UNL     1       2.334   6.346  -1.693  0.00  0.00    -0.250 N 
ATOM     12  C   UNL     1      -1.590   5.781  -2.150  0.00  0.00    +0.051 A 
ATOM     13  C   UNL     1      -2.450   5.715  -0.951  0.00  0.00    +0.038 C 
ATOM     14  C   UNL     1       1.536   6.445  -0.604  0.00  0.00    +0.338 A 
ATOM     15  O   UNL     1       1.985   6.959   0.464  0.00  0.00    -0.246 OA
ENDROOT
BRANCH   1  18
ATOM     16  C   UNL     1      -1.044   7.139   2.623  0.00  0.00    +0.075 A 
ATOM     17  C   UNL     1      -0.462   6.510   1.529  0.00  0.00    +0.034 A 
ATOM     18  C   UNL     1      -0.688   6.949   0.226  0.00  0.00    +0.069 A 
ATOM     19  C   UNL     1      -0.794   8.334   0.132  0.00  0.00    +0.018 A 
ATOM     20  C   UNL     1      -1.077   9.119   1.243  0.00  0.00    +0.003 A 
ATOM     21  C   UNL     1      -1.216   8.512   2.485  0.00  0.00    +0.017 A 
BRANCH  16  24
ATOM     22  C   UNL     1      -3.846   4.912   3.750  0.00  0.00    +0.097 C 
ATOM     23  C   UNL     1      -3.180   6.220   3.493  0.00  0.00    +0.246 C 
ATOM     24  N   UNL     1      -1.775   6.412   3.619  0.00  0.00    -0.179 NA
ATOM     25  O   UNL     1      -3.770   6.987   2.674  0.00  0.00    -0.273 OA
ENDBRANCH  16  24
ENDBRANCH   1  18
BRANCH  11  26
ATOM     26  C   UNL     1       3.743   6.097  -1.485  0.00  0.00    +0.093 C 
ATOM     27  C   UNL     1       4.127   4.685  -1.048  0.00  0.00    +0.025 C 
ATOM     28  C   UNL     1       4.484   5.195  -2.413  0.00  0.00    +0.025 C 
ENDBRANCH  11  26
BRANCH   4  29
ATOM     29  N   UNL     1       0.666   6.930  -5.409  0.00  0.00    -0.193 NA
BRANCH  29  30
ATOM     30  C   UNL     1       1.116   6.412  -6.641  0.00  0.00    +0.099 A 
ATOM     31  C   UNL     1       1.681   5.150  -6.783  0.00  0.00    +0.156 A 
ATOM     32  F   UNL     1       1.628   4.351  -5.678  0.00  0.00    -0.203 F 
ATOM     33  C   UNL     1       2.801   4.978  -7.588  0.00  0.00    +0.037 A 
ATOM     34  C   UNL     1       2.895   5.742  -8.719  0.00  0.00    +0.032 A 
ATOM     35  I   UNL     1       4.418   5.403 -10.138  0.00  0.00    -0.042 I 
ATOM     36  C   UNL     1       2.193   6.941  -8.731  0.00  0.00    +0.007 A 
ATOM     37  C   UNL     1       1.487   7.341  -7.605  0.00  0.00    +0.019 A 
ENDBRANCH  29  30
ENDBRANCH   4  29
TORSDOF 5
ENDMDL
MODEL 4
REMARK VINA RESULT:     -10.1      3.935      8.528
REMARK  Name = 
REMARK  5 active torsions:
REMARK  status: ('A' for Active; 'I' for Inactive)
REMARK    1  A    between atoms: N_4  and  C_5
REMARK    2  A    between atoms: C_9  and  N_10
REMARK    3  A    between atoms: N_13  and  C_14
REMARK    4  A    between atoms: C_20  and  N_21
REMARK    5  A    between atoms: N_21  and  C_22
REMARK                            x       y       z     vdW  Elec       q    Type
REMARK                         _______ _______ _______ _____ _____    ______ ____
ROOT
ATOM      1  N   UNL     1       1.944   6.556  -4.182  0.00  0.00    -0.260 N 
ATOM      2  C   UNL     1       2.197   6.458  -5.501  0.00  0.00    +0.076 A 
ATOM      3  C   UNL     1       1.218   6.299  -6.453  0.00  0.00    +0.104 A 
ATOM      4  C   UNL     1       1.494   6.022  -7.786  0.00  0.00    +0.141 A 
ATOM      5  N   UNL     1       2.810   5.941  -8.102  0.00  0.00    -0.281 N 
ATOM      6  C   UNL     1       3.738   6.472  -7.274  0.00  0.00    +0.259 A 
ATOM      7  O   UNL     1       4.843   6.902  -7.717  0.00  0.00    -0.267 OA
ATOM      8  C   UNL     1       3.263   5.599  -9.441  0.00  0.00    +0.135 C 
ATOM      9  C   UNL     1      -0.083   6.152  -6.008  0.00  0.00    +0.268 A 
ATOM     10  O   UNL     1      -1.022   5.750  -6.741  0.00  0.00    -0.267 OA
ATOM     11  N   UNL     1      -0.328   6.594  -4.751  0.00  0.00    -0.250 N 
ATOM     12  C   UNL     1       3.478   6.703  -5.944  0.00  0.00    +0.051 A 
ATOM     13  C   UNL     1       4.540   6.913  -4.939  0.00  0.00    +0.038 C 
ATOM     14  C   UNL     1       0.644   6.628  -3.809  0.00  0.00    +0.338 A 
ATOM     15  O   UNL     1       0.363   6.366  -2.600  0.00  0.00    -0.246 OA
ENDROOT
BRANCH   1  18
ATOM     16  C   UNL     1       3.766   6.382  -0.999  0.00  0.00    +0.075 A 
ATOM     17  C   UNL     1       3.031   6.829  -2.091  0.00  0.00    +0.034 A 
ATOM     18  C   UNL     1       2.947   6.087  -3.269  0.00  0.00    +0.069 A 
ATOM     19  C   UNL     1       2.907   4.714  -3.042  0.00  0.00    +0.018 A 
ATOM     20  C   UNL     1       3.339   4.162  -1.843  0.00  0.00    +0.003 A 
ATOM     21  C   UNL     1       3.782   5.002  -0.829  0.00  0.00    +0.017 A 
BRANCH  16  24
ATOM     22  C   UNL     1       5.685   7.558   2.003  0.00  0.00    +0.097 C 
ATOM     23  C   UNL     1       4.580   7.601   1.005  0.00  0.00    +0.246 C 
ATOM     24  N   UNL     1       4.746   7.204  -0.353  0.00  0.00    -0.179 NA
ATOM     25  O   UNL     1       3.409   7.481   1.474  0.00  0.00    -0.273 OA
ENDBRANCH  16  24
ENDBRANCH   1  18
BRANCH  11  26
ATOM     26  C   UNL     1      -1.661   7.005  -4.370  0.00  0.00    +0.093 C 
ATOM     27  C   UNL     1      -1.921   8.509  -4.321  0.00  0.00    +0.025 C 
ATOM     28  C   UNL     1      -2.556   7.649  -5.374  0.00  0.00    +0.025 C 
ENDBRANCH  11  26
BRANCH   4  29
ATOM     29  N   UNL     1       0.617   5.175  -8.496  0.00  0.00    -0.193 NA
BRANCH  29  30
ATOM     30  C   UNL     1       0.159   5.393  -9.811  0.00  0.00    +0.099 A 
ATOM     31  C   UNL     1       0.267   4.452 -10.829  0.00  0.00    +0.156 A 
ATOM     32  F   UNL     1       0.697   3.215 -10.445  0.00  0.00    -0.203 F 
ATOM     33  C   UNL     1       0.655   4.849 -12.102  0.00  0.00    +0.037 A 
ATOM     34  C   UNL     1       0.236   6.074 -12.543  0.00  0.00    +0.032 A 
ATOM     35  I   UNL     1       0.557   6.683 -14.537  0.00  0.00    -0.042 I 
ATOM     36  C   UNL     1      -0.081   7.018 -11.575  0.00  0.00    +0.007 A 
ATOM     37  C   UNL     1       0.089   6.716 -10.231  0.00  0.00    +0.019 A 
ENDBRANCH  29  30
ENDBRANCH   4  29
TORSDOF 5
ENDMDL
MODEL 5
REMARK VINA RESULT:      -9.8      3.823      8.214
REMARK  Name = 
REMARK  5 active torsions:
REMARK  status: ('A' for Active; 'I' for Inactive)
REMARK    1  A    between atoms: N_4  and  C_5
REMARK    2  A    between atoms: C_9  and  N_10
REMARK    3  A    between atoms: N_13  and  C_14
REMARK    4  A    between atoms: C_20  and  N_21
REMARK    5  A    between atoms: N_21  and  C_22
REMARK                            x       y       z     vdW  Elec       q    Type
REMARK                         _______ _______ _______ _____ _____    ______ ____
ROOT
ATOM      1  N   UNL     1       0.780   5.947  -4.866  0.00  0.00    -0.260 N 
ATOM      2  C   UNL     1       0.935   5.813  -6.197  0.00  0.00    +0.076 A 
ATOM      3  C   UNL     1       2.146   5.935  -6.836  0.00  0.00    +0.104 A 
ATOM      4  C   UNL     1       2.272   5.971  -8.220  0.00  0.00    +0.141 A 
ATOM      5  N   UNL     1       1.114   5.853  -8.913  0.00  0.00    -0.281 N 
ATOM      6  C   UNL     1       0.013   5.352  -8.307  0.00  0.00    +0.259 A 
ATOM      7  O   UNL     1      -0.876   4.736  -8.967  0.00  0.00    -0.267 OA
ATOM      8  C   UNL     1       1.070   5.931 -10.364  0.00  0.00    +0.135 C 
ATOM      9  C   UNL     1       3.237   6.296  -6.067  0.00  0.00    +0.268 A 
ATOM     10  O   UNL     1       4.328   6.685  -6.557  0.00  0.00    -0.267 OA
ATOM     11  N   UNL     1       3.114   6.082  -4.736  0.00  0.00    -0.250 N 
ATOM     12  C   UNL     1      -0.132   5.359  -6.941  0.00  0.00    +0.051 A 
ATOM     13  C   UNL     1      -1.434   5.185  -6.266  0.00  0.00    +0.038 C 
ATOM     14  C   UNL     1       1.906   6.082  -4.125  0.00  0.00    +0.338 A 
ATOM     15  O   UNL     1       1.787   6.556  -2.956  0.00  0.00    -0.246 OA
ENDROOT
BRANCH   1  18
ATOM     16  C   UNL     1      -1.600   7.198  -2.365  0.00  0.00    +0.075 A 
ATOM     17  C   UNL     1      -0.559   6.526  -2.994  0.00  0.00    +0.034 A 
ATOM     18  C   UNL     1      -0.482   6.433  -4.383  0.00  0.00    +0.069 A 
ATOM     19  C   UNL     1      -0.929   7.584  -5.028  0.00  0.00    +0.018 A 
ATOM     20  C   UNL     1      -1.745   8.507  -4.387  0.00  0.00    +0.003 A 
ATOM     21  C   UNL     1      -2.089   8.300  -3.057  0.00  0.00    +0.017 A 
BRANCH  16  24
ATOM     22  C   UNL     1      -2.713   6.866   1.203  0.00  0.00    +0.097 C 
ATOM     23  C   UNL     1      -1.877   6.541   0.013  0.00  0.00    +0.246 C 
ATOM     24  N   UNL     1      -2.374   6.594  -1.320  0.00  0.00    -0.179 NA
ATOM     25  O   UNL     1      -0.632   6.734   0.146  0.00  0.00    -0.273 OA
ENDBRANCH  16  24
ENDBRANCH   1  18
BRANCH  11  26
ATOM     26  C   UNL     1       4.291   5.889  -3.917  0.00  0.00    +0.093 C 
ATOM     27  C   UNL     1       4.256   4.712  -2.945  0.00  0.00    +0.025 C 
ATOM     28  C   UNL     1       5.164   4.702  -4.139  0.00  0.00    +0.025 C 
ENDBRANCH  11  26
BRANCH   4  29
ATOM     29  N   UNL     1       3.270   6.794  -8.785  0.00  0.00    -0.193 NA
BRANCH  29  30
ATOM     30  C   UNL     1       4.172   6.404  -9.796  0.00  0.00    +0.099 A 
ATOM     31  C   UNL     1       4.939   5.247  -9.737  0.00  0.00    +0.156 A 
ATOM     32  F   UNL     1       4.652   4.400  -8.706  0.00  0.00    -0.203 F 
ATOM     33  C   UNL     1       6.273   5.280 -10.126  0.00  0.00    +0.037 A 
ATOM     34  C   UNL     1       6.613   6.100 -11.167  0.00  0.00    +0.032 A 
ATOM     35  I   UNL     1       8.550   6.055 -12.002  0.00  0.00    -0.042 I 
ATOM     36  C   UNL     1       5.778   7.181 -11.416  0.00  0.00    +0.007 A 
ATOM     37  C   UNL     1       4.689   7.421 -10.589  0.00  0.00    +0.019 A 
ENDBRANCH  29  30
ENDBRANCH   4  29
TORSDOF 5
ENDMDL
MODEL 6
REMARK VINA RESULT:      -9.3      2.681      4.650
REMARK  Name = 
REMARK  5 active torsions:
REMARK  status: ('A' for Active; 'I' for Inactive)
REMARK    1  A    between atoms: N_4  and  C_5
REMARK    2  A    between atoms: C_9  and  N_10
REMARK    3  A    between atoms: N_13  and  C_14
REMARK    4  A    between atoms: C_20  and  N_21
REMARK    5  A    between atoms: N_21  and  C_22
REMARK                            x       y       z     vdW  Elec       q    Type
REMARK                         _______ _______ _______ _____ _____    ______ ____
ROOT
ATOM      1  N   UNL     1       0.831   5.750  -4.992  0.00  0.00    -0.260 N 
ATOM      2  C   UNL     1       1.589   5.628  -3.886  0.00  0.00    +0.076 A 
ATOM      3  C   UNL     1       1.163   5.990  -2.630  0.00  0.00    +0.104 A 
ATOM      4  C   UNL     1       2.005   6.027  -1.525  0.00  0.00    +0.141 A 
ATOM      5  N   UNL     1       3.287   5.655  -1.759  0.00  0.00    -0.281 N 
ATOM      6  C   UNL     1       3.593   4.946  -2.869  0.00  0.00    +0.259 A 
ATOM      7  O   UNL     1       4.575   4.146  -2.887  0.00  0.00    -0.267 OA
ATOM      8  C   UNL     1       4.305   5.697  -0.722  0.00  0.00    +0.135 C 
ATOM      9  C   UNL     1      -0.081   6.585  -2.527  0.00  0.00    +0.268 A 
ATOM     10  O   UNL     1      -0.477   7.185  -1.496  0.00  0.00    -0.267 OA
ATOM     11  N   UNL     1      -0.921   6.374  -3.569  0.00  0.00    -0.250 N 
ATOM     12  C   UNL     1       2.783   4.947  -3.979  0.00  0.00    +0.051 A 
ATOM     13  C   UNL     1       3.243   4.516  -5.314  0.00  0.00    +0.038 C 
ATOM     14  C   UNL     1      -0.457   6.131  -4.817  0.00  0.00    +0.338 A 
ATOM     15  O   UNL     1      -1.076   6.591  -5.824  0.00  0.00    -0.246 OA
ENDROOT
BRANCH   1  18
ATOM     16  C   UNL     1       1.139   5.931  -8.647  0.00  0.00    +0.075 A 
ATOM     17  C   UNL     1       0.761   5.575  -7.358  0.00  0.00    +0.034 A 
ATOM     18  C   UNL     1       1.501   5.969  -6.243  0.00  0.00    +0.069 A 
ATOM     19  C   UNL     1       2.044   7.244  -6.378  0.00  0.00    +0.018 A 
ATOM     20  C   UNL     1       2.194   7.844  -7.622  0.00  0.00    +0.003 A 
ATOM     21  C   UNL     1       1.751   7.174  -8.756  0.00  0.00    +0.017 A 
BRANCH  16  24
ATOM     22  C   UNL     1       1.063   4.875 -12.247  0.00  0.00    +0.097 C 
ATOM     23  C   UNL     1       0.492   5.071 -10.884  0.00  0.00    +0.246 C 
ATOM     24  N   UNL     1       1.270   4.962  -9.696  0.00  0.00    -0.179 NA
ATOM     25  O   UNL     1      -0.518   5.832 -10.815  0.00  0.00    -0.273 OA
ENDBRANCH  16  24
ENDBRANCH   1  18
BRANCH  11  26
ATOM     26  C   UNL     1      -2.352   6.446  -3.377  0.00  0.00    +0.093 C 
ATOM     27  C   UNL     1      -3.123   5.134  -3.508  0.00  0.00    +0.025 C 
ATOM     28  C   UNL     1      -2.975   5.814  -2.179  0.00  0.00    +0.025 C 
ENDBRANCH  11  26
BRANCH   4  29
ATOM     29  N   UNL     1       1.801   7.030  -0.554  0.00  0.00    -0.193 NA
BRANCH  29  30
ATOM     30  C   UNL     1       2.763   7.975  -0.143  0.00  0.00    +0.099 A 
ATOM     31  C   UNL     1       2.980   8.322   1.186  0.00  0.00    +0.156 A 
ATOM     32  F   UNL     1       2.318   7.566   2.109  0.00  0.00    -0.203 F 
ATOM     33  C   UNL     1       3.170   9.654   1.532  0.00  0.00    +0.037 A 
ATOM     34  C   UNL     1       3.845  10.451   0.649  0.00  0.00    +0.032 A 
ATOM     35  I   UNL     1       4.403  12.419   1.166  0.00  0.00    -0.042 I 
ATOM     36  C   UNL     1       3.838  10.062  -0.684  0.00  0.00    +0.007 A 
ATOM     37  C   UNL     1       3.120   8.941  -1.075  0.00  0.00    +0.019 A 
ENDBRANCH  29  30
ENDBRANCH   4  29
TORSDOF 5
ENDMDL
MODEL 7
REMARK VINA RESULT:      -9.2      5.403     10.609
REMARK  Name = 
REMARK  5 active torsions:
REMARK  status: ('A' for Active; 'I' for Inactive)
REMARK    1  A    between atoms: N_4  and  C_5
REMARK    2  A    between atoms: C_9  and  N_10
REMARK    3  A    between atoms: N_13  and  C_14
REMARK    4  A    between atoms: C_20  and  N_21
REMARK    5  A    between atoms: N_21  and  C_22
REMARK                            x       y       z     vdW  Elec       q    Type
REMARK                         _______ _______ _______ _____ _____    ______ ____
ROOT
ATOM      1  N   UNL     1       2.708   5.927  -9.197  0.00  0.00    -0.260 N 
ATOM      2  C   UNL     1       3.858   5.997  -9.895  0.00  0.00    +0.076 A 
ATOM      3  C   UNL     1       3.916   5.951 -11.268  0.00  0.00    +0.104 A 
ATOM      4  C   UNL     1       5.109   5.846 -11.972  0.00  0.00    +0.141 A 
ATOM      5  N   UNL     1       6.232   5.816 -11.214  0.00  0.00    -0.281 N 
ATOM      6  C   UNL     1       6.192   6.246  -9.932  0.00  0.00    +0.259 A 
ATOM      7  O   UNL     1       7.217   6.736  -9.372  0.00  0.00    -0.267 OA
ATOM      8  C   UNL     1       7.553   5.648 -11.795  0.00  0.00    +0.135 C 
ATOM      9  C   UNL     1       2.731   5.740 -11.948  0.00  0.00    +0.268 A 
ATOM     10  O   UNL     1       2.680   5.427 -13.165  0.00  0.00    -0.267 OA
ATOM     11  N   UNL     1       1.599   6.019 -11.258  0.00  0.00    -0.250 N 
ATOM     12  C   UNL     1       5.018   6.306  -9.221  0.00  0.00    +0.051 A 
ATOM     13  C   UNL     1       4.971   6.396  -7.747  0.00  0.00    +0.038 C 
ATOM     14  C   UNL     1       1.555   5.942  -9.907  0.00  0.00    +0.338 A 
ATOM     15  O   UNL     1       0.504   5.528  -9.331  0.00  0.00    -0.246 OA
ENDROOT
BRANCH   1  18
ATOM     16  C   UNL     1       1.828   5.598  -5.647  0.00  0.00    +0.075 A 
ATOM     17  C   UNL     1       2.094   6.109  -6.912  0.00  0.00    +0.034 A 
ATOM     18  C   UNL     1       2.755   5.355  -7.881  0.00  0.00    +0.069 A 
ATOM     19  C   UNL     1       2.417   4.005  -7.840  0.00  0.00    +0.018 A 
ATOM     20  C   UNL     1       1.847   3.432  -6.710  0.00  0.00    +0.003 A 
ATOM     21  C   UNL     1       1.568   4.233  -5.609  0.00  0.00    +0.017 A 
BRANCH  16  24
ATOM     22  C   UNL     1       4.208   7.562  -3.513  0.00  0.00    +0.097 C 
ATOM     23  C   UNL     1       3.536   6.324  -3.999  0.00  0.00    +0.246 C 
ATOM     24  N   UNL     1       2.186   6.302  -4.451  0.00  0.00    -0.179 NA
ATOM     25  O   UNL     1       4.299   5.443  -4.497  0.00  0.00    -0.273 OA
ENDBRANCH  16  24
ENDBRANCH   1  18
BRANCH  11  26
ATOM     26  C   UNL     1       0.385   6.369 -11.961  0.00  0.00    +0.093 C 
ATOM     27  C   UNL     1      -0.310   7.654 -11.519  0.00  0.00    +0.025 C 
ATOM     28  C   UNL     1       0.361   7.560 -12.857  0.00  0.00    +0.025 C 
ENDBRANCH  11  26
BRANCH   4  29
ATOM     29  N   UNL     1       5.126   5.089 -13.162  0.00  0.00    -0.193 NA
BRANCH  29  30
ATOM     30  C   UNL     1       5.424   5.592 -14.445  0.00  0.00    +0.099 A 
ATOM     31  C   UNL     1       6.712   5.673 -14.959  0.00  0.00    +0.156 A 
ATOM     32  F   UNL     1       7.685   5.075 -14.211  0.00  0.00    -0.203 F 
ATOM     33  C   UNL     1       7.111   6.806 -15.657  0.00  0.00    +0.037 A 
ATOM     34  C   UNL     1       6.179   7.434 -16.437  0.00  0.00    +0.032 A 
ATOM     35  I   UNL     1       6.722   9.014 -17.725  0.00  0.00    -0.042 I 
ATOM     36  C   UNL     1       4.844   7.244 -16.102  0.00  0.00    +0.007 A 
ATOM     37  C   UNL     1       4.512   6.491 -14.984  0.00  0.00    +0.019 A 
ENDBRANCH  29  30
ENDBRANCH   4  29
TORSDOF 5
ENDMDL
MODEL 8
REMARK VINA RESULT:      -9.1      3.025      5.540
REMARK  Name = 
REMARK  5 active torsions:
REMARK  status: ('A' for Active; 'I' for Inactive)
REMARK    1  A    between atoms: N_4  and  C_5
REMARK    2  A    between atoms: C_9  and  N_10
REMARK    3  A    between atoms: N_13  and  C_14
REMARK    4  A    between atoms: C_20  and  N_21
REMARK    5  A    between atoms: N_21  and  C_22
REMARK                            x       y       z     vdW  Elec       q    Type
REMARK                         _______ _______ _______ _____ _____    ______ ____
ROOT
ATOM      1  N   UNL     1       3.444   5.524  -9.242  0.00  0.00    -0.260 N 
ATOM      2  C   UNL     1       3.113   5.664  -7.944  0.00  0.00    +0.076 A 
ATOM      3  C   UNL     1       1.816   5.665  -7.488  0.00  0.00    +0.104 A 
ATOM      4  C   UNL     1       1.473   5.985  -6.180  0.00  0.00    +0.141 A 
ATOM      5  N   UNL     1       2.513   6.277  -5.361  0.00  0.00    -0.281 N 
ATOM      6  C   UNL     1       3.767   5.901  -5.701  0.00  0.00    +0.259 A 
ATOM      7  O   UNL     1       4.641   5.655  -4.818  0.00  0.00    -0.267 OA
ATOM      8  C   UNL     1       2.317   6.689  -3.980  0.00  0.00    +0.135 C 
ATOM      9  C   UNL     1       0.809   5.600  -8.433  0.00  0.00    +0.268 A 
ATOM     10  O   UNL     1      -0.397   5.846  -8.176  0.00  0.00    -0.267 OA
ATOM     11  N   UNL     1       1.173   5.122  -9.647  0.00  0.00    -0.250 N 
ATOM     12  C   UNL     1       4.117   5.629  -7.002  0.00  0.00    +0.051 A 
ATOM     13  C   UNL     1       5.517   5.591  -7.470  0.00  0.00    +0.038 C 
ATOM     14  C   UNL     1       2.441   5.244 -10.107  0.00  0.00    +0.338 A 
ATOM     15  O   UNL     1       2.650   5.456 -11.339  0.00  0.00    -0.246 OA
ENDROOT
BRANCH   1  18
ATOM     16  C   UNL     1       6.466   5.885 -11.297  0.00  0.00    +0.075 A 
ATOM     17  C   UNL     1       5.403   5.361 -10.572  0.00  0.00    +0.034 A 
ATOM     18  C   UNL     1       4.656   6.147  -9.696  0.00  0.00    +0.069 A 
ATOM     19  C   UNL     1       4.482   7.451 -10.154  0.00  0.00    +0.018 A 
ATOM     20  C   UNL     1       5.314   7.998 -11.123  0.00  0.00    +0.003 A 
ATOM     21  C   UNL     1       6.315   7.213 -11.681  0.00  0.00    +0.017 A 
BRANCH  16  24
ATOM     22  C   UNL     1      10.119   5.798 -12.150  0.00  0.00    +0.097 C 
ATOM     23  C   UNL     1       8.674   5.508 -12.368  0.00  0.00    +0.246 C 
ATOM     24  N   UNL     1       7.762   5.272 -11.300  0.00  0.00    -0.179 NA
ATOM     25  O   UNL     1       8.170   5.985 -13.428  0.00  0.00    -0.273 OA
ENDBRANCH  16  24
ENDBRANCH   1  18
BRANCH  11  26
ATOM     26  C   UNL     1       0.192   4.502 -10.510  0.00  0.00    +0.093 C 
ATOM     27  C   UNL     1      -0.654   5.443 -11.364  0.00  0.00    +0.025 C 
ATOM     28  C   UNL     1       0.371   4.543 -11.989  0.00  0.00    +0.025 C 
ENDBRANCH  11  26
BRANCH   4  29
ATOM     29  N   UNL     1       0.268   6.680  -5.948  0.00  0.00    -0.193 NA
BRANCH  29  30
ATOM     30  C   UNL     1      -0.605   6.462  -4.862  0.00  0.00    +0.099 A 
ATOM     31  C   UNL     1      -1.412   7.452  -4.314  0.00  0.00    +0.156 A 
ATOM     32  F   UNL     1      -1.445   8.632  -4.997  0.00  0.00    -0.203 F 
ATOM     33  C   UNL     1      -1.537   7.559  -2.934  0.00  0.00    +0.037 A 
ATOM     34  C   UNL     1      -1.528   6.404  -2.202  0.00  0.00    +0.032 A 
ATOM     35  I   UNL     1      -1.950   6.421  -0.135  0.00  0.00    -0.042 I 
ATOM     36  C   UNL     1      -0.903   5.302  -2.771  0.00  0.00    +0.007 A 
ATOM     37  C   UNL     1      -0.275   5.421  -4.003  0.00  0.00    +0.019 A 
ENDBRANCH  29  30
ENDBRANCH   4  29
TORSDOF 5
ENDMDL
MODEL 9
REMARK VINA RESULT:      -9.1      3.494      6.414
REMARK  Name = 
REMARK  5 active torsions:
REMARK  status: ('A' for Active; 'I' for Inactive)
REMARK    1  A    between atoms: N_4  and  C_5
REMARK    2  A    between atoms: C_9  and  N_10
REMARK    3  A    between atoms: N_13  and  C_14
REMARK    4  A    between atoms: C_20  and  N_21
REMARK    5  A    between atoms: N_21  and  C_22
REMARK                            x       y       z     vdW  Elec       q    Type
REMARK                         _______ _______ _______ _____ _____    ______ ____
ROOT
ATOM      1  N   UNL     1       3.891   5.731 -10.800  0.00  0.00    -0.260 N 
ATOM      2  C   UNL     1       3.729   5.578  -9.472  0.00  0.00    +0.076 A 
ATOM      3  C   UNL     1       2.510   5.666  -8.841  0.00  0.00    +0.104 A 
ATOM      4  C   UNL     1       2.373   5.684  -7.459  0.00  0.00    +0.141 A 
ATOM      5  N   UNL     1       3.528   5.583  -6.758  0.00  0.00    -0.281 N 
ATOM      6  C   UNL     1       4.645   5.114  -7.360  0.00  0.00    +0.259 A 
ATOM      7  O   UNL     1       5.542   4.511  -6.701  0.00  0.00    -0.267 OA
ATOM      8  C   UNL     1       3.560   5.647  -5.306  0.00  0.00    +0.135 C 
ATOM      9  C   UNL     1       1.417   6.011  -9.615  0.00  0.00    +0.268 A 
ATOM     10  O   UNL     1       0.314   6.370  -9.130  0.00  0.00    -0.267 OA
ATOM     11  N   UNL     1       1.555   5.815 -10.948  0.00  0.00    -0.250 N 
ATOM     12  C   UNL     1       4.800   5.139  -8.725  0.00  0.00    +0.051 A 
ATOM     13  C   UNL     1       6.111   5.002  -9.392  0.00  0.00    +0.038 C 
ATOM     14  C   UNL     1       2.768   5.849 -11.548  0.00  0.00    +0.338 A 
ATOM     15  O   UNL     1       2.885   6.338 -12.712  0.00  0.00    -0.246 OA
ENDROOT
BRANCH   1  18
ATOM     16  C   UNL     1       6.302   6.944 -13.290  0.00  0.00    +0.075 A 
ATOM     17  C   UNL     1       5.271   6.260 -12.657  0.00  0.00    +0.034 A 
ATOM     18  C   UNL     1       5.145   6.249 -11.268  0.00  0.00    +0.069 A 
ATOM     19  C   UNL     1       5.509   7.459 -10.683  0.00  0.00    +0.018 A 
ATOM     20  C   UNL     1       6.304   8.382 -11.353  0.00  0.00    +0.003 A 
ATOM     21  C   UNL     1       6.709   8.110 -12.654  0.00  0.00    +0.017 A 
BRANCH  16  24
ATOM     22  C   UNL     1       7.927   6.741 -16.666  0.00  0.00    +0.097 C 
ATOM     23  C   UNL     1       6.871   6.451 -15.656  0.00  0.00    +0.246 C 
ATOM     24  N   UNL     1       7.145   6.316 -14.265  0.00  0.00    -0.179 NA
ATOM     25  O   UNL     1       5.703   6.844 -15.952  0.00  0.00    -0.273 OA
ENDBRANCH  16  24
ENDBRANCH   1  18
BRANCH  11  26
ATOM     26  C   UNL     1       0.390   5.605 -11.777  0.00  0.00    +0.093 C 
ATOM     27  C   UNL     1       0.470   4.462 -12.787  0.00  0.00    +0.025 C 
ATOM     28  C   UNL     1      -0.440   4.380 -11.597  0.00  0.00    +0.025 C 
ENDBRANCH  11  26
BRANCH   4  29
ATOM     29  N   UNL     1       1.353   6.478  -6.892  0.00  0.00    -0.193 NA
BRANCH  29  30
ATOM     30  C   UNL     1       0.508   6.087  -5.833  0.00  0.00    +0.099 A 
ATOM     31  C   UNL     1      -0.660   5.356  -6.012  0.00  0.00    +0.156 A 
ATOM     32  F   UNL     1      -0.871   4.881  -7.274  0.00  0.00    -0.203 F 
ATOM     33  C   UNL     1      -1.807   5.697  -5.306  0.00  0.00    +0.037 A 
ATOM     34  C   UNL     1      -1.652   6.163  -4.029  0.00  0.00    +0.032 A 
ATOM     35  I   UNL     1      -3.320   6.483  -2.777  0.00  0.00    -0.042 I 
ATOM     36  C   UNL     1      -0.429   6.739  -3.711  0.00  0.00    +0.007 A 
ATOM     37  C   UNL     1       0.548   6.872  -4.687  0.00  0.00    +0.019 A 
ENDBRANCH  29  30
ENDBRANCH   4  29
TORSDOF 5
ENDMDL
