MODEL 1
REMARK VINA RESULT:      -6.1      0.000      0.000
REMARK  Name = 
REMARK  3 active torsions:
REMARK  status: ('A' for Active; 'I' for Inactive)
REMARK    1  A    between atoms: C_4  and  O_6
REMARK    2  A    between atoms: O_6  and  C_7
REMARK    3  A    between atoms: C_11  and  N_12
REMARK                            x       y       z     vdW  Elec       q    Type
REMARK                         _______ _______ _______ _____ _____    ______ ____
ROOT
ATOM      1  C   UNL     1      -1.407   6.551  -4.570  0.00  0.00    +0.156 A 
ATOM      2  C   UNL     1      -0.148   6.324  -5.114  0.00  0.00    +0.101 A 
ATOM      3  C   UNL     1      -0.013   5.759  -6.376  0.00  0.00    +0.169 A 
ATOM      4  C   UNL     1      -1.130   5.249  -7.027  0.00  0.00    +0.063 A 
ATOM      5  C   UNL     1      -2.355   5.646  -6.561  0.00  0.00    +0.009 A 
ATOM      6  C   UNL     1      -2.452   6.492  -5.487  0.00  0.00    +0.038 A 
ENDROOT
BRANCH   3   7
ATOM      7  N   UNL     1       1.250   5.477  -6.965  0.00  0.00    -0.310 NA
ATOM      8  C   UNL     1       1.744   4.238  -6.369  0.00  0.00    +0.335 C 
ATOM      9  C   UNL     1       2.184   6.571  -6.726  0.00  0.00    +0.335 C 
ATOM     10  C   UNL     1       1.159   5.286  -8.395  0.00  0.00    +0.335 C 
ENDBRANCH   3   7
BRANCH   1  11
ATOM     11  O   UNL     1      -1.622   6.690  -3.213  0.00  0.00    -0.410 OA
BRANCH  11  14
ATOM     12  C   UNL     1      -0.511   6.620  -0.093  0.00  0.00    +0.118 C 
ATOM     13  N   UNL     1      -0.154   5.980  -1.357  0.00  0.00    -0.242 N 
ATOM     14  C   UNL     1      -1.250   5.771  -2.257  0.00  0.00    +0.410 C 
ATOM     15  O   UNL     1      -2.157   5.008  -1.801  0.00  0.00    -0.226 OA
ATOM     16  C   UNL     1       0.800   4.879  -1.250  0.00  0.00    +0.118 C 
ENDBRANCH  11  14
ENDBRANCH   1  11
TORSDOF 3
ENDMDL
MODEL 2
REMARK VINA RESULT:      -6.0      2.371      5.388
REMARK  Name = 
REMARK  3 active torsions:
REMARK  status: ('A' for Active; 'I' for Inactive)
REMARK    1  A    between atoms: C_4  and  O_6
REMARK    2  A    between atoms: O_6  and  C_7
REMARK    3  A    between atoms: C_11  and  N_12
REMARK                            x       y       z     vdW  Elec       q    Type
REMARK                         _______ _______ _______ _____ _____    ______ ____
ROOT
ATOM      1  C   UNL     1       0.002   5.536  -6.234  0.00  0.00    +0.156 A 
ATOM      2  C   UNL     1      -0.167   5.770  -4.874  0.00  0.00    +0.101 A 
ATOM      3  C   UNL     1      -1.436   5.948  -4.338  0.00  0.00    +0.169 A 
ATOM      4  C   UNL     1      -2.531   6.075  -5.184  0.00  0.00    +0.063 A 
ATOM      5  C   UNL     1      -2.365   5.662  -6.479  0.00  0.00    +0.009 A 
ATOM      6  C   UNL     1      -1.159   5.168  -6.905  0.00  0.00    +0.038 A 
ENDROOT
BRANCH   3   7
ATOM      7  N   UNL     1      -1.661   6.222  -2.961  0.00  0.00    -0.310 NA
ATOM      8  C   UNL     1      -2.067   7.621  -2.853  0.00  0.00    +0.335 C 
ATOM      9  C   UNL     1      -0.452   5.976  -2.184  0.00  0.00    +0.335 C 
ATOM     10  C   UNL     1      -2.712   5.401  -2.403  0.00  0.00    +0.335 C 
ENDBRANCH   3   7
BRANCH   1  11
ATOM     11  O   UNL     1       1.192   5.776  -6.893  0.00  0.00    -0.410 OA
BRANCH  11  14
ATOM     12  C   UNL     1       4.489   5.458  -6.985  0.00  0.00    +0.118 C 
ATOM     13  N   UNL     1       3.369   5.118  -7.859  0.00  0.00    -0.242 N 
ATOM     14  C   UNL     1       2.142   4.821  -7.179  0.00  0.00    +0.410 C 
ATOM     15  O   UNL     1       2.209   3.817  -6.403  0.00  0.00    -0.226 OA
ATOM     16  C   UNL     1       3.699   4.246  -8.984  0.00  0.00    +0.118 C 
ENDBRANCH  11  14
ENDBRANCH   1  11
TORSDOF 3
ENDMDL
MODEL 3
REMARK VINA RESULT:      -5.9      2.485      5.109
REMARK  Name = 
REMARK  3 active torsions:
REMARK  status: ('A' for Active; 'I' for Inactive)
REMARK    1  A    between atoms: C_4  and  O_6
REMARK    2  A    between atoms: O_6  and  C_7
REMARK    3  A    between atoms: C_11  and  N_12
REMARK                            x       y       z     vdW  Elec       q    Type
REMARK                         _______ _______ _______ _____ _____    ______ ____
ROOT
ATOM      1  C   UNL     1       0.156   5.729  -6.478  0.00  0.00    +0.156 A 
ATOM      2  C   UNL     1       0.005   5.953  -5.114  0.00  0.00    +0.101 A 
ATOM      3  C   UNL     1      -1.259   6.004  -4.540  0.00  0.00    +0.169 A 
ATOM      4  C   UNL     1      -2.386   6.013  -5.353  0.00  0.00    +0.063 A 
ATOM      5  C   UNL     1      -2.217   5.611  -6.652  0.00  0.00    +0.009 A 
ATOM      6  C   UNL     1      -0.981   5.240  -7.113  0.00  0.00    +0.038 A 
ENDROOT
BRANCH   3   7
ATOM      7  N   UNL     1      -1.470   6.261  -3.158  0.00  0.00    -0.310 NA
ATOM      8  C   UNL     1      -2.020   7.610  -3.043  0.00  0.00    +0.335 C 
ATOM      9  C   UNL     1      -0.219   6.151  -2.418  0.00  0.00    +0.335 C 
ATOM     10  C   UNL     1      -2.411   5.337  -2.564  0.00  0.00    +0.335 C 
ENDBRANCH   3   7
BRANCH   1  11
ATOM     11  O   UNL     1       1.295   6.086  -7.173  0.00  0.00    -0.410 OA
BRANCH  11  14
ATOM     12  C   UNL     1       4.510   5.411  -7.597  0.00  0.00    +0.118 C 
ATOM     13  N   UNL     1       3.573   5.430  -6.477  0.00  0.00    -0.242 N 
ATOM     14  C   UNL     1       2.510   6.385  -6.597  0.00  0.00    +0.410 C 
ATOM     15  O   UNL     1       2.901   7.592  -6.658  0.00  0.00    -0.226 OA
ATOM     16  C   UNL     1       4.181   5.320  -5.153  0.00  0.00    +0.118 C 
ENDBRANCH  11  14
ENDBRANCH   1  11
TORSDOF 3
ENDMDL
MODEL 4
REMARK VINA RESULT:      -5.9      7.408     10.867
REMARK  Name = 
REMARK  3 active torsions:
REMARK  status: ('A' for Active; 'I' for Inactive)
REMARK    1  A    between atoms: C_4  and  O_6
REMARK    2  A    between atoms: O_6  and  C_7
REMARK    3  A    between atoms: C_11  and  N_12
REMARK                            x       y       z     vdW  Elec       q    Type
REMARK                         _______ _______ _______ _____ _____    ______ ____
ROOT
ATOM      1  C   UNL     1       6.500   6.980 -11.466  0.00  0.00    +0.156 A 
ATOM      2  C   UNL     1       5.204   6.689 -11.054  0.00  0.00    +0.101 A 
ATOM      3  C   UNL     1       4.974   6.022  -9.857  0.00  0.00    +0.169 A 
ATOM      4  C   UNL     1       6.042   5.481  -9.152  0.00  0.00    +0.063 A 
ATOM      5  C   UNL     1       7.293   5.935  -9.477  0.00  0.00    +0.009 A 
ATOM      6  C   UNL     1       7.462   6.866 -10.468  0.00  0.00    +0.038 A 
ENDROOT
BRANCH   3   7
ATOM      7  N   UNL     1       3.672   5.673  -9.405  0.00  0.00    -0.310 NA
ATOM      8  C   UNL     1       3.309   6.611  -8.346  0.00  0.00    +0.335 C 
ATOM      9  C   UNL     1       3.652   4.302  -8.907  0.00  0.00    +0.335 C 
ATOM     10  C   UNL     1       2.682   5.769 -10.455  0.00  0.00    +0.335 C 
ENDBRANCH   3   7
BRANCH   1  11
ATOM     11  O   UNL     1       6.827   7.232 -12.783  0.00  0.00    -0.410 OA
BRANCH  11  14
ATOM     12  C   UNL     1       7.224   7.080 -16.069  0.00  0.00    +0.118 C 
ATOM     13  N   UNL     1       6.097   7.161 -15.143  0.00  0.00    -0.242 N 
ATOM     14  C   UNL     1       6.321   6.548 -13.866  0.00  0.00    +0.410 C 
ATOM     15  O   UNL     1       6.551   5.300 -13.924  0.00  0.00    -0.226 OA
ATOM     16  C   UNL     1       4.783   6.928 -15.738  0.00  0.00    +0.118 C 
ENDBRANCH  11  14
ENDBRANCH   1  11
TORSDOF 3
ENDMDL
MODEL 5
REMARK VINA RESULT:      -5.8      2.370      5.640
REMARK  Name = 
REMARK  3 active torsions:
REMARK  status: ('A' for Active; 'I' for Inactive)
REMARK    1  A    between atoms: C_4  and  O_6
REMARK    2  A    between atoms: O_6  and  C_7
REMARK    3  A    between atoms: C_11  and  N_12
REMARK                            x       y       z     vdW  Elec       q    Type
REMARK                         _______ _______ _______ _____ _____    ______ ____
ROOT
ATOM      1  C   UNL     1       0.197   5.280  -6.197  0.00  0.00    +0.156 A 
ATOM      2  C   UNL     1      -0.091   5.486  -4.852  0.00  0.00    +0.101 A 
ATOM      3  C   UNL     1      -1.376   5.826  -4.447  0.00  0.00    +0.169 A 
ATOM      4  C   UNL     1      -2.339   6.140  -5.398  0.00  0.00    +0.063 A 
ATOM      5  C   UNL     1      -2.086   5.754  -6.687  0.00  0.00    +0.009 A 
ATOM      6  C   UNL     1      -0.921   5.107  -7.007  0.00  0.00    +0.038 A 
ENDROOT
BRANCH   3   7
ATOM      7  N   UNL     1      -1.715   6.079  -3.090  0.00  0.00    -0.310 NA
ATOM      8  C   UNL     1      -2.008   7.505  -2.970  0.00  0.00    +0.335 C 
ATOM      9  C   UNL     1      -0.617   5.704  -2.206  0.00  0.00    +0.335 C 
ATOM     10  C   UNL     1      -2.885   5.341  -2.669  0.00  0.00    +0.335 C 
ENDBRANCH   3   7
BRANCH   1  11
ATOM     11  O   UNL     1       1.475   5.370  -6.711  0.00  0.00    -0.410 OA
BRANCH  11  14
ATOM     12  C   UNL     1       1.096   6.600  -9.764  0.00  0.00    +0.118 C 
ATOM     13  N   UNL     1       2.218   6.278  -8.885  0.00  0.00    -0.242 N 
ATOM     14  C   UNL     1       1.944   6.408  -7.484  0.00  0.00    +0.410 C 
ATOM     15  O   UNL     1       1.632   7.586  -7.124  0.00  0.00    -0.226 OA
ATOM     16  C   UNL     1       3.519   6.776  -9.327  0.00  0.00    +0.118 C 
ENDBRANCH  11  14
ENDBRANCH   1  11
TORSDOF 3
ENDMDL
MODEL 6
REMARK VINA RESULT:      -5.8      6.011      8.046
REMARK  Name = 
REMARK  3 active torsions:
REMARK  status: ('A' for Active; 'I' for Inactive)
REMARK    1  A    between atoms: C_4  and  O_6
REMARK    2  A    between atoms: O_6  and  C_7
REMARK    3  A    between atoms: C_11  and  N_12
REMARK                            x       y       z     vdW  Elec       q    Type
REMARK                         _______ _______ _______ _____ _____    ______ ____
ROOT
ATOM      1  C   UNL     1       3.424   6.253  -9.358  0.00  0.00    +0.156 A 
ATOM      2  C   UNL     1       4.287   6.664 -10.368  0.00  0.00    +0.101 A 
ATOM      3  C   UNL     1       5.628   6.300 -10.346  0.00  0.00    +0.169 A 
ATOM      4  C   UNL     1       6.155   5.676  -9.222  0.00  0.00    +0.063 A 
ATOM      5  C   UNL     1       5.262   5.128  -8.340  0.00  0.00    +0.009 A 
ATOM      6  C   UNL     1       3.913   5.219  -8.566  0.00  0.00    +0.038 A 
ENDROOT
BRANCH   3   7
ATOM      7  N   UNL     1       6.558   6.720 -11.335  0.00  0.00    -0.310 NA
ATOM      8  C   UNL     1       6.149   6.122 -12.603  0.00  0.00    +0.335 C 
ATOM      9  C   UNL     1       7.910   6.300 -10.982  0.00  0.00    +0.335 C 
ATOM     10  C   UNL     1       6.577   8.157 -11.497  0.00  0.00    +0.335 C 
ENDBRANCH   3   7
BRANCH   1  11
ATOM     11  O   UNL     1       2.238   6.901  -9.078  0.00  0.00    -0.410 OA
BRANCH  11  14
ATOM     12  C   UNL     1       1.005   5.400 -11.761  0.00  0.00    +0.118 C 
ATOM     13  N   UNL     1       0.757   6.645 -11.039  0.00  0.00    -0.242 N 
ATOM     14  C   UNL     1       1.016   6.586  -9.630  0.00  0.00    +0.410 C 
ATOM     15  O   UNL     1       0.295   5.748  -9.004  0.00  0.00    -0.226 OA
ATOM     16  C   UNL     1      -0.453   7.364 -11.432  0.00  0.00    +0.118 C 
ENDBRANCH  11  14
ENDBRANCH   1  11
TORSDOF 3
ENDMDL
MODEL 7
REMARK VINA RESULT:      -5.7      2.676      3.377
REMARK  Name = 
REMARK  3 active torsions:
REMARK  status: ('A' for Active; 'I' for Inactive)
REMARK    1  A    between atoms: C_4  and  O_6
REMARK    2  A    between atoms: O_6  and  C_7
REMARK    3  A    between atoms: C_11  and  N_12
REMARK                            x       y       z     vdW  Elec       q    Type
REMARK                         _______ _______ _______ _____ _____    ______ ____
ROOT
ATOM      1  C   UNL     1       0.560   6.635  -5.269  0.00  0.00    +0.156 A 
ATOM      2  C   UNL     1       1.225   6.419  -6.472  0.00  0.00    +0.101 A 
ATOM      3  C   UNL     1       0.565   5.846  -7.552  0.00  0.00    +0.169 A 
ATOM      4  C   UNL     1      -0.709   5.318  -7.382  0.00  0.00    +0.063 A 
ATOM      5  C   UNL     1      -1.396   5.704  -6.262  0.00  0.00    +0.009 A 
ATOM      6  C   UNL     1      -0.825   6.557  -5.353  0.00  0.00    +0.038 A 
ENDROOT
BRANCH   3   7
ATOM      7  N   UNL     1       1.206   5.575  -8.792  0.00  0.00    -0.310 NA
ATOM      8  C   UNL     1       1.937   6.778  -9.180  0.00  0.00    +0.335 C 
ATOM      9  C   UNL     1       0.225   5.218  -9.811  0.00  0.00    +0.335 C 
ATOM     10  C   UNL     1       2.150   4.483  -8.696  0.00  0.00    +0.335 C 
ENDBRANCH   3   7
BRANCH   1  11
ATOM     11  O   UNL     1       1.221   6.782  -4.066  0.00  0.00    -0.410 OA
BRANCH  11  14
ATOM     12  C   UNL     1       3.770   7.997  -2.333  0.00  0.00    +0.118 C 
ATOM     13  N   UNL     1       3.534   7.576  -3.712  0.00  0.00    -0.242 N 
ATOM     14  C   UNL     1       2.561   6.534  -3.866  0.00  0.00    +0.410 C 
ATOM     15  O   UNL     1       2.871   5.446  -3.288  0.00  0.00    -0.226 OA
ATOM     16  C   UNL     1       4.731   7.456  -4.541  0.00  0.00    +0.118 C 
ENDBRANCH  11  14
ENDBRANCH   1  11
TORSDOF 3
ENDMDL
MODEL 8
REMARK VINA RESULT:      -5.7      5.530      8.210
REMARK  Name = 
REMARK  3 active torsions:
REMARK  status: ('A' for Active; 'I' for Inactive)
REMARK    1  A    between atoms: C_4  and  O_6
REMARK    2  A    between atoms: O_6  and  C_7
REMARK    3  A    between atoms: C_11  and  N_12
REMARK                            x       y       z     vdW  Elec       q    Type
REMARK                         _______ _______ _______ _____ _____    ______ ____
ROOT
ATOM      1  C   UNL     1       4.690   5.561  -9.282  0.00  0.00    +0.156 A 
ATOM      2  C   UNL     1       4.832   5.665 -10.661  0.00  0.00    +0.101 A 
ATOM      3  C   UNL     1       6.093   5.750 -11.239  0.00  0.00    +0.169 A 
ATOM      4  C   UNL     1       7.212   5.916 -10.432  0.00  0.00    +0.063 A 
ATOM      5  C   UNL     1       7.065   5.629  -9.101  0.00  0.00    +0.009 A 
ATOM      6  C   UNL     1       5.855   5.217  -8.605  0.00  0.00    +0.038 A 
ENDROOT
BRANCH   3   7
ATOM      7  N   UNL     1       6.292   5.890 -12.639  0.00  0.00    -0.310 NA
ATOM      8  C   UNL     1       7.550   5.224 -12.971  0.00  0.00    +0.335 C 
ATOM      9  C   UNL     1       6.342   7.298 -13.014  0.00  0.00    +0.335 C 
ATOM     10  C   UNL     1       5.236   5.271 -13.409  0.00  0.00    +0.335 C 
ENDBRANCH   3   7
BRANCH   1  11
ATOM     11  O   UNL     1       3.525   5.901  -8.623  0.00  0.00    -0.410 OA
BRANCH  11  14
ATOM     12  C   UNL     1       1.005   5.045 -10.595  0.00  0.00    +0.118 C 
ATOM     13  N   UNL     1       1.159   5.515  -9.221  0.00  0.00    -0.242 N 
ATOM     14  C   UNL     1       2.385   5.129  -8.586  0.00  0.00    +0.410 C 
ATOM     15  O   UNL     1       2.538   3.873  -8.473  0.00  0.00    -0.226 OA
ATOM     16  C   UNL     1      -0.041   5.424  -8.392  0.00  0.00    +0.118 C 
ENDBRANCH  11  14
ENDBRANCH   1  11
TORSDOF 3
ENDMDL
MODEL 9
REMARK VINA RESULT:      -5.6      4.826      6.944
REMARK  Name = 
REMARK  3 active torsions:
REMARK  status: ('A' for Active; 'I' for Inactive)
REMARK    1  A    between atoms: C_4  and  O_6
REMARK    2  A    between atoms: O_6  and  C_7
REMARK    3  A    between atoms: C_11  and  N_12
REMARK                            x       y       z     vdW  Elec       q    Type
REMARK                         _______ _______ _______ _____ _____    ______ ____
ROOT
ATOM      1  C   UNL     1       3.678   5.991  -9.100  0.00  0.00    +0.156 A 
ATOM      2  C   UNL     1       4.347   6.506 -10.205  0.00  0.00    +0.101 A 
ATOM      3  C   UNL     1       5.708   6.285 -10.376  0.00  0.00    +0.169 A 
ATOM      4  C   UNL     1       6.446   5.702  -9.353  0.00  0.00    +0.063 A 
ATOM      5  C   UNL     1       5.743   5.049  -8.375  0.00  0.00    +0.009 A 
ATOM      6  C   UNL     1       4.374   5.002  -8.413  0.00  0.00    +0.038 A 
ENDROOT
BRANCH   3   7
ATOM      7  N   UNL     1       6.445   6.815 -11.470  0.00  0.00    -0.310 NA
ATOM      8  C   UNL     1       5.769   6.400 -12.696  0.00  0.00    +0.335 C 
ATOM      9  C   UNL     1       7.819   6.326 -11.449  0.00  0.00    +0.335 C 
ATOM     10  C   UNL     1       6.496   8.260 -11.449  0.00  0.00    +0.335 C 
ENDBRANCH   3   7
BRANCH   1  11
ATOM     11  O   UNL     1       2.482   6.507  -8.642  0.00  0.00    -0.410 OA
BRANCH  11  14
ATOM     12  C   UNL     1       0.549   6.692  -5.957  0.00  0.00    +0.118 C 
ATOM     13  N   UNL     1       1.394   5.678  -6.585  0.00  0.00    -0.242 N 
ATOM     14  C   UNL     1       1.498   5.779  -8.011  0.00  0.00    +0.410 C 
ATOM     15  O   UNL     1       0.393   5.644  -8.623  0.00  0.00    -0.226 OA
ATOM     16  C   UNL     1       1.243   4.325  -6.053  0.00  0.00    +0.118 C 
ENDBRANCH  11  14
ENDBRANCH   1  11
TORSDOF 3
ENDMDL
