MODEL 1
REMARK VINA RESULT:      -8.5      0.000      0.000
REMARK  Name = 
REMARK  2 active torsions:
REMARK  status: ('A' for Active; 'I' for Inactive)
REMARK    1  A    between atoms: C_2  and  C_3
REMARK    2  A    between atoms: C_21  and  C_22
REMARK                            x       y       z     vdW  Elec       q    Type
REMARK                         _______ _______ _______ _____ _____    ______ ____
ROOT
ATOM      1  C   UNL     1       0.812   5.331  -9.729  0.00  0.00    +0.180 C 
ATOM      2  C   UNL     1       2.138   5.447  -9.147  0.00  0.00    +0.037 C 
ATOM      3  C   UNL     1       2.020   4.849  -7.632  0.00  0.00    +0.003 C 
ATOM      4  C   UNL     1       3.446   5.704  -7.324  0.00  0.00    +0.001 C 
ATOM      5  C   UNL     1       3.018   7.163  -6.641  0.00  0.00    +0.004 C 
ATOM      6  C   UNL     1       1.975   7.644  -7.794  0.00  0.00    +0.000 C 
ATOM      7  C   UNL     1       1.960   6.868  -5.370  0.00  0.00    +0.019 C 
ATOM      8  C   UNL     1       3.288   6.904  -4.435  0.00  0.00    -0.042 C 
ATOM      9  C   UNL     1       2.875   6.857  -3.201  0.00  0.00    +0.029 C 
ATOM     10  C   UNL     1       1.552   6.270  -2.926  0.00  0.00    +0.173 C 
ATOM     11  C   UNL     1       0.980   5.316  -3.901  0.00  0.00    +0.069 C 
ATOM     12  O   UNL     1       1.127   6.125  -1.756  0.00  0.00    -0.291 OA
ATOM     13  C   UNL     1       4.420   6.094  -5.014  0.00  0.00    +0.022 C 
ATOM     14  C   UNL     1       1.891   5.269  -5.125  0.00  0.00    +0.012 C 
ATOM     15  C   UNL     1       3.954   5.000  -5.947  0.00  0.00    +0.004 C 
ATOM     16  C   UNL     1       0.791   5.883  -7.468  0.00  0.00    +0.004 C 
ATOM     17  C   UNL     1       2.277   6.965  -9.003  0.00  0.00    +0.003 C 
ATOM     18  C   UNL     1      -0.125   5.374  -8.524  0.00  0.00    +0.043 C 
ATOM     19  O   UNL     1       0.543   4.222 -10.496  0.00  0.00    -0.212 OA
ENDROOT
BRANCH   1  21
ATOM     20  C   UNL     1       0.184   7.071 -11.181  0.00  0.00    -0.012 C 
ATOM     21  C   UNL     1       0.543   6.536 -10.567  0.00  0.00    -0.049 C 
ENDBRANCH   1  21
BRANCH   2  22
ATOM     22  C   UNL     1       3.345   4.977  -9.796  0.00  0.00    +0.003 C 
ATOM     23  C   UNL     1       3.882   6.049 -10.750  0.00  0.00    +0.000 C 
ENDBRANCH   2  22
TORSDOF 2
ENDMDL
MODEL 2
REMARK VINA RESULT:      -8.1      1.738      6.069
REMARK  Name = 
REMARK  2 active torsions:
REMARK  status: ('A' for Active; 'I' for Inactive)
REMARK    1  A    between atoms: C_2  and  C_3
REMARK    2  A    between atoms: C_21  and  C_22
REMARK                            x       y       z     vdW  Elec       q    Type
REMARK                         _______ _______ _______ _____ _____    ______ ____
ROOT
ATOM      1  C   UNL     1       3.401   5.553  -5.064  0.00  0.00    +0.180 C 
ATOM      2  C   UNL     1       2.263   5.329  -5.938  0.00  0.00    +0.037 C 
ATOM      3  C   UNL     1       2.872   4.720  -7.325  0.00  0.00    +0.003 C 
ATOM      4  C   UNL     1       1.409   5.201  -8.025  0.00  0.00    +0.001 C 
ATOM      5  C   UNL     1       1.654   6.694  -8.725  0.00  0.00    +0.004 C 
ATOM      6  C   UNL     1       2.255   7.451  -7.416  0.00  0.00    +0.000 C 
ATOM      7  C   UNL     1       3.026   6.611  -9.692  0.00  0.00    +0.019 C 
ATOM      8  C   UNL     1       1.988   6.296 -10.902  0.00  0.00    -0.042 C 
ATOM      9  C   UNL     1       2.686   6.303 -12.001  0.00  0.00    +0.029 C 
ATOM     10  C   UNL     1       4.133   6.036 -11.916  0.00  0.00    +0.173 C 
ATOM     11  C   UNL     1       4.650   5.282 -10.753  0.00  0.00    +0.069 C 
ATOM     12  O   UNL     1       4.848   5.953 -12.940  0.00  0.00    -0.291 OA
ATOM     13  C   UNL     1       0.958   5.262 -10.521  0.00  0.00    +0.022 C 
ATOM     14  C   UNL     1       3.505   5.066  -9.767  0.00  0.00    +0.012 C 
ATOM     15  C   UNL     1       1.417   4.346  -9.410  0.00  0.00    +0.004 C 
ATOM     16  C   UNL     1       3.843   6.009  -7.303  0.00  0.00    +0.004 C 
ATOM     17  C   UNL     1       1.829   6.765  -6.249  0.00  0.00    +0.003 C 
ATOM     18  C   UNL     1       4.568   5.772  -6.025  0.00  0.00    +0.043 C 
ATOM     19  O   UNL     1       3.717   4.568  -4.157  0.00  0.00    -0.212 OA
ENDROOT
BRANCH   1  21
ATOM     20  C   UNL     1       3.246   7.437  -3.666  0.00  0.00    -0.012 C 
ATOM     21  C   UNL     1       3.187   6.817  -4.301  0.00  0.00    -0.049 C 
ENDBRANCH   1  21
BRANCH   2  22
ATOM     22  C   UNL     1       1.071   4.610  -5.537  0.00  0.00    +0.003 C 
ATOM     23  C   UNL     1       0.097   5.558  -4.829  0.00  0.00    +0.000 C 
ENDBRANCH   2  22
TORSDOF 2
ENDMDL
MODEL 3
REMARK VINA RESULT:      -8.1      2.563      4.194
REMARK  Name = 
REMARK  2 active torsions:
REMARK  status: ('A' for Active; 'I' for Inactive)
REMARK    1  A    between atoms: C_2  and  C_3
REMARK    2  A    between atoms: C_21  and  C_22
REMARK                            x       y       z     vdW  Elec       q    Type
REMARK                         _______ _______ _______ _____ _____    ______ ____
ROOT
ATOM      1  C   UNL     1       2.773   5.166  -6.877  0.00  0.00    +0.180 C 
ATOM      2  C   UNL     1       1.741   6.185  -6.952  0.00  0.00    +0.037 C 
ATOM      3  C   UNL     1       1.292   6.488  -5.411  0.00  0.00    +0.003 C 
ATOM      4  C   UNL     1      -0.113   7.143  -6.087  0.00  0.00    +0.001 C 
ATOM      5  C   UNL     1      -1.284   5.957  -6.058  0.00  0.00    +0.004 C 
ATOM      6  C   UNL     1      -0.437   4.798  -6.823  0.00  0.00    +0.000 C 
ATOM      7  C   UNL     1      -1.355   5.315  -4.506  0.00  0.00    +0.019 C 
ATOM      8  C   UNL     1      -2.545   6.394  -4.261  0.00  0.00    -0.042 C 
ATOM      9  C   UNL     1      -3.054   6.125  -3.093  0.00  0.00    +0.029 C 
ATOM     10  C   UNL     1      -2.219   5.413  -2.110  0.00  0.00    +0.173 C 
ATOM     11  C   UNL     1      -0.748   5.485  -2.241  0.00  0.00    +0.069 C 
ATOM     12  O   UNL     1      -2.621   5.190  -0.945  0.00  0.00    -0.291 OA
ATOM     13  C   UNL     1      -2.189   7.768  -4.769  0.00  0.00    +0.022 C 
ATOM     14  C   UNL     1      -0.412   6.211  -3.541  0.00  0.00    +0.012 C 
ATOM     15  C   UNL     1      -0.698   8.010  -4.840  0.00  0.00    +0.004 C 
ATOM     16  C   UNL     1       1.079   4.892  -5.305  0.00  0.00    +0.004 C 
ATOM     17  C   UNL     1       0.589   5.406  -7.593  0.00  0.00    +0.003 C 
ATOM     18  C   UNL     1       2.463   4.421  -5.580  0.00  0.00    +0.043 C 
ATOM     19  O   UNL     1       4.085   5.581  -6.880  0.00  0.00    -0.212 OA
ENDROOT
BRANCH   1  21
ATOM     20  C   UNL     1       2.766   3.572  -8.605  0.00  0.00    -0.012 C 
ATOM     21  C   UNL     1       2.599   4.213  -8.011  0.00  0.00    -0.049 C 
ENDBRANCH   1  21
BRANCH   2  22
ATOM     22  C   UNL     1       1.880   7.417  -7.702  0.00  0.00    +0.003 C 
ATOM     23  C   UNL     1       1.730   7.140  -9.202  0.00  0.00    +0.000 C 
ENDBRANCH   2  22
TORSDOF 2
ENDMDL
MODEL 4
REMARK VINA RESULT:      -8.1      1.604      2.464
REMARK  Name = 
REMARK  2 active torsions:
REMARK  status: ('A' for Active; 'I' for Inactive)
REMARK    1  A    between atoms: C_2  and  C_3
REMARK    2  A    between atoms: C_21  and  C_22
REMARK                            x       y       z     vdW  Elec       q    Type
REMARK                         _______ _______ _______ _____ _____    ______ ____
ROOT
ATOM      1  C   UNL     1       2.177   4.463  -7.735  0.00  0.00    +0.180 C 
ATOM      2  C   UNL     1       3.231   5.419  -7.444  0.00  0.00    +0.037 C 
ATOM      3  C   UNL     1       3.886   4.950  -6.024  0.00  0.00    +0.003 C 
ATOM      4  C   UNL     1       4.487   6.528  -5.930  0.00  0.00    +0.001 C 
ATOM      5  C   UNL     1       3.425   7.415  -4.999  0.00  0.00    +0.004 C 
ATOM      6  C   UNL     1       2.069   7.073  -5.831  0.00  0.00    +0.000 C 
ATOM      7  C   UNL     1       3.134   6.573  -3.574  0.00  0.00    +0.019 C 
ATOM      8  C   UNL     1       4.326   7.485  -2.952  0.00  0.00    -0.042 C 
ATOM      9  C   UNL     1       4.350   7.242  -1.673  0.00  0.00    +0.029 C 
ATOM     10  C   UNL     1       3.801   5.962  -1.191  0.00  0.00    +0.173 C 
ATOM     11  C   UNL     1       3.734   4.819  -2.127  0.00  0.00    +0.069 C 
ATOM     12  O   UNL     1       3.861   5.634   0.017  0.00  0.00    -0.291 OA
ATOM     13  C   UNL     1       5.531   7.551  -3.856  0.00  0.00    +0.022 C 
ATOM     14  C   UNL     1       4.140   5.305  -3.516  0.00  0.00    +0.012 C 
ATOM     15  C   UNL     1       5.639   6.369  -4.792  0.00  0.00    +0.004 C 
ATOM     16  C   UNL     1       2.369   4.977  -5.473  0.00  0.00    +0.004 C 
ATOM     17  C   UNL     1       2.422   6.685  -7.151  0.00  0.00    +0.003 C 
ATOM     18  C   UNL     1       1.748   3.956  -6.359  0.00  0.00    +0.043 C 
ATOM     19  O   UNL     1       2.482   3.401  -8.554  0.00  0.00    -0.212 OA
ENDROOT
BRANCH   1  21
ATOM     20  C   UNL     1       0.276   5.344  -8.802  0.00  0.00    -0.012 C 
ATOM     21  C   UNL     1       1.021   5.184  -8.342  0.00  0.00    -0.049 C 
ENDBRANCH   1  21
BRANCH   2  22
ATOM     22  C   UNL     1       4.262   5.791  -8.391  0.00  0.00    +0.003 C 
ATOM     23  C   UNL     1       3.705   6.792  -9.410  0.00  0.00    +0.000 C 
ENDBRANCH   2  22
TORSDOF 2
ENDMDL
MODEL 5
REMARK VINA RESULT:      -7.6      1.123      5.891
REMARK  Name = 
REMARK  2 active torsions:
REMARK  status: ('A' for Active; 'I' for Inactive)
REMARK    1  A    between atoms: C_2  and  C_3
REMARK    2  A    between atoms: C_21  and  C_22
REMARK                            x       y       z     vdW  Elec       q    Type
REMARK                         _______ _______ _______ _____ _____    ______ ____
ROOT
ATOM      1  C   UNL     1       2.413   6.032  -2.876  0.00  0.00    +0.180 C 
ATOM      2  C   UNL     1       3.153   6.633  -3.972  0.00  0.00    +0.037 C 
ATOM      3  C   UNL     1       2.074   6.855  -5.177  0.00  0.00    +0.003 C 
ATOM      4  C   UNL     1       3.423   6.953  -6.192  0.00  0.00    +0.001 C 
ATOM      5  C   UNL     1       3.662   5.444  -6.858  0.00  0.00    +0.004 C 
ATOM      6  C   UNL     1       3.706   4.598  -5.468  0.00  0.00    +0.000 C 
ATOM      7  C   UNL     1       2.204   4.907  -7.500  0.00  0.00    +0.019 C 
ATOM      8  C   UNL     1       2.747   5.530  -8.899  0.00  0.00    -0.042 C 
ATOM      9  C   UNL     1       1.898   5.172  -9.818  0.00  0.00    +0.029 C 
ATOM     10  C   UNL     1       0.520   4.844  -9.412  0.00  0.00    +0.173 C 
ATOM     11  C   UNL     1      -0.001   5.404  -8.146  0.00  0.00    +0.069 C 
ATOM     12  O   UNL     1      -0.365   4.566 -10.254  0.00  0.00    -0.291 OA
ATOM     13  C   UNL     1       3.326   6.911  -8.727  0.00  0.00    +0.022 C 
ATOM     14  C   UNL     1       1.138   6.124  -7.429  0.00  0.00    +0.012 C 
ATOM     15  C   UNL     1       2.781   7.640  -7.520  0.00  0.00    +0.004 C 
ATOM     16  C   UNL     1       1.734   5.289  -4.975  0.00  0.00    +0.004 C 
ATOM     17  C   UNL     1       4.053   5.473  -4.405  0.00  0.00    +0.003 C 
ATOM     18  C   UNL     1       1.261   5.302  -3.564  0.00  0.00    +0.043 C 
ATOM     19  O   UNL     1       1.924   6.866  -1.898  0.00  0.00    -0.212 OA
ENDROOT
BRANCH   1  21
ATOM     20  C   UNL     1       3.652   4.512  -1.578  0.00  0.00    -0.012 C 
ATOM     21  C   UNL     1       3.274   5.012  -2.211  0.00  0.00    -0.049 C 
ENDBRANCH   1  21
BRANCH   2  22
ATOM     22  C   UNL     1       4.008   7.793  -3.824  0.00  0.00    +0.003 C 
ATOM     23  C   UNL     1       5.463   7.353  -3.629  0.00  0.00    +0.000 C 
ENDBRANCH   2  22
TORSDOF 2
ENDMDL
MODEL 6
REMARK VINA RESULT:      -7.5      1.636      6.243
REMARK  Name = 
REMARK  2 active torsions:
REMARK  status: ('A' for Active; 'I' for Inactive)
REMARK    1  A    between atoms: C_2  and  C_3
REMARK    2  A    between atoms: C_21  and  C_22
REMARK                            x       y       z     vdW  Elec       q    Type
REMARK                         _______ _______ _______ _____ _____    ______ ____
ROOT
ATOM      1  C   UNL     1       3.913   5.240  -3.025  0.00  0.00    +0.180 C 
ATOM      2  C   UNL     1       2.687   5.491  -3.763  0.00  0.00    +0.037 C 
ATOM      3  C   UNL     1       2.847   4.706  -5.186  0.00  0.00    +0.003 C 
ATOM      4  C   UNL     1       1.621   5.730  -5.740  0.00  0.00    +0.001 C 
ATOM      5  C   UNL     1       2.352   7.013  -6.515  0.00  0.00    +0.004 C 
ATOM      6  C   UNL     1       3.346   7.459  -5.306  0.00  0.00    +0.000 C 
ATOM      7  C   UNL     1       3.462   6.406  -7.621  0.00  0.00    +0.019 C 
ATOM      8  C   UNL     1       2.254   6.538  -8.699  0.00  0.00    -0.042 C 
ATOM      9  C   UNL     1       2.769   6.280  -9.867  0.00  0.00    +0.029 C 
ATOM     10  C   UNL     1       3.995   5.463  -9.929  0.00  0.00    +0.173 C 
ATOM     11  C   UNL     1       4.302   4.555  -8.802  0.00  0.00    +0.069 C 
ATOM     12  O   UNL     1       4.499   5.116 -11.021  0.00  0.00    -0.291 OA
ATOM     13  C   UNL     1       0.952   5.990  -8.173  0.00  0.00    +0.022 C 
ATOM     14  C   UNL     1       3.284   4.798  -7.692  0.00  0.00    +0.012 C 
ATOM     15  C   UNL     1       1.136   4.956  -7.086  0.00  0.00    +0.004 C 
ATOM     16  C   UNL     1       4.242   5.507  -5.314  0.00  0.00    +0.004 C 
ATOM     17  C   UNL     1       2.820   6.984  -4.076  0.00  0.00    +0.003 C 
ATOM     18  C   UNL     1       4.955   4.991  -4.114  0.00  0.00    +0.043 C 
ATOM     19  O   UNL     1       3.917   4.201  -2.123  0.00  0.00    -0.212 OA
ENDROOT
BRANCH   1  21
ATOM     20  C   UNL     1       4.665   7.018  -1.684  0.00  0.00    -0.012 C 
ATOM     21  C   UNL     1       4.300   6.478  -2.290  0.00  0.00    -0.049 C 
ENDBRANCH   1  21
BRANCH   2  22
ATOM     22  C   UNL     1       1.362   5.297  -3.211  0.00  0.00    +0.003 C 
ATOM     23  C   UNL     1       1.066   6.372  -2.160  0.00  0.00    +0.000 C 
ENDBRANCH   2  22
TORSDOF 2
ENDMDL
MODEL 7
REMARK VINA RESULT:      -7.5      1.640      3.471
REMARK  Name = 
REMARK  2 active torsions:
REMARK  status: ('A' for Active; 'I' for Inactive)
REMARK    1  A    between atoms: C_2  and  C_3
REMARK    2  A    between atoms: C_21  and  C_22
REMARK                            x       y       z     vdW  Elec       q    Type
REMARK                         _______ _______ _______ _____ _____    ______ ____
ROOT
ATOM      1  C   UNL     1       3.265   6.177  -8.215  0.00  0.00    +0.180 C 
ATOM      2  C   UNL     1       1.886   6.167  -7.758  0.00  0.00    +0.037 C 
ATOM      3  C   UNL     1       1.886   6.915  -6.306  0.00  0.00    +0.003 C 
ATOM      4  C   UNL     1       0.402   6.146  -6.056  0.00  0.00    +0.001 C 
ATOM      5  C   UNL     1       0.698   4.751  -5.192  0.00  0.00    +0.004 C 
ATOM      6  C   UNL     1       1.824   4.118  -6.182  0.00  0.00    +0.000 C 
ATOM      7  C   UNL     1       1.644   5.141  -3.858  0.00  0.00    +0.019 C 
ATOM      8  C   UNL     1       0.232   5.248  -3.060  0.00  0.00    -0.042 C 
ATOM      9  C   UNL     1       0.529   5.409  -1.802  0.00  0.00    +0.029 C 
ATOM     10  C   UNL     1       1.844   5.976  -1.457  0.00  0.00    +0.173 C 
ATOM     11  C   UNL     1       2.547   6.804  -2.462  0.00  0.00    +0.069 C 
ATOM     12  O   UNL     1       2.163   6.227  -0.272  0.00  0.00    -0.291 OA
ATOM     13  C   UNL     1      -0.803   6.031  -3.826  0.00  0.00    +0.022 C 
ATOM     14  C   UNL     1       1.759   6.754  -3.769  0.00  0.00    +0.012 C 
ATOM     15  C   UNL     1      -0.203   7.006  -4.813  0.00  0.00    +0.004 C 
ATOM     16  C   UNL     1       3.048   5.863  -5.918  0.00  0.00    +0.004 C 
ATOM     17  C   UNL     1       1.668   4.678  -7.477  0.00  0.00    +0.003 C 
ATOM     18  C   UNL     1       4.081   6.228  -6.924  0.00  0.00    +0.043 C 
ATOM     19  O   UNL     1       3.654   7.191  -9.059  0.00  0.00    -0.212 OA
ENDROOT
BRANCH   1  21
ATOM     20  C   UNL     1       3.984   4.254  -9.361  0.00  0.00    -0.012 C 
ATOM     21  C   UNL     1       3.559   4.883  -8.897  0.00  0.00    -0.049 C 
ENDBRANCH   1  21
BRANCH   2  22
ATOM     22  C   UNL     1       0.768   6.608  -8.566  0.00  0.00    +0.003 C 
ATOM     23  C   UNL     1       0.238   5.445  -9.411  0.00  0.00    +0.000 C 
ENDBRANCH   2  22
TORSDOF 2
ENDMDL
MODEL 8
REMARK VINA RESULT:      -7.4      2.140      6.204
REMARK  Name = 
REMARK  2 active torsions:
REMARK  status: ('A' for Active; 'I' for Inactive)
REMARK    1  A    between atoms: C_2  and  C_3
REMARK    2  A    between atoms: C_21  and  C_22
REMARK                            x       y       z     vdW  Elec       q    Type
REMARK                         _______ _______ _______ _____ _____    ______ ____
ROOT
ATOM      1  C   UNL     1       1.287   6.073  -7.094  0.00  0.00    +0.180 C 
ATOM      2  C   UNL     1       2.675   6.296  -7.461  0.00  0.00    +0.037 C 
ATOM      3  C   UNL     1       2.651   6.887  -8.982  0.00  0.00    +0.003 C 
ATOM      4  C   UNL     1       4.271   6.409  -9.054  0.00  0.00    +0.001 C 
ATOM      5  C   UNL     1       4.319   4.907  -9.778  0.00  0.00    +0.004 C 
ATOM      6  C   UNL     1       3.259   4.160  -8.796  0.00  0.00    +0.000 C 
ATOM      7  C   UNL     1       3.430   4.972 -11.202  0.00  0.00    +0.019 C 
ATOM      8  C   UNL     1       4.856   5.282 -11.918  0.00  0.00    -0.042 C 
ATOM      9  C   UNL     1       4.639   5.260 -13.201  0.00  0.00    +0.029 C 
ATOM     10  C   UNL     1       3.272   5.520 -13.687  0.00  0.00    +0.173 C 
ATOM     11  C   UNL     1       2.343   6.282 -12.824  0.00  0.00    +0.069 C 
ATOM     12  O   UNL     1       3.010   5.588 -14.910  0.00  0.00    -0.291 OA
ATOM     13  C   UNL     1       5.655   6.325 -11.179  0.00  0.00    +0.022 C 
ATOM     14  C   UNL     1       3.015   6.514 -11.474  0.00  0.00    +0.012 C 
ATOM     15  C   UNL     1       4.800   7.250 -10.343  0.00  0.00    +0.004 C 
ATOM     16  C   UNL     1       1.749   5.593  -9.325  0.00  0.00    +0.004 C 
ATOM     17  C   UNL     1       3.197   4.860  -7.563  0.00  0.00    +0.003 C 
ATOM     18  C   UNL     1       0.585   5.838  -8.430  0.00  0.00    +0.043 C 
ATOM     19  O   UNL     1       0.642   7.065  -6.392  0.00  0.00    -0.212 OA
ENDROOT
BRANCH   1  21
ATOM     20  C   UNL     1       0.945   4.237  -5.667  0.00  0.00    -0.012 C 
ATOM     21  C   UNL     1       1.191   4.818  -6.294  0.00  0.00    -0.049 C 
ENDBRANCH   1  21
BRANCH   2  22
ATOM     22  C   UNL     1       3.617   7.025  -6.637  0.00  0.00    +0.003 C 
ATOM     23  C   UNL     1       4.286   6.077  -5.636  0.00  0.00    +0.000 C 
ENDBRANCH   2  22
TORSDOF 2
ENDMDL
MODEL 9
REMARK VINA RESULT:      -7.4      1.614      5.883
REMARK  Name = 
REMARK  2 active torsions:
REMARK  status: ('A' for Active; 'I' for Inactive)
REMARK    1  A    between atoms: C_2  and  C_3
REMARK    2  A    between atoms: C_21  and  C_22
REMARK                            x       y       z     vdW  Elec       q    Type
REMARK                         _______ _______ _______ _____ _____    ______ ____
ROOT
ATOM      1  C   UNL     1       4.610   5.581  -4.741  0.00  0.00    +0.180 C 
ATOM      2  C   UNL     1       3.159   5.601  -4.670  0.00  0.00    +0.037 C 
ATOM      3  C   UNL     1       2.633   4.681  -5.912  0.00  0.00    +0.003 C 
ATOM      4  C   UNL     1       1.159   5.486  -5.713  0.00  0.00    +0.001 C 
ATOM      5  C   UNL     1       1.124   6.747  -6.803  0.00  0.00    +0.004 C 
ATOM      6  C   UNL     1       2.532   7.441  -6.375  0.00  0.00    +0.000 C 
ATOM      7  C   UNL     1       1.523   6.150  -8.323  0.00  0.00    +0.019 C 
ATOM      8  C   UNL     1      -0.082   6.015  -8.540  0.00  0.00    -0.042 C 
ATOM      9  C   UNL     1      -0.261   5.686  -9.787  0.00  0.00    +0.029 C 
ATOM     10  C   UNL     1       0.840   5.016 -10.502  0.00  0.00    +0.173 C 
ATOM     11  C   UNL     1       1.858   4.286  -9.716  0.00  0.00    +0.069 C 
ATOM     12  O   UNL     1       0.708   4.607 -11.678  0.00  0.00    -0.291 OA
ATOM     13  C   UNL     1      -0.771   5.383  -7.357  0.00  0.00    +0.022 C 
ATOM     14  C   UNL     1       1.596   4.535  -8.233  0.00  0.00    +0.012 C 
ATOM     15  C   UNL     1       0.145   4.510  -6.530  0.00  0.00    +0.004 C 
ATOM     16  C   UNL     1       3.576   5.620  -6.827  0.00  0.00    +0.004 C 
ATOM     17  C   UNL     1       2.855   7.054  -5.048  0.00  0.00    +0.003 C 
ATOM     18  C   UNL     1       4.904   5.331  -6.219  0.00  0.00    +0.043 C 
ATOM     19  O   UNL     1       5.277   4.661  -3.966  0.00  0.00    -0.212 OA
ENDROOT
BRANCH   1  21
ATOM     20  C   UNL     1       5.665   7.574  -4.076  0.00  0.00    -0.012 C 
ATOM     21  C   UNL     1       5.132   6.933  -4.387  0.00  0.00    -0.049 C 
ENDBRANCH   1  21
BRANCH   2  22
ATOM     22  C   UNL     1       2.409   5.319  -3.463  0.00  0.00    +0.003 C 
ATOM     23  C   UNL     1       2.343   6.568  -2.579  0.00  0.00    +0.000 C 
ENDBRANCH   2  22
TORSDOF 2
ENDMDL
