MODEL 1
REMARK VINA RESULT:      11.6      0.000      0.000
REMARK  Name = 
REMARK  6 active torsions:
REMARK  status: ('A' for Active; 'I' for Inactive)
REMARK    1  A    between atoms: O_2  and  C_3
REMARK    2  A    between atoms: C_15  and  C_16
REMARK    3  A    between atoms: N_17  and  N_18
REMARK    4  A    between atoms: N_21  and  C_22
REMARK    5  A    between atoms: C_55  and  O_56
REMARK    6  A    between atoms: O_56  and  C_57
REMARK                            x       y       z     vdW  Elec       q    Type
REMARK                         _______ _______ _______ _____ _____    ______ ____
ROOT
ATOM      1  C   UNL     1      -2.968   7.358   1.214  0.00  0.00    +0.144 C 
ATOM      2  C   UNL     1      -1.717   8.474   1.615  0.00  0.00    +0.072 C 
ATOM      3  C   UNL     1      -2.787   9.651   1.822  0.00  0.00    +0.007 C 
ATOM      4  C   UNL     1      -1.831   7.956   3.232  0.00  0.00    +0.174 C 
ATOM      5  C   UNL     1      -0.334   8.608   3.735  0.00  0.00    +0.071 C 
ATOM      6  C   UNL     1      -0.557  10.079   3.120  0.00  0.00    +0.006 C 
ATOM      7  C   UNL     1       0.568   8.079   2.381  0.00  0.00    +0.158 C 
ATOM      8  O   UNL     1       1.228   7.007   3.240  0.00  0.00    -0.223 OA
ATOM      9  C   UNL     1       1.778   9.231   2.747  0.00  0.00    +0.061 C 
ATOM     10  C   UNL     1       1.673   9.931   1.301  0.00  0.00    +0.005 C 
ATOM     11  C   UNL     1       3.091   8.187   2.397  0.00  0.00    +0.158 C 
ATOM     12  O   UNL     1       2.587   7.791   1.020  0.00  0.00    -0.223 OA
ATOM     13  C   UNL     1       4.056   9.474   1.767  0.00  0.00    +0.053 C 
ATOM     14  C   UNL     1       4.628   9.853   3.254  0.00  0.00    +0.007 C 
ATOM     15  C   UNL     1       5.278   8.463   1.499  0.00  0.00    -0.024 C 
ATOM     16  C   UNL     1       5.168   8.028   0.241  0.00  0.00    -0.005 C 
ATOM     17  C   UNL     1       5.084   9.060  -0.743  0.00  0.00    -0.000 C 
ATOM     18  C   UNL     1       4.394   9.057  -1.880  0.00  0.00    +0.033 C 
ATOM     19  C   UNL     1       3.629  10.335  -2.100  0.00  0.00    +0.036 C 
ATOM     20  C   UNL     1       4.874   8.378  -3.104  0.00  0.00    +0.265 C 
ATOM     21  O   UNL     1       5.431   9.166  -3.945  0.00  0.00    -0.268 OA
ATOM     22  N   UNL     1       4.910   7.021  -3.096  0.00  0.00    -0.172 NA
ATOM     23  C   UNL     1       4.505   5.895  -3.821  0.00  0.00    +0.117 A 
ATOM     24  C   UNL     1       4.188   4.769  -3.053  0.00  0.00    +0.214 A 
ATOM     25  C   UNL     1       2.853   4.357  -3.065  0.00  0.00    +0.082 A 
ATOM     26  C   UNL     1       1.923   4.957  -3.935  0.00  0.00    +0.051 A 
ATOM     27  C   UNL     1       2.502   5.484  -5.089  0.00  0.00    +0.199 A 
ATOM     28  O   UNL     1       2.128   5.077  -6.391  0.00  0.00    -0.286 OA
ATOM     29  C   UNL     1       0.771   5.324  -3.301  0.00  0.00    +0.079 A 
ATOM     30  C   UNL     1      -0.521   5.736  -3.713  0.00  0.00    +0.251 C 
ATOM     31  C   UNL     1      -1.081   6.447  -2.513  0.00  0.00    +0.326 C 
ATOM     32  O   UNL     1      -0.143   6.239  -1.473  0.00  0.00    -0.443 OA
ATOM     33  C   UNL     1      -1.240   7.863  -2.939  0.00  0.00    +0.100 C 
ATOM     34  O   UNL     1      -2.261   5.862  -2.031  0.00  0.00    -0.440 OA
ATOM     35  C   UNL     1      -2.602   5.815  -0.677  0.00  0.00    +0.174 C 
ATOM     36  O   UNL     1      -1.376   5.406  -4.594  0.00  0.00    -0.284 OA
ATOM     37  C   UNL     1       0.632   5.163  -1.915  0.00  0.00    +0.145 A 
ATOM     38  C   UNL     1       1.251   4.100  -1.246  0.00  0.00    +0.051 A 
ATOM     39  C   UNL     1       1.057   3.866   0.197  0.00  0.00    +0.038 C 
ATOM     40  C   UNL     1       2.374   3.666  -1.951  0.00  0.00    +0.198 A 
ATOM     41  O   UNL     1       3.194   2.733  -1.353  0.00  0.00    -0.287 OA
ATOM     42  O   UNL     1       5.066   3.798  -2.557  0.00  0.00    -0.285 OA
ATOM     43  C   UNL     1       3.848   5.905  -5.064  0.00  0.00    +0.078 A 
ATOM     44  C   UNL     1      -1.971   6.441   0.287  0.00  0.00    +0.043 C 
ENDROOT
BRANCH  43  45
ATOM     45  C   UNL     1       4.601   6.037  -6.339  0.00  0.00    +0.122 C 
ATOM     46  N   UNL     1       4.087   6.519  -7.406  0.00  0.00    -0.180 NA
BRANCH  46  47
ATOM     47  N   UNL     1       4.623   6.107  -8.641  0.00  0.00    -0.230 N 
ATOM     48  C   UNL     1       4.831   7.035  -9.732  0.00  0.00    +0.128 C 
ATOM     49  C   UNL     1       4.018   6.758 -10.941  0.00  0.00    +0.096 C 
ATOM     50  N   UNL     1       3.580   5.410 -11.124  0.00  0.00    -0.271 NA
ATOM     51  C   UNL     1       3.146   4.759  -9.891  0.00  0.00    +0.096 C 
ATOM     52  C   UNL     1       4.386   4.717  -8.999  0.00  0.00    +0.128 C 
BRANCH  50  53
ATOM     53  C   UNL     1       2.470   5.452 -12.075  0.00  0.00    +0.058 C 
ATOM     54  C   UNL     1       1.502   6.580 -11.742  0.00  0.00    +0.016 C 
ATOM     55  C   UNL     1       0.671   6.607 -13.022  0.00  0.00    +0.001 C 
ATOM     56  C   UNL     1       1.616   6.205 -14.132  0.00  0.00    +0.001 C 
ATOM     57  C   UNL     1       2.944   5.905 -13.451  0.00  0.00    +0.016 C 
ENDBRANCH  50  53
ENDBRANCH  46  47
ENDBRANCH  43  45
BRANCH   1  59
ATOM     58  C   UNL     1      -4.085   7.625  -0.440  0.00  0.00    +0.174 C 
ATOM     59  O   UNL     1      -3.407   8.180  -0.014  0.00  0.00    -0.349 OA
ENDBRANCH   1  59
BRANCH   4  60
ATOM     60  O   UNL     1      -1.213   6.573   2.912  0.00  0.00    -0.452 OA
BRANCH  60  61
ATOM     61  C   UNL     1      -1.922   5.582   3.566  0.00  0.00    +0.317 C 
ATOM     62  O   UNL     1      -3.152   5.782   3.750  0.00  0.00    -0.250 OA
ATOM     63  C   UNL     1      -1.445   4.178   3.750  0.00  0.00    +0.121 C 
ENDBRANCH  60  61
ENDBRANCH   4  60
TORSDOF 6
ENDMDL
MODEL 2
REMARK VINA RESULT:      12.6      1.051      1.249
REMARK  Name = 
REMARK  6 active torsions:
REMARK  status: ('A' for Active; 'I' for Inactive)
REMARK    1  A    between atoms: O_2  and  C_3
REMARK    2  A    between atoms: C_15  and  C_16
REMARK    3  A    between atoms: N_17  and  N_18
REMARK    4  A    between atoms: N_21  and  C_22
REMARK    5  A    between atoms: C_55  and  O_56
REMARK    6  A    between atoms: O_56  and  C_57
REMARK                            x       y       z     vdW  Elec       q    Type
REMARK                         _______ _______ _______ _____ _____    ______ ____
ROOT
ATOM      1  C   UNL     1      -3.143   7.186   0.954  0.00  0.00    +0.144 C 
ATOM      2  C   UNL     1      -1.964   8.361   1.399  0.00  0.00    +0.072 C 
ATOM      3  C   UNL     1      -3.088   9.502   1.497  0.00  0.00    +0.007 C 
ATOM      4  C   UNL     1      -2.165   7.888   3.021  0.00  0.00    +0.174 C 
ATOM      5  C   UNL     1      -0.729   8.613   3.598  0.00  0.00    +0.071 C 
ATOM      6  C   UNL     1      -0.965  10.055   2.923  0.00  0.00    +0.006 C 
ATOM      7  C   UNL     1       0.279   8.078   2.324  0.00  0.00    +0.158 C 
ATOM      8  O   UNL     1       0.920   7.059   3.258  0.00  0.00    -0.223 OA
ATOM      9  C   UNL     1       1.419   9.287   2.730  0.00  0.00    +0.061 C 
ATOM     10  C   UNL     1       1.384   9.939   1.258  0.00  0.00    +0.005 C 
ATOM     11  C   UNL     1       2.790   8.285   2.500  0.00  0.00    +0.158 C 
ATOM     12  O   UNL     1       2.393   7.828   1.106  0.00  0.00    -0.223 OA
ATOM     13  C   UNL     1       3.747   9.589   1.892  0.00  0.00    +0.053 C 
ATOM     14  C   UNL     1       4.205  10.034   3.400  0.00  0.00    +0.007 C 
ATOM     15  C   UNL     1       5.019   8.619   1.737  0.00  0.00    -0.024 C 
ATOM     16  C   UNL     1       5.010   8.142   0.489  0.00  0.00    -0.005 C 
ATOM     17  C   UNL     1       4.953   9.140  -0.531  0.00  0.00    -0.000 C 
ATOM     18  C   UNL     1       4.339   9.076  -1.709  0.00  0.00    +0.033 C 
ATOM     19  C   UNL     1       3.544  10.316  -2.020  0.00  0.00    +0.036 C 
ATOM     20  C   UNL     1       4.924   8.379  -2.877  0.00  0.00    +0.265 C 
ATOM     21  O   UNL     1       5.506   9.163  -3.705  0.00  0.00    -0.268 OA
ATOM     22  N   UNL     1       5.010   7.026  -2.823  0.00  0.00    -0.172 NA
ATOM     23  C   UNL     1       4.695   5.864  -3.535  0.00  0.00    +0.117 A 
ATOM     24  C   UNL     1       4.370   4.750  -2.754  0.00  0.00    +0.214 A 
ATOM     25  C   UNL     1       3.054   4.286  -2.839  0.00  0.00    +0.082 A 
ATOM     26  C   UNL     1       2.163   4.823  -3.786  0.00  0.00    +0.051 A 
ATOM     27  C   UNL     1       2.796   5.337  -4.917  0.00  0.00    +0.199 A 
ATOM     28  O   UNL     1       2.524   4.877  -6.226  0.00  0.00    -0.286 OA
ATOM     29  C   UNL     1       0.959   5.164  -3.241  0.00  0.00    +0.079 A 
ATOM     30  C   UNL     1      -0.318   5.513  -3.749  0.00  0.00    +0.251 C 
ATOM     31  C   UNL     1      -0.982   6.237  -2.611  0.00  0.00    +0.326 C 
ATOM     32  O   UNL     1      -0.107   6.097  -1.506  0.00  0.00    -0.443 OA
ATOM     33  C   UNL     1      -1.164   7.633  -3.093  0.00  0.00    +0.100 C 
ATOM     34  O   UNL     1      -2.168   5.622  -2.189  0.00  0.00    -0.440 OA
ATOM     35  C   UNL     1      -2.597   5.602  -0.858  0.00  0.00    +0.174 C 
ATOM     36  O   UNL     1      -1.100   5.124  -4.672  0.00  0.00    -0.284 OA
ATOM     37  C   UNL     1       0.734   5.039  -1.862  0.00  0.00    +0.145 A 
ATOM     38  C   UNL     1       1.346   4.022  -1.120  0.00  0.00    +0.051 A 
ATOM     39  C   UNL     1       1.066   3.824   0.314  0.00  0.00    +0.038 C 
ATOM     40  C   UNL     1       2.528   3.611  -1.736  0.00  0.00    +0.198 A 
ATOM     41  O   UNL     1       3.341   2.728  -1.057  0.00  0.00    -0.287 OA
ATOM     42  O   UNL     1       5.248   3.829  -2.171  0.00  0.00    -0.285 OA
ATOM     43  C   UNL     1       4.122   5.811  -4.818  0.00  0.00    +0.078 A 
ATOM     44  C   UNL     1      -2.054   6.280   0.123  0.00  0.00    +0.043 C 
ENDROOT
BRANCH  43  45
ATOM     45  C   UNL     1       4.951   5.933  -6.046  0.00  0.00    +0.122 C 
ATOM     46  N   UNL     1       4.492   5.732  -7.221  0.00  0.00    -0.180 NA
BRANCH  46  47
ATOM     47  N   UNL     1       5.394   5.320  -8.221  0.00  0.00    -0.230 N 
ATOM     48  C   UNL     1       6.424   6.198  -8.732  0.00  0.00    +0.128 C 
ATOM     49  C   UNL     1       6.286   6.540 -10.168  0.00  0.00    +0.096 C 
ATOM     50  N   UNL     1       5.567   5.612 -10.982  0.00  0.00    -0.271 NA
ATOM     51  C   UNL     1       4.381   5.057 -10.334  0.00  0.00    +0.096 C 
ATOM     52  C   UNL     1       4.906   4.288  -9.122  0.00  0.00    +0.128 C 
BRANCH  50  53
ATOM     53  C   UNL     1       5.174   6.329 -12.194  0.00  0.00    +0.058 C 
ATOM     54  C   UNL     1       6.383   6.946 -12.886  0.00  0.00    +0.016 C 
ATOM     55  C   UNL     1       5.761   7.319 -14.229  0.00  0.00    +0.001 C 
ATOM     56  C   UNL     1       4.703   6.272 -14.497  0.00  0.00    +0.001 C 
ATOM     57  C   UNL     1       4.711   5.362 -13.277  0.00  0.00    +0.016 C 
ENDBRANCH  50  53
ENDBRANCH  46  47
ENDBRANCH  43  45
BRANCH   1  59
ATOM     58  C   UNL     1      -4.171   7.367  -0.768  0.00  0.00    +0.174 C 
ATOM     59  O   UNL     1      -3.530   7.953  -0.326  0.00  0.00    -0.349 OA
ENDBRANCH   1  59
BRANCH   4  60
ATOM     60  O   UNL     1      -1.476   6.521   2.787  0.00  0.00    -0.452 OA
BRANCH  60  61
ATOM     61  C   UNL     1      -2.121   5.541   3.520  0.00  0.00    +0.317 C 
ATOM     62  O   UNL     1      -3.349   5.711   3.750  0.00  0.00    -0.250 OA
ATOM     63  C   UNL     1      -1.588   4.165   3.750  0.00  0.00    +0.121 C 
ENDBRANCH  60  61
ENDBRANCH   4  60
TORSDOF 6
ENDMDL
