MODEL 1
REMARK VINA RESULT:      -0.0      0.000      0.000
REMARK  Name = 
REMARK  7 active torsions:
REMARK  status: ('A' for Active; 'I' for Inactive)
REMARK    1  A    between atoms: C_2  and  N_3
REMARK    2  A    between atoms: N_3  and  C_4
REMARK    3  A    between atoms: N_3  and  C_6
REMARK    4  A    between atoms: C_6  and  C_7
REMARK    5  A    between atoms: C_7  and  S_8
REMARK    6  A    between atoms: S_8  and  C_11
REMARK    7  A    between atoms: C_41  and  C_42
REMARK                            x       y       z     vdW  Elec       q    Type
REMARK                         _______ _______ _______ _____ _____    ______ ____
ROOT
ATOM      1  C   UNL     1       3.786   7.612  -5.245  0.00  0.00    +0.160 C 
ATOM      2  C   UNL     1       2.925   7.119  -3.874  0.00  0.00    +0.197 C 
ATOM      3  N   UNL     1       3.739   5.810  -3.641  0.00  0.00    -0.265 N 
ATOM      4  C   UNL     1       2.842   4.690  -3.790  0.00  0.00    +0.270 C 
ATOM      5  C   UNL     1       1.417   4.751  -3.439  0.00  0.00    +0.175 A 
ATOM      6  N   UNL     1       0.822   5.961  -3.501  0.00  0.00    -0.207 NA
ATOM      7  C   UNL     1      -0.094   6.100  -2.524  0.00  0.00    +0.213 A 
ATOM      8  C   UNL     1      -0.655   7.454  -2.376  0.00  0.00    +0.150 C 
ATOM      9  C   UNL     1      -1.574   7.599  -1.221  0.00  0.00    +0.163 C 
ATOM     10  C   UNL     1      -1.232   8.650  -0.204  0.00  0.00    +0.102 C 
ATOM     11  C   UNL     1      -1.840   7.986   1.197  0.00  0.00    +0.181 C 
ATOM     12  C   UNL     1      -0.485   7.203   1.621  0.00  0.00    +0.002 C 
ATOM     13  C   UNL     1      -0.569   7.082   2.949  0.00  0.00    -0.024 C 
ATOM     14  C   UNL     1      -0.070   8.396   3.397  0.00  0.00    -0.007 C 
ATOM     15  C   UNL     1       0.495   8.981   2.324  0.00  0.00    -0.003 C 
ATOM     16  C   UNL     1       1.760   8.369   1.921  0.00  0.00    +0.142 C 
ATOM     17  N   UNL     1       2.786   9.404   1.723  0.00  0.00    -0.197 NA
ATOM     18  C   UNL     1       3.914   9.235   2.597  0.00  0.00    +0.265 C 
ATOM     19  C   UNL     1       4.456   7.867   2.498  0.00  0.00    +0.055 C 
ATOM     20  C   UNL     1       4.068   7.230   1.384  0.00  0.00    -0.018 C 
ATOM     21  C   UNL     1       4.372   8.202   0.159  0.00  0.00    +0.062 C 
ATOM     22  C   UNL     1       4.381   7.063  -1.133  0.00  0.00    +0.173 C 
ATOM     23  O   UNL     1       3.150   7.772  -1.704  0.00  0.00    -0.451 OA
ATOM     24  C   UNL     1       5.975   8.021   0.324  0.00  0.00    +0.008 C 
ATOM     25  O   UNL     1       4.232  10.027   3.517  0.00  0.00    -0.268 OA
ATOM     26  C   UNL     1      -0.689   5.872   3.750  0.00  0.00    +0.031 C 
ATOM     27  O   UNL     1      -1.775   9.285   1.977  0.00  0.00    -0.218 OA
ATOM     28  O   UNL     1      -2.767   7.484  -1.497  0.00  0.00    -0.295 OA
ATOM     29  O   UNL     1      -0.346   4.878  -2.126  0.00  0.00    -0.435 OA
ATOM     30  C   UNL     1       0.576   4.045  -2.585  0.00  0.00    +0.205 A 
ATOM     31  O   UNL     1       3.394   3.589  -3.477  0.00  0.00    -0.268 OA
ATOM     32  C   UNL     1       5.062   5.963  -4.035  0.00  0.00    +0.096 C 
ATOM     33  C   UNL     1       3.753   8.136  -2.933  0.00  0.00    +0.337 C 
ATOM     34  O   UNL     1       3.592   9.329  -3.357  0.00  0.00    -0.248 OA
ATOM     35  C   UNL     1       5.220   7.255  -4.687  0.00  0.00    +0.047 C 
ENDROOT
BRANCH   1  36
ATOM     36  S   UNL     1       3.542   6.207  -6.408  0.00  0.00    -0.008 S 
ATOM     37  O   UNL     1       2.230   5.578  -6.267  0.00  0.00    -0.173 OA
ATOM     38  O   UNL     1       4.703   5.375  -6.627  0.00  0.00    -0.173 OA
BRANCH  36  39
ATOM     39  C   UNL     1       3.360   7.086  -7.974  0.00  0.00    +0.168 C 
BRANCH  39  40
ATOM     40  C   UNL     1       3.661   6.162  -9.140  0.00  0.00    +0.098 C 
BRANCH  40  41
ATOM     41  N   UNL     1       4.676   6.699 -10.026  0.00  0.00    -0.271 NA
BRANCH  41  43
ATOM     42  C   UNL     1       6.516   5.779  -9.715  0.00  0.00    +0.019 C 
ATOM     43  C   UNL     1       5.925   5.989  -9.931  0.00  0.00    +0.072 C 
ENDBRANCH  41  43
BRANCH  41  44
ATOM     44  C   UNL     1       4.157   6.459 -11.372  0.00  0.00    +0.072 C 
ATOM     45  C   UNL     1       2.794   5.830 -11.345  0.00  0.00    +0.019 C 
ENDBRANCH  41  44
ENDBRANCH  40  41
ENDBRANCH  39  40
ENDBRANCH  36  39
ENDBRANCH   1  36
BRANCH  22  46
ATOM     46  C   UNL     1       3.643   5.859  -0.366  0.00  0.00    +0.041 C 
ATOM     47  C   UNL     1       4.578   4.744  -0.322  0.00  0.00    +0.004 C 
ATOM     48  C   UNL     1       2.404   5.819   0.092  0.00  0.00    +0.004 C 
ENDBRANCH  22  46
TORSDOF 7
ENDMDL
MODEL 2
REMARK VINA RESULT:       0.2      3.878      7.988
REMARK  Name = 
REMARK  7 active torsions:
REMARK  status: ('A' for Active; 'I' for Inactive)
REMARK    1  A    between atoms: C_2  and  N_3
REMARK    2  A    between atoms: N_3  and  C_4
REMARK    3  A    between atoms: N_3  and  C_6
REMARK    4  A    between atoms: C_6  and  C_7
REMARK    5  A    between atoms: C_7  and  S_8
REMARK    6  A    between atoms: S_8  and  C_11
REMARK    7  A    between atoms: C_41  and  C_42
REMARK                            x       y       z     vdW  Elec       q    Type
REMARK                         _______ _______ _______ _____ _____    ______ ____
ROOT
ATOM      1  C   UNL     1       4.418  12.452   1.256  0.00  0.00    +0.160 C 
ATOM      2  C   UNL     1       4.148  10.808   0.961  0.00  0.00    +0.197 C 
ATOM      3  N   UNL     1       4.240  10.365   2.454  0.00  0.00    -0.265 N 
ATOM      4  C   UNL     1       5.367   9.474   2.590  0.00  0.00    +0.270 C 
ATOM      5  C   UNL     1       5.810   8.571   1.519  0.00  0.00    +0.175 A 
ATOM      6  N   UNL     1       5.538   8.946   0.251  0.00  0.00    -0.207 NA
ATOM      7  C   UNL     1       5.247   7.878  -0.517  0.00  0.00    +0.213 A 
ATOM      8  C   UNL     1       4.738   8.191  -1.862  0.00  0.00    +0.150 C 
ATOM      9  C   UNL     1       4.322   6.998  -2.638  0.00  0.00    +0.163 C 
ATOM     10  C   UNL     1       2.906   6.966  -3.136  0.00  0.00    +0.102 C 
ATOM     11  C   UNL     1       2.572   5.334  -3.130  0.00  0.00    +0.181 C 
ATOM     12  C   UNL     1       1.992   5.282  -1.617  0.00  0.00    +0.002 C 
ATOM     13  C   UNL     1       1.169   4.228  -1.610  0.00  0.00    -0.024 C 
ATOM     14  C   UNL     1      -0.064   4.813  -2.170  0.00  0.00    -0.007 C 
ATOM     15  C   UNL     1       0.103   6.149  -2.157  0.00  0.00    -0.003 C 
ATOM     16  C   UNL     1       0.056   6.733  -0.817  0.00  0.00    +0.142 C 
ATOM     17  N   UNL     1      -0.849   7.891  -0.797  0.00  0.00    -0.197 NA
ATOM     18  C   UNL     1      -1.942   7.719   0.120  0.00  0.00    +0.265 C 
ATOM     19  C   UNL     1      -1.451   7.354   1.462  0.00  0.00    +0.055 C 
ATOM     20  C   UNL     1      -0.153   7.643   1.640  0.00  0.00    -0.018 C 
ATOM     21  C   UNL     1       0.053   9.160   1.198  0.00  0.00    +0.062 C 
ATOM     22  C   UNL     1       1.529   9.512   2.013  0.00  0.00    +0.173 C 
ATOM     23  O   UNL     1       2.188   9.691   0.643  0.00  0.00    -0.451 OA
ATOM     24  C   UNL     1      -0.779   9.717   2.474  0.00  0.00    +0.008 C 
ATOM     25  O   UNL     1      -3.147   7.614  -0.214  0.00  0.00    -0.268 OA
ATOM     26  C   UNL     1       1.287   2.983  -0.864  0.00  0.00    +0.031 C 
ATOM     27  O   UNL     1       1.335   5.466  -3.995  0.00  0.00    -0.218 OA
ATOM     28  O   UNL     1       5.175   6.567  -3.413  0.00  0.00    -0.295 OA
ATOM     29  O   UNL     1       5.719   6.852   0.147  0.00  0.00    -0.435 OA
ATOM     30  C   UNL     1       5.998   7.199   1.395  0.00  0.00    +0.205 A 
ATOM     31  O   UNL     1       5.430   8.955   3.748  0.00  0.00    -0.268 OA
ATOM     32  C   UNL     1       3.770  11.358   3.303  0.00  0.00    +0.096 C 
ATOM     33  C   UNL     1       2.556  11.046   0.838  0.00  0.00    +0.337 C 
ATOM     34  O   UNL     1       2.326  11.878  -0.101  0.00  0.00    -0.248 OA
ATOM     35  C   UNL     1       3.487  12.557   2.527  0.00  0.00    +0.047 C 
ENDROOT
BRANCH   1  36
ATOM     36  S   UNL     1       6.068  12.455   2.071  0.00  0.00    -0.008 S 
ATOM     37  O   UNL     1       6.990  11.485   1.485  0.00  0.00    -0.173 OA
ATOM     38  O   UNL     1       6.049  12.633   3.506  0.00  0.00    -0.173 OA
BRANCH  36  39
ATOM     39  C   UNL     1       6.746  14.015   1.468  0.00  0.00    +0.168 C 
BRANCH  39  40
ATOM     40  C   UNL     1       5.951  14.512   0.273  0.00  0.00    +0.098 C 
BRANCH  40  41
ATOM     41  N   UNL     1       6.626  14.258  -0.985  0.00  0.00    -0.271 NA
BRANCH  41  43
ATOM     42  C   UNL     1       5.338  13.987  -2.596  0.00  0.00    +0.019 C 
ATOM     43  C   UNL     1       5.717  14.212  -2.100  0.00  0.00    +0.072 C 
ENDBRANCH  41  43
BRANCH  41  44
ATOM     44  C   UNL     1       7.483  15.425  -1.189  0.00  0.00    +0.072 C 
ATOM     45  C   UNL     1       8.797  15.056  -1.817  0.00  0.00    +0.019 C 
ENDBRANCH  41  44
ENDBRANCH  40  41
ENDBRANCH  39  40
ENDBRANCH  36  39
ENDBRANCH   1  36
BRANCH  22  46
ATOM     46  C   UNL     1       1.979   7.998   2.310  0.00  0.00    +0.041 C 
ATOM     47  C   UNL     1       1.882   7.798   3.748  0.00  0.00    +0.004 C 
ATOM     48  C   UNL     1       2.425   7.094   1.454  0.00  0.00    +0.004 C 
ENDBRANCH  22  46
TORSDOF 7
ENDMDL
MODEL 3
REMARK VINA RESULT:       0.3      0.600      1.157
REMARK  Name = 
REMARK  7 active torsions:
REMARK  status: ('A' for Active; 'I' for Inactive)
REMARK    1  A    between atoms: C_2  and  N_3
REMARK    2  A    between atoms: N_3  and  C_4
REMARK    3  A    between atoms: N_3  and  C_6
REMARK    4  A    between atoms: C_6  and  C_7
REMARK    5  A    between atoms: C_7  and  S_8
REMARK    6  A    between atoms: S_8  and  C_11
REMARK    7  A    between atoms: C_41  and  C_42
REMARK                            x       y       z     vdW  Elec       q    Type
REMARK                         _______ _______ _______ _____ _____    ______ ____
ROOT
ATOM      1  C   UNL     1       3.821   7.603  -5.251  0.00  0.00    +0.160 C 
ATOM      2  C   UNL     1       2.961   7.109  -3.880  0.00  0.00    +0.197 C 
ATOM      3  N   UNL     1       3.774   5.798  -3.649  0.00  0.00    -0.265 N 
ATOM      4  C   UNL     1       2.874   4.680  -3.799  0.00  0.00    +0.270 C 
ATOM      5  C   UNL     1       1.450   4.742  -3.445  0.00  0.00    +0.175 A 
ATOM      6  N   UNL     1       0.857   5.954  -3.504  0.00  0.00    -0.207 NA
ATOM      7  C   UNL     1      -0.057   6.093  -2.525  0.00  0.00    +0.213 A 
ATOM      8  C   UNL     1      -0.615   7.446  -2.374  0.00  0.00    +0.150 C 
ATOM      9  C   UNL     1      -1.531   7.591  -1.216  0.00  0.00    +0.163 C 
ATOM     10  C   UNL     1      -1.186   8.640  -0.199  0.00  0.00    +0.102 C 
ATOM     11  C   UNL     1      -1.793   7.975   1.203  0.00  0.00    +0.181 C 
ATOM     12  C   UNL     1      -0.437   7.189   1.622  0.00  0.00    +0.002 C 
ATOM     13  C   UNL     1      -0.520   7.066   2.951  0.00  0.00    -0.024 C 
ATOM     14  C   UNL     1      -0.017   8.378   3.400  0.00  0.00    -0.007 C 
ATOM     15  C   UNL     1       0.546   8.964   2.327  0.00  0.00    -0.003 C 
ATOM     16  C   UNL     1       1.810   8.351   1.920  0.00  0.00    +0.142 C 
ATOM     17  N   UNL     1       2.837   9.384   1.722  0.00  0.00    -0.197 NA
ATOM     18  C   UNL     1       3.966   9.212   2.593  0.00  0.00    +0.265 C 
ATOM     19  C   UNL     1       4.506   7.843   2.491  0.00  0.00    +0.055 C 
ATOM     20  C   UNL     1       4.115   7.209   1.376  0.00  0.00    -0.018 C 
ATOM     21  C   UNL     1       4.418   8.183   0.153  0.00  0.00    +0.062 C 
ATOM     22  C   UNL     1       4.423   7.046  -1.142  0.00  0.00    +0.173 C 
ATOM     23  O   UNL     1       3.191   7.757  -1.708  0.00  0.00    -0.451 OA
ATOM     24  C   UNL     1       6.021   7.999   0.314  0.00  0.00    +0.008 C 
ATOM     25  O   UNL     1       4.287  10.002   3.514  0.00  0.00    -0.268 OA
ATOM     26  C   UNL     1      -0.639   5.854   3.750  0.00  0.00    +0.031 C 
ATOM     27  O   UNL     1      -1.723   9.272   1.985  0.00  0.00    -0.218 OA
ATOM     28  O   UNL     1      -2.725   7.479  -1.491  0.00  0.00    -0.295 OA
ATOM     29  O   UNL     1      -0.310   4.870  -2.129  0.00  0.00    -0.435 OA
ATOM     30  C   UNL     1       0.609   4.036  -2.591  0.00  0.00    +0.205 A 
ATOM     31  O   UNL     1       3.425   3.577  -3.489  0.00  0.00    -0.268 OA
ATOM     32  C   UNL     1       5.096   5.950  -4.046  0.00  0.00    +0.096 C 
ATOM     33  C   UNL     1       3.793   8.123  -2.938  0.00  0.00    +0.337 C 
ATOM     34  O   UNL     1       3.633   9.316  -3.360  0.00  0.00    -0.248 OA
ATOM     35  C   UNL     1       5.255   7.243  -4.696  0.00  0.00    +0.047 C 
ENDROOT
BRANCH   1  36
ATOM     36  S   UNL     1       3.571   6.200  -6.416  0.00  0.00    -0.008 S 
ATOM     37  O   UNL     1       2.265   5.563  -6.263  0.00  0.00    -0.173 OA
ATOM     38  O   UNL     1       4.735   5.375  -6.650  0.00  0.00    -0.173 OA
BRANCH  36  39
ATOM     39  C   UNL     1       3.368   7.083  -7.977  0.00  0.00    +0.168 C 
BRANCH  39  40
ATOM     40  C   UNL     1       2.176   6.538  -8.744  0.00  0.00    +0.098 C 
BRANCH  40  41
ATOM     41  N   UNL     1       2.560   5.920  -9.998  0.00  0.00    -0.271 NA
BRANCH  41  43
ATOM     42  C   UNL     1       1.171   6.402 -11.471  0.00  0.00    +0.019 C 
ATOM     43  C   UNL     1       1.708   6.310 -11.091  0.00  0.00    +0.072 C 
ENDBRANCH  41  43
BRANCH  41  44
ATOM     44  C   UNL     1       3.888   6.461 -10.287  0.00  0.00    +0.072 C 
ATOM     45  C   UNL     1       4.741   5.484 -11.044  0.00  0.00    +0.019 C 
ENDBRANCH  41  44
ENDBRANCH  40  41
ENDBRANCH  39  40
ENDBRANCH  36  39
ENDBRANCH   1  36
BRANCH  22  46
ATOM     46  C   UNL     1       3.684   5.842  -0.375  0.00  0.00    +0.041 C 
ATOM     47  C   UNL     1       4.664   4.778  -0.207  0.00  0.00    +0.004 C 
ATOM     48  C   UNL     1       2.417   5.760  -0.009  0.00  0.00    +0.004 C 
ENDBRANCH  22  46
TORSDOF 7
ENDMDL
MODEL 4
REMARK VINA RESULT:       1.0      2.885      4.918
REMARK  Name = 
REMARK  7 active torsions:
REMARK  status: ('A' for Active; 'I' for Inactive)
REMARK    1  A    between atoms: C_2  and  N_3
REMARK    2  A    between atoms: N_3  and  C_4
REMARK    3  A    between atoms: N_3  and  C_6
REMARK    4  A    between atoms: C_6  and  C_7
REMARK    5  A    between atoms: C_7  and  S_8
REMARK    6  A    between atoms: S_8  and  C_11
REMARK    7  A    between atoms: C_41  and  C_42
REMARK                            x       y       z     vdW  Elec       q    Type
REMARK                         _______ _______ _______ _____ _____    ______ ____
ROOT
ATOM      1  C   UNL     1       2.645   7.376  -9.869  0.00  0.00    +0.160 C 
ATOM      2  C   UNL     1       2.317   6.553  -8.427  0.00  0.00    +0.197 C 
ATOM      3  N   UNL     1       3.494   5.538  -8.556  0.00  0.00    -0.265 N 
ATOM      4  C   UNL     1       2.934   4.212  -8.664  0.00  0.00    +0.270 C 
ATOM      5  C   UNL     1       1.679   3.815  -8.011  0.00  0.00    +0.175 A 
ATOM      6  N   UNL     1       0.775   4.790  -7.778  0.00  0.00    -0.207 NA
ATOM      7  C   UNL     1       0.125   4.578  -6.618  0.00  0.00    +0.213 A 
ATOM      8  C   UNL     1      -0.735   5.685  -6.169  0.00  0.00    +0.150 C 
ATOM      9  C   UNL     1      -1.347   5.466  -4.835  0.00  0.00    +0.163 C 
ATOM     10  C   UNL     1      -1.073   6.499  -3.780  0.00  0.00    +0.102 C 
ATOM     11  C   UNL     1      -1.111   5.587  -2.386  0.00  0.00    +0.181 C 
ATOM     12  C   UNL     1       0.469   5.223  -2.374  0.00  0.00    +0.002 C 
ATOM     13  C   UNL     1       0.749   4.990  -1.088  0.00  0.00    -0.024 C 
ATOM     14  C   UNL     1       0.958   6.359  -0.579  0.00  0.00    -0.007 C 
ATOM     15  C   UNL     1       1.058   7.160  -1.657  0.00  0.00    -0.003 C 
ATOM     16  C   UNL     1       2.305   6.989  -2.401  0.00  0.00    +0.142 C 
ATOM     17  N   UNL     1       2.922   8.296  -2.668  0.00  0.00    -0.197 NA
ATOM     18  C   UNL     1       4.231   8.416  -2.087  0.00  0.00    +0.265 C 
ATOM     19  C   UNL     1       5.090   7.286  -2.487  0.00  0.00    +0.055 C 
ATOM     20  C   UNL     1       4.633   6.640  -3.570  0.00  0.00    -0.018 C 
ATOM     21  C   UNL     1       4.347   7.741  -4.685  0.00  0.00    +0.062 C 
ATOM     22  C   UNL     1       4.355   6.750  -6.095  0.00  0.00    +0.173 C 
ATOM     23  O   UNL     1       2.875   7.091  -6.286  0.00  0.00    -0.451 OA
ATOM     24  C   UNL     1       5.927   8.042  -4.893  0.00  0.00    +0.008 C 
ATOM     25  O   UNL     1       4.531   9.201  -1.156  0.00  0.00    -0.268 OA
ATOM     26  C   UNL     1       1.169   3.748  -0.455  0.00  0.00    +0.031 C 
ATOM     27  O   UNL     1      -1.220   6.788  -1.467  0.00  0.00    -0.218 OA
ATOM     28  O   UNL     1      -2.492   5.016  -4.864  0.00  0.00    -0.295 OA
ATOM     29  O   UNL     1       0.327   3.313  -6.349  0.00  0.00    -0.435 OA
ATOM     30  C   UNL     1       1.302   2.831  -7.104  0.00  0.00    +0.205 A 
ATOM     31  O   UNL     1       3.830   3.310  -8.630  0.00  0.00    -0.268 OA
ATOM     32  C   UNL     1       4.584   6.110  -9.198  0.00  0.00    +0.096 C 
ATOM     33  C   UNL     1       3.034   7.704  -7.553  0.00  0.00    +0.337 C 
ATOM     34  O   UNL     1       2.450   8.819  -7.765  0.00  0.00    -0.248 OA
ATOM     35  C   UNL     1       4.213   7.432  -9.684  0.00  0.00    +0.047 C 
ENDROOT
BRANCH   1  36
ATOM     36  S   UNL     1       2.524   6.047 -11.135  0.00  0.00    -0.008 S 
ATOM     37  O   UNL     1       1.438   5.107 -10.866  0.00  0.00    -0.173 OA
ATOM     38  O   UNL     1       3.786   5.544 -11.628  0.00  0.00    -0.173 OA
BRANCH  36  39
ATOM     39  C   UNL     1       1.868   6.971 -12.541  0.00  0.00    +0.168 C 
BRANCH  39  40
ATOM     40  C   UNL     1       2.416   6.415 -13.843  0.00  0.00    +0.098 C 
BRANCH  40  41
ATOM     41  N   UNL     1       1.368   5.935 -14.725  0.00  0.00    -0.271 NA
BRANCH  41  43
ATOM     42  C   UNL     1       0.655   4.065 -14.159  0.00  0.00    +0.019 C 
ATOM     43  C   UNL     1       0.773   4.710 -14.260  0.00  0.00    +0.072 C 
ENDBRANCH  41  43
BRANCH  41  44
ATOM     44  C   UNL     1       0.328   6.961 -14.655  0.00  0.00    +0.072 C 
ATOM     45  C   UNL     1       0.349   7.866 -15.854  0.00  0.00    +0.019 C 
ENDBRANCH  41  44
ENDBRANCH  40  41
ENDBRANCH  39  40
ENDBRANCH  36  39
ENDBRANCH   1  36
BRANCH  22  46
ATOM     46  C   UNL     1       4.191   5.329  -5.362  0.00  0.00    +0.041 C 
ATOM     47  C   UNL     1       5.441   4.605  -5.547  0.00  0.00    +0.004 C 
ATOM     48  C   UNL     1       3.124   4.841  -4.754  0.00  0.00    +0.004 C 
ENDBRANCH  22  46
TORSDOF 7
ENDMDL
MODEL 5
REMARK VINA RESULT:       1.4      2.752      5.785
REMARK  Name = 
REMARK  7 active torsions:
REMARK  status: ('A' for Active; 'I' for Inactive)
REMARK    1  A    between atoms: C_2  and  N_3
REMARK    2  A    between atoms: N_3  and  C_4
REMARK    3  A    between atoms: N_3  and  C_6
REMARK    4  A    between atoms: C_6  and  C_7
REMARK    5  A    between atoms: C_7  and  S_8
REMARK    6  A    between atoms: S_8  and  C_11
REMARK    7  A    between atoms: C_41  and  C_42
REMARK                            x       y       z     vdW  Elec       q    Type
REMARK                         _______ _______ _______ _____ _____    ______ ____
ROOT
ATOM      1  C   UNL     1       2.659   3.795  -7.962  0.00  0.00    +0.160 C 
ATOM      2  C   UNL     1       2.462   4.793  -6.609  0.00  0.00    +0.197 C 
ATOM      3  N   UNL     1       2.270   6.114  -7.416  0.00  0.00    -0.265 N 
ATOM      4  C   UNL     1       3.357   7.004  -7.086  0.00  0.00    +0.270 C 
ATOM      5  C   UNL     1       4.003   7.027  -5.767  0.00  0.00    +0.175 A 
ATOM      6  N   UNL     1       3.977   5.882  -5.052  0.00  0.00    -0.207 NA
ATOM      7  C   UNL     1       3.846   6.138  -3.736  0.00  0.00    +0.213 A 
ATOM      8  C   UNL     1       3.602   4.959  -2.888  0.00  0.00    +0.150 C 
ATOM      9  C   UNL     1       3.351   5.287  -1.463  0.00  0.00    +0.163 C 
ATOM     10  C   UNL     1       2.057   4.809  -0.870  0.00  0.00    +0.102 C 
ATOM     11  C   UNL     1       1.740   5.987   0.264  0.00  0.00    +0.181 C 
ATOM     12  C   UNL     1       0.881   6.949  -0.720  0.00  0.00    +0.002 C 
ATOM     13  C   UNL     1       0.081   7.637   0.101  0.00  0.00    -0.024 C 
ATOM     14  C   UNL     1      -1.027   6.683   0.300  0.00  0.00    -0.007 C 
ATOM     15  C   UNL     1      -0.876   5.717  -0.626  0.00  0.00    -0.003 C 
ATOM     16  C   UNL     1      -1.182   6.157  -1.986  0.00  0.00    +0.142 C 
ATOM     17  N   UNL     1      -2.084   5.197  -2.641  0.00  0.00    -0.197 NA
ATOM     18  C   UNL     1      -3.331   5.794  -3.034  0.00  0.00    +0.265 C 
ATOM     19  C   UNL     1      -3.102   7.006  -3.842  0.00  0.00    +0.055 C 
ATOM     20  C   UNL     1      -1.865   7.067  -4.356  0.00  0.00    -0.018 C 
ATOM     21  C   UNL     1      -1.590   5.673  -5.077  0.00  0.00    +0.062 C 
ATOM     22  C   UNL     1      -0.299   6.127  -6.124  0.00  0.00    +0.173 C 
ATOM     23  O   UNL     1       0.608   5.174  -5.341  0.00  0.00    -0.451 OA
ATOM     24  C   UNL     1      -2.655   5.994  -6.258  0.00  0.00    +0.008 C 
ATOM     25  O   UNL     1      -4.448   5.505  -2.543  0.00  0.00    -0.268 OA
ATOM     26  C   UNL     1       0.063   9.068   0.371  0.00  0.00    +0.031 C 
ATOM     27  O   UNL     1       0.690   5.169   0.990  0.00  0.00    -0.218 OA
ATOM     28  O   UNL     1       4.340   5.203  -0.736  0.00  0.00    -0.295 OA
ATOM     29  O   UNL     1       4.190   7.394  -3.604  0.00  0.00    -0.435 OA
ATOM     30  C   UNL     1       4.222   7.990  -4.787  0.00  0.00    +0.205 A 
ATOM     31  O   UNL     1       3.201   8.159  -7.593  0.00  0.00    -0.268 OA
ATOM     32  C   UNL     1       1.639   5.875  -8.629  0.00  0.00    +0.096 C 
ATOM     33  C   UNL     1       0.922   4.340  -6.443  0.00  0.00    +0.337 C 
ATOM     34  O   UNL     1       0.870   3.076  -6.280  0.00  0.00    -0.248 OA
ATOM     35  C   UNL     1       1.501   4.438  -8.822  0.00  0.00    +0.047 C 
ENDROOT
BRANCH   1  36
ATOM     36  S   UNL     1       4.122   4.532  -8.801  0.00  0.00    -0.008 S 
ATOM     37  O   UNL     1       5.023   3.523  -9.355  0.00  0.00    -0.173 OA
ATOM     38  O   UNL     1       4.679   5.702  -8.162  0.00  0.00    -0.173 OA
BRANCH  36  39
ATOM     39  C   UNL     1       3.359   5.200 -10.295  0.00  0.00    +0.168 C 
BRANCH  39  40
ATOM     40  C   UNL     1       4.213   6.312 -10.876  0.00  0.00    +0.098 C 
BRANCH  40  41
ATOM     41  N   UNL     1       5.416   5.811 -11.513  0.00  0.00    -0.271 NA
BRANCH  41  43
ATOM     42  C   UNL     1       5.278   5.266 -13.516  0.00  0.00    +0.019 C 
ATOM     43  C   UNL     1       5.188   5.388 -12.869  0.00  0.00    +0.072 C 
ENDBRANCH  41  43
BRANCH  41  44
ATOM     44  C   UNL     1       6.309   6.968 -11.578  0.00  0.00    +0.072 C 
ATOM     45  C   UNL     1       7.411   6.886 -10.560  0.00  0.00    +0.019 C 
ENDBRANCH  41  44
ENDBRANCH  40  41
ENDBRANCH  39  40
ENDBRANCH  36  39
ENDBRANCH   1  36
BRANCH  22  46
ATOM     46  C   UNL     1       0.097   7.504  -5.396  0.00  0.00    +0.041 C 
ATOM     47  C   UNL     1       0.871   7.154  -4.214  0.00  0.00    +0.004 C 
ATOM     48  C   UNL     1      -0.248   8.735  -5.731  0.00  0.00    +0.004 C 
ENDBRANCH  22  46
TORSDOF 7
ENDMDL
MODEL 6
REMARK VINA RESULT:       1.6      2.053      2.513
REMARK  Name = 
REMARK  7 active torsions:
REMARK  status: ('A' for Active; 'I' for Inactive)
REMARK    1  A    between atoms: C_2  and  N_3
REMARK    2  A    between atoms: N_3  and  C_4
REMARK    3  A    between atoms: N_3  and  C_6
REMARK    4  A    between atoms: C_6  and  C_7
REMARK    5  A    between atoms: C_7  and  S_8
REMARK    6  A    between atoms: S_8  and  C_11
REMARK    7  A    between atoms: C_41  and  C_42
REMARK                            x       y       z     vdW  Elec       q    Type
REMARK                         _______ _______ _______ _____ _____    ______ ____
ROOT
ATOM      1  C   UNL     1       4.221   7.181  -4.820  0.00  0.00    +0.160 C 
ATOM      2  C   UNL     1       3.310   6.778  -3.451  0.00  0.00    +0.197 C 
ATOM      3  N   UNL     1       4.471   6.058  -2.698  0.00  0.00    -0.265 N 
ATOM      4  C   UNL     1       4.106   4.672  -2.531  0.00  0.00    +0.270 C 
ATOM      5  C   UNL     1       2.717   4.222  -2.360  0.00  0.00    +0.175 A 
ATOM      6  N   UNL     1       1.752   4.998  -2.898  0.00  0.00    -0.207 NA
ATOM      7  C   UNL     1       0.651   5.006  -2.122  0.00  0.00    +0.213 A 
ATOM      8  C   UNL     1      -0.384   5.979  -2.511  0.00  0.00    +0.150 C 
ATOM      9  C   UNL     1      -1.531   6.041  -1.573  0.00  0.00    +0.163 C 
ATOM     10  C   UNL     1      -1.840   7.377  -0.961  0.00  0.00    +0.102 C 
ATOM     11  C   UNL     1      -2.467   6.941   0.520  0.00  0.00    +0.181 C 
ATOM     12  C   UNL     1      -1.055   6.956   1.317  0.00  0.00    +0.002 C 
ATOM     13  C   UNL     1      -1.391   7.189   2.590  0.00  0.00    -0.024 C 
ATOM     14  C   UNL     1      -1.524   8.658   2.596  0.00  0.00    -0.007 C 
ATOM     15  C   UNL     1      -0.984   9.099   1.445  0.00  0.00    -0.003 C 
ATOM     16  C   UNL     1       0.474   8.992   1.403  0.00  0.00    +0.142 C 
ATOM     17  N   UNL     1       1.066  10.261   0.954  0.00  0.00    -0.197 NA
ATOM     18  C   UNL     1       1.945  10.836   1.934  0.00  0.00    +0.265 C 
ATOM     19  C   UNL     1       2.957   9.857   2.372  0.00  0.00    +0.055 C 
ATOM     20  C   UNL     1       3.096   8.831   1.519  0.00  0.00    -0.018 C 
ATOM     21  C   UNL     1       3.295   9.454   0.067  0.00  0.00    +0.062 C 
ATOM     22  C   UNL     1       4.016   8.113  -0.739  0.00  0.00    +0.173 C 
ATOM     23  O   UNL     1       2.777   8.045  -1.635  0.00  0.00    -0.451 OA
ATOM     24  C   UNL     1       4.769  10.020   0.436  0.00  0.00    +0.008 C 
ATOM     25  O   UNL     1       1.730  11.911   2.544  0.00  0.00    -0.268 OA
ATOM     26  C   UNL     1      -1.239   6.320   3.748  0.00  0.00    +0.031 C 
ATOM     27  O   UNL     1      -3.062   8.308   0.799  0.00  0.00    -0.218 OA
ATOM     28  O   UNL     1      -2.501   5.362  -1.904  0.00  0.00    -0.295 OA
ATOM     29  O   UNL     1       0.780   3.958  -1.349  0.00  0.00    -0.435 OA
ATOM     30  C   UNL     1       2.022   3.499  -1.397  0.00  0.00    +0.205 A 
ATOM     31  O   UNL     1       4.935   4.043  -1.801  0.00  0.00    -0.268 OA
ATOM     32  C   UNL     1       5.698   6.637  -2.994  0.00  0.00    +0.096 C 
ATOM     33  C   UNL     1       3.469   8.268  -2.851  0.00  0.00    +0.337 C 
ATOM     34  O   UNL     1       2.985   9.109  -3.679  0.00  0.00    -0.248 OA
ATOM     35  C   UNL     1       5.517   7.635  -4.038  0.00  0.00    +0.047 C 
ENDROOT
BRANCH   1  36
ATOM     36  S   UNL     1       4.781   5.540  -5.435  0.00  0.00    -0.008 S 
ATOM     37  O   UNL     1       5.164   4.632  -4.356  0.00  0.00    -0.173 OA
ATOM     38  O   UNL     1       5.570   5.569  -6.646  0.00  0.00    -0.173 OA
BRANCH  36  39
ATOM     39  C   UNL     1       3.215   4.825  -5.977  0.00  0.00    +0.168 C 
BRANCH  39  40
ATOM     40  C   UNL     1       2.408   5.846  -6.759  0.00  0.00    +0.098 C 
BRANCH  40  41
ATOM     41  N   UNL     1       0.993   5.529  -6.790  0.00  0.00    -0.271 NA
BRANCH  41  43
ATOM     42  C   UNL     1      -0.004   6.999  -5.708  0.00  0.00    +0.019 C 
ATOM     43  C   UNL     1       0.202   6.448  -6.015  0.00  0.00    +0.072 C 
ENDBRANCH  41  43
BRANCH  41  44
ATOM     44  C   UNL     1       0.603   5.713  -8.188  0.00  0.00    +0.072 C 
ATOM     45  C   UNL     1       1.396   4.834  -9.113  0.00  0.00    +0.019 C 
ENDBRANCH  41  44
ENDBRANCH  40  41
ENDBRANCH  39  40
ENDBRANCH  36  39
ENDBRANCH   1  36
BRANCH  22  46
ATOM     46  C   UNL     1       3.616   6.979   0.327  0.00  0.00    +0.041 C 
ATOM     47  C   UNL     1       4.847   6.541   0.969  0.00  0.00    +0.004 C 
ATOM     48  C   UNL     1       2.422   6.462   0.563  0.00  0.00    +0.004 C 
ENDBRANCH  22  46
TORSDOF 7
ENDMDL
MODEL 7
REMARK VINA RESULT:       1.8      3.030      6.410
REMARK  Name = 
REMARK  7 active torsions:
REMARK  status: ('A' for Active; 'I' for Inactive)
REMARK    1  A    between atoms: C_2  and  N_3
REMARK    2  A    between atoms: N_3  and  C_4
REMARK    3  A    between atoms: N_3  and  C_6
REMARK    4  A    between atoms: C_6  and  C_7
REMARK    5  A    between atoms: C_7  and  S_8
REMARK    6  A    between atoms: S_8  and  C_11
REMARK    7  A    between atoms: C_41  and  C_42
REMARK                            x       y       z     vdW  Elec       q    Type
REMARK                         _______ _______ _______ _____ _____    ______ ____
ROOT
ATOM      1  C   UNL     1       0.959   4.281  -9.060  0.00  0.00    +0.160 C 
ATOM      2  C   UNL     1       1.477   5.042  -7.640  0.00  0.00    +0.197 C 
ATOM      3  N   UNL     1       1.045   6.479  -8.067  0.00  0.00    -0.265 N 
ATOM      4  C   UNL     1       2.230   7.298  -8.149  0.00  0.00    +0.270 C 
ATOM      5  C   UNL     1       3.404   7.101  -7.288  0.00  0.00    +0.175 A 
ATOM      6  N   UNL     1       3.613   5.853  -6.815  0.00  0.00    -0.207 NA
ATOM      7  C   UNL     1       4.114   5.888  -5.565  0.00  0.00    +0.213 A 
ATOM      8  C   UNL     1       4.188   4.587  -4.881  0.00  0.00    +0.150 C 
ATOM      9  C   UNL     1       4.637   4.676  -3.470  0.00  0.00    +0.163 C 
ATOM     10  C   UNL     1       3.719   4.112  -2.425  0.00  0.00    +0.102 C 
ATOM     11  C   UNL     1       4.045   5.088  -1.115  0.00  0.00    +0.181 C 
ATOM     12  C   UNL     1       2.913   6.202  -1.442  0.00  0.00    +0.002 C 
ATOM     13  C   UNL     1       2.629   6.748  -0.255  0.00  0.00    -0.024 C 
ATOM     14  C   UNL     1       1.660   5.778   0.291  0.00  0.00    -0.007 C 
ATOM     15  C   UNL     1       1.298   4.979  -0.729  0.00  0.00    -0.003 C 
ATOM     16  C   UNL     1       0.444   5.638  -1.717  0.00  0.00    +0.142 C 
ATOM     17  N   UNL     1      -0.729   4.803  -2.014  0.00  0.00    -0.197 NA
ATOM     18  C   UNL     1      -1.967   5.461  -1.699  0.00  0.00    +0.265 C 
ATOM     19  C   UNL     1      -2.035   6.789  -2.336  0.00  0.00    +0.055 C 
ATOM     20  C   UNL     1      -1.164   6.929  -3.347  0.00  0.00    -0.018 C 
ATOM     21  C   UNL     1      -1.357   5.672  -4.307  0.00  0.00    +0.062 C 
ATOM     22  C   UNL     1      -0.650   6.288  -5.752  0.00  0.00    +0.173 C 
ATOM     23  O   UNL     1       0.435   5.216  -5.622  0.00  0.00    -0.451 OA
ATOM     24  C   UNL     1      -2.812   6.188  -4.804  0.00  0.00    +0.008 C 
ATOM     25  O   UNL     1      -2.760   5.099  -0.796  0.00  0.00    -0.268 OA
ATOM     26  C   UNL     1       2.848   8.115   0.197  0.00  0.00    +0.031 C 
ATOM     27  O   UNL     1       3.377   4.165  -0.114  0.00  0.00    -0.218 OA
ATOM     28  O   UNL     1       5.838   4.470  -3.301  0.00  0.00    -0.295 OA
ATOM     29  O   UNL     1       4.578   7.105  -5.426  0.00  0.00    -0.435 OA
ATOM     30  C   UNL     1       4.118   7.888  -6.391  0.00  0.00    +0.205 A 
ATOM     31  O   UNL     1       1.953   8.521  -8.355  0.00  0.00    -0.268 OA
ATOM     32  C   UNL     1      -0.085   6.446  -8.874  0.00  0.00    +0.096 C 
ATOM     33  C   UNL     1       0.148   4.574  -6.852  0.00  0.00    +0.337 C 
ATOM     34  O   UNL     1       0.076   3.300  -6.868  0.00  0.00    -0.248 OA
ATOM     35  C   UNL     1      -0.408   5.061  -9.187  0.00  0.00    +0.047 C 
ENDROOT
BRANCH   1  36
ATOM     36  S   UNL     1       1.936   5.140 -10.362  0.00  0.00    -0.008 S 
ATOM     37  O   UNL     1       3.355   4.795 -10.325  0.00  0.00    -0.173 OA
ATOM     38  O   UNL     1       1.548   6.507 -10.626  0.00  0.00    -0.173 OA
BRANCH  36  39
ATOM     39  C   UNL     1       1.384   4.261 -11.840  0.00  0.00    +0.168 C 
BRANCH  39  40
ATOM     40  C   UNL     1       0.693   5.215 -12.798  0.00  0.00    +0.098 C 
BRANCH  40  41
ATOM     41  N   UNL     1       1.394   5.334 -14.062  0.00  0.00    -0.271 NA
BRANCH  41  43
ATOM     42  C   UNL     1       0.388   6.653 -15.318  0.00  0.00    +0.019 C 
ATOM     43  C   UNL     1       0.677   6.136 -15.018  0.00  0.00    +0.072 C 
ENDBRANCH  41  43
BRANCH  41  44
ATOM     44  C   UNL     1       2.621   6.063 -13.738  0.00  0.00    +0.072 C 
ATOM     45  C   UNL     1       3.851   5.297 -14.134  0.00  0.00    +0.019 C 
ENDBRANCH  41  44
ENDBRANCH  40  41
ENDBRANCH  39  40
ENDBRANCH  36  39
ENDBRANCH   1  36
BRANCH  22  46
ATOM     46  C   UNL     1       0.141   7.524  -5.097  0.00  0.00    +0.041 C 
ATOM     47  C   UNL     1      -0.695   8.704  -5.266  0.00  0.00    +0.004 C 
ATOM     48  C   UNL     1       1.348   7.530  -4.559  0.00  0.00    +0.004 C 
ENDBRANCH  22  46
TORSDOF 7
ENDMDL
MODEL 8
REMARK VINA RESULT:       2.2      2.867      6.122
REMARK  Name = 
REMARK  7 active torsions:
REMARK  status: ('A' for Active; 'I' for Inactive)
REMARK    1  A    between atoms: C_2  and  N_3
REMARK    2  A    between atoms: N_3  and  C_4
REMARK    3  A    between atoms: N_3  and  C_6
REMARK    4  A    between atoms: C_6  and  C_7
REMARK    5  A    between atoms: C_7  and  S_8
REMARK    6  A    between atoms: S_8  and  C_11
REMARK    7  A    between atoms: C_41  and  C_42
REMARK                            x       y       z     vdW  Elec       q    Type
REMARK                         _______ _______ _______ _____ _____    ______ ____
ROOT
ATOM      1  C   UNL     1       1.205   4.253  -9.102  0.00  0.00    +0.160 C 
ATOM      2  C   UNL     1       1.650   5.035  -7.669  0.00  0.00    +0.197 C 
ATOM      3  N   UNL     1       1.194   6.457  -8.119  0.00  0.00    -0.265 N 
ATOM      4  C   UNL     1       2.358   7.309  -8.164  0.00  0.00    +0.270 C 
ATOM      5  C   UNL     1       3.505   7.149  -7.261  0.00  0.00    +0.175 A 
ATOM      6  N   UNL     1       3.733   5.911  -6.774  0.00  0.00    -0.207 NA
ATOM      7  C   UNL     1       4.188   5.966  -5.507  0.00  0.00    +0.213 A 
ATOM      8  C   UNL     1       4.274   4.670  -4.814  0.00  0.00    +0.150 C 
ATOM      9  C   UNL     1       4.670   4.779  -3.388  0.00  0.00    +0.163 C 
ATOM     10  C   UNL     1       3.731   4.194  -2.372  0.00  0.00    +0.102 C 
ATOM     11  C   UNL     1       3.984   5.185  -1.057  0.00  0.00    +0.181 C 
ATOM     12  C   UNL     1       2.832   6.265  -1.431  0.00  0.00    +0.002 C 
ATOM     13  C   UNL     1       2.491   6.809  -0.258  0.00  0.00    -0.024 C 
ATOM     14  C   UNL     1       1.531   5.814   0.259  0.00  0.00    -0.007 C 
ATOM     15  C   UNL     1       1.228   5.000  -0.768  0.00  0.00    -0.003 C 
ATOM     16  C   UNL     1       0.392   5.630  -1.789  0.00  0.00    +0.142 C 
ATOM     17  N   UNL     1      -0.746   4.761  -2.123  0.00  0.00    -0.197 NA
ATOM     18  C   UNL     1      -2.013   5.385  -1.855  0.00  0.00    +0.265 C 
ATOM     19  C   UNL     1      -2.095   6.708  -2.502  0.00  0.00    +0.055 C 
ATOM     20  C   UNL     1      -1.193   6.867  -3.483  0.00  0.00    -0.018 C 
ATOM     21  C   UNL     1      -1.317   5.601  -4.442  0.00  0.00    +0.062 C 
ATOM     22  C   UNL     1      -0.576   6.229  -5.865  0.00  0.00    +0.173 C 
ATOM     23  O   UNL     1       0.533   5.189  -5.690  0.00  0.00    -0.451 OA
ATOM     24  C   UNL     1      -2.767   6.073  -4.993  0.00  0.00    +0.008 C 
ATOM     25  O   UNL     1      -2.826   5.005  -0.979  0.00  0.00    -0.268 OA
ATOM     26  C   UNL     1       2.656   8.183   0.194  0.00  0.00    +0.031 C 
ATOM     27  O   UNL     1       3.306   4.249  -0.076  0.00  0.00    -0.218 OA
ATOM     28  O   UNL     1       5.869   4.608  -3.175  0.00  0.00    -0.295 OA
ATOM     29  O   UNL     1       4.612   7.196  -5.359  0.00  0.00    -0.435 OA
ATOM     30  C   UNL     1       4.165   7.961  -6.344  0.00  0.00    +0.205 A 
ATOM     31  O   UNL     1       2.054   8.523  -8.386  0.00  0.00    -0.268 OA
ATOM     32  C   UNL     1       0.095   6.388  -8.966  0.00  0.00    +0.096 C 
ATOM     33  C   UNL     1       0.308   4.533  -6.925  0.00  0.00    +0.337 C 
ATOM     34  O   UNL     1       0.273   3.258  -6.937  0.00  0.00    -0.248 OA
ATOM     35  C   UNL     1      -0.178   4.993  -9.282  0.00  0.00    +0.047 C 
ENDROOT
BRANCH   1  36
ATOM     36  S   UNL     1       2.203   5.133 -10.374  0.00  0.00    -0.008 S 
ATOM     37  O   UNL     1       2.214   6.581 -10.181  0.00  0.00    -0.173 OA
ATOM     38  O   UNL     1       2.107   4.600 -11.714  0.00  0.00    -0.173 OA
BRANCH  36  39
ATOM     39  C   UNL     1       3.876   4.683  -9.867  0.00  0.00    +0.168 C 
BRANCH  39  40
ATOM     40  C   UNL     1       4.901   5.349 -10.769  0.00  0.00    +0.098 C 
BRANCH  40  41
ATOM     41  N   UNL     1       5.676   6.360 -10.076  0.00  0.00    -0.271 NA
BRANCH  41  43
ATOM     42  C   UNL     1       7.534   5.697  -9.416  0.00  0.00    +0.019 C 
ATOM     43  C   UNL     1       7.006   5.913  -9.755  0.00  0.00    +0.072 C 
ENDBRANCH  41  43
BRANCH  41  44
ATOM     44  C   UNL     1       5.820   7.445 -11.047  0.00  0.00    +0.072 C 
ATOM     45  C   UNL     1       6.155   6.932 -12.418  0.00  0.00    +0.019 C 
ENDBRANCH  41  44
ENDBRANCH  40  41
ENDBRANCH  39  40
ENDBRANCH  36  39
ENDBRANCH   1  36
BRANCH  22  46
ATOM     46  C   UNL     1       0.156   7.491  -5.189  0.00  0.00    +0.041 C 
ATOM     47  C   UNL     1      -0.696   8.650  -5.414  0.00  0.00    +0.004 C 
ATOM     48  C   UNL     1       1.335   7.530  -4.594  0.00  0.00    +0.004 C 
ENDBRANCH  22  46
TORSDOF 7
ENDMDL
