MODEL 1
REMARK VINA RESULT:      -7.0      0.000      0.000
REMARK  Name = 
REMARK  5 active torsions:
REMARK  status: ('A' for Active; 'I' for Inactive)
REMARK    1  A    between atoms: C_2  and  C_3
REMARK    2  A    between atoms: C_4  and  C_5
REMARK    3  A    between atoms: C_14  and  C_15
REMARK    4  A    between atoms: C_16  and  C_17
REMARK    5  A    between atoms: C_19  and  C_20
REMARK                            x       y       z     vdW  Elec       q    Type
REMARK                         _______ _______ _______ _____ _____    ______ ____
ROOT
ATOM      1  C   UNL     1       3.166   7.884  -2.868  0.00  0.00    +0.031 C 
ATOM      2  C   UNL     1       3.028   6.725  -3.779  0.00  0.00    -0.022 C 
ATOM      3  C   UNL     1       3.463   6.732  -5.041  0.00  0.00    -0.004 C 
ENDROOT
BRANCH   3   4
ATOM      4  C   UNL     1       4.330   5.631  -5.488  0.00  0.00    -0.001 C 
ATOM      5  C   UNL     1       4.267   5.425  -6.807  0.00  0.00    -0.004 C 
BRANCH   5   6
ATOM      6  C   UNL     1       2.924   5.077  -7.290  0.00  0.00    -0.015 C 
ATOM      7  C   UNL     1       2.388   5.842  -8.214  0.00  0.00    +0.082 C 
ATOM      8  C   UNL     1       2.263   3.856  -6.797  0.00  0.00    +0.031 C 
BRANCH   7   9
ATOM      9  C   UNL     1       2.872   7.153  -8.587  0.00  0.00    +0.388 C 
ATOM     10  O   UNL     1       3.765   7.208  -9.662  0.00  0.00    -0.241 OA
ATOM     11  O   UNL     1       2.447   8.234  -8.134  0.00  0.00    -0.241 OA
ENDBRANCH   7   9
ENDBRANCH   5   6
ENDBRANCH   3   4
BRANCH   2  12
ATOM     12  C   UNL     1       2.407   5.454  -3.392  0.00  0.00    -0.005 C 
ATOM     13  C   UNL     1       1.214   5.239  -3.950  0.00  0.00    -0.005 C 
BRANCH  13  14
ATOM     14  C   UNL     1       0.217   6.258  -3.591  0.00  0.00    -0.031 C 
ATOM     15  C   UNL     1      -0.704   6.699  -4.686  0.00  0.00    +0.018 C 
ATOM     16  C   UNL     1       0.025   7.059  -5.947  0.00  0.00    +0.004 C 
ATOM     17  C   UNL     1      -1.619   5.528  -5.026  0.00  0.00    +0.004 C 
ATOM     18  C   UNL     1      -1.521   7.884  -4.246  0.00  0.00    +0.004 C 
ATOM     19  C   UNL     1      -2.073   7.747  -2.855  0.00  0.00    +0.005 C 
ATOM     20  C   UNL     1      -1.850   6.390  -2.252  0.00  0.00    +0.022 C 
ATOM     21  C   UNL     1      -0.399   6.059  -2.421  0.00  0.00    -0.048 C 
ATOM     22  C   UNL     1       0.141   5.100  -1.405  0.00  0.00    +0.026 C 
ENDBRANCH  13  14
ENDBRANCH   2  12
TORSDOF 5
ENDMDL
MODEL 2
REMARK VINA RESULT:      -6.6      2.992      6.520
REMARK  Name = 
REMARK  5 active torsions:
REMARK  status: ('A' for Active; 'I' for Inactive)
REMARK    1  A    between atoms: C_2  and  C_3
REMARK    2  A    between atoms: C_4  and  C_5
REMARK    3  A    between atoms: C_14  and  C_15
REMARK    4  A    between atoms: C_16  and  C_17
REMARK    5  A    between atoms: C_19  and  C_20
REMARK                            x       y       z     vdW  Elec       q    Type
REMARK                         _______ _______ _______ _____ _____    ______ ____
ROOT
ATOM      1  C   UNL     1       0.470   4.730  -4.838  0.00  0.00    +0.031 C 
ATOM      2  C   UNL     1      -0.003   6.089  -5.187  0.00  0.00    -0.022 C 
ATOM      3  C   UNL     1      -1.294   6.424  -5.229  0.00  0.00    -0.004 C 
ENDROOT
BRANCH   3   4
ATOM      4  C   UNL     1      -1.731   7.614  -4.483  0.00  0.00    -0.001 C 
ATOM      5  C   UNL     1      -1.674   7.446  -3.159  0.00  0.00    -0.004 C 
BRANCH   5   6
ATOM      6  C   UNL     1      -2.517   6.350  -2.663  0.00  0.00    -0.015 C 
ATOM      7  C   UNL     1      -2.048   5.609  -1.685  0.00  0.00    +0.082 C 
ATOM      8  C   UNL     1      -3.875   6.170  -3.207  0.00  0.00    +0.031 C 
BRANCH   7   9
ATOM      9  C   UNL     1      -0.668   5.587  -1.253  0.00  0.00    +0.388 C 
ATOM     10  O   UNL     1      -0.291   6.553  -0.313  0.00  0.00    -0.241 OA
ATOM     11  O   UNL     1       0.161   4.697  -1.530  0.00  0.00    -0.241 OA
ENDBRANCH   7   9
ENDBRANCH   5   6
ENDBRANCH   3   4
BRANCH   2  12
ATOM     12  C   UNL     1       0.892   7.202  -5.518  0.00  0.00    -0.005 C 
ATOM     13  C   UNL     1       1.195   7.290  -6.815  0.00  0.00    -0.005 C 
BRANCH  13  14
ATOM     14  C   UNL     1       1.888   6.099  -7.328  0.00  0.00    -0.031 C 
ATOM     15  C   UNL     1       1.492   5.640  -8.697  0.00  0.00    +0.018 C 
ATOM     16  C   UNL     1       0.004   5.530  -8.864  0.00  0.00    +0.004 C 
ATOM     17  C   UNL     1       1.969   6.688  -9.697  0.00  0.00    +0.004 C 
ATOM     18  C   UNL     1       2.113   4.306  -9.008  0.00  0.00    +0.004 C 
ATOM     19  C   UNL     1       3.558   4.211  -8.610  0.00  0.00    +0.005 C 
ATOM     20  C   UNL     1       4.140   5.515  -8.146  0.00  0.00    +0.022 C 
ATOM     21  C   UNL     1       3.208   6.079  -7.118  0.00  0.00    -0.048 C 
ATOM     22  C   UNL     1       3.858   6.997  -6.128  0.00  0.00    +0.026 C 
ENDBRANCH  13  14
ENDBRANCH   2  12
TORSDOF 5
ENDMDL
MODEL 3
REMARK VINA RESULT:      -6.5      3.055      6.095
REMARK  Name = 
REMARK  5 active torsions:
REMARK  status: ('A' for Active; 'I' for Inactive)
REMARK    1  A    between atoms: C_2  and  C_3
REMARK    2  A    between atoms: C_4  and  C_5
REMARK    3  A    between atoms: C_14  and  C_15
REMARK    4  A    between atoms: C_16  and  C_17
REMARK    5  A    between atoms: C_19  and  C_20
REMARK                            x       y       z     vdW  Elec       q    Type
REMARK                         _______ _______ _______ _____ _____    ______ ____
ROOT
ATOM      1  C   UNL     1       2.766   6.065  -4.245  0.00  0.00    +0.031 C 
ATOM      2  C   UNL     1       1.302   5.844  -4.248  0.00  0.00    -0.022 C 
ATOM      3  C   UNL     1       0.439   6.664  -3.645  0.00  0.00    -0.004 C 
ENDROOT
BRANCH   3   4
ATOM      4  C   UNL     1      -0.704   7.169  -4.422  0.00  0.00    -0.001 C 
ATOM      5  C   UNL     1      -1.772   7.429  -3.662  0.00  0.00    -0.004 C 
BRANCH   5   6
ATOM      6  C   UNL     1      -2.285   6.257  -2.938  0.00  0.00    -0.015 C 
ATOM      7  C   UNL     1      -2.240   6.279  -1.626  0.00  0.00    +0.082 C 
ATOM      8  C   UNL     1      -2.904   5.150  -3.688  0.00  0.00    +0.031 C 
BRANCH   7   9
ATOM      9  C   UNL     1      -1.468   7.216  -0.840  0.00  0.00    +0.388 C 
ATOM     10  O   UNL     1      -0.213   6.781  -0.403  0.00  0.00    -0.241 OA
ATOM     11  O   UNL     1      -1.762   8.414  -0.652  0.00  0.00    -0.241 OA
ENDBRANCH   7   9
ENDBRANCH   5   6
ENDBRANCH   3   4
BRANCH   2  12
ATOM     12  C   UNL     1       0.651   4.710  -4.912  0.00  0.00    -0.005 C 
ATOM     13  C   UNL     1       1.271   4.300  -6.021  0.00  0.00    -0.005 C 
BRANCH  13  14
ATOM     14  C   UNL     1       1.344   5.339  -7.059  0.00  0.00    -0.031 C 
ATOM     15  C   UNL     1       2.564   5.323  -7.928  0.00  0.00    +0.018 C 
ATOM     16  C   UNL     1       3.837   5.239  -7.137  0.00  0.00    +0.004 C 
ATOM     17  C   UNL     1       2.502   4.071  -8.796  0.00  0.00    +0.004 C 
ATOM     18  C   UNL     1       2.612   6.553  -8.793  0.00  0.00    +0.004 C 
ATOM     19  C   UNL     1       1.290   6.898  -9.419  0.00  0.00    +0.005 C 
ATOM     20  C   UNL     1       0.233   5.855  -9.199  0.00  0.00    +0.022 C 
ATOM     21  C   UNL     1       0.209   5.544  -7.734  0.00  0.00    -0.048 C 
ATOM     22  C   UNL     1      -1.106   5.033  -7.229  0.00  0.00    +0.026 C 
ENDBRANCH  13  14
ENDBRANCH   2  12
TORSDOF 5
ENDMDL
MODEL 4
REMARK VINA RESULT:      -6.4      2.933      5.995
REMARK  Name = 
REMARK  5 active torsions:
REMARK  status: ('A' for Active; 'I' for Inactive)
REMARK    1  A    between atoms: C_2  and  C_3
REMARK    2  A    between atoms: C_4  and  C_5
REMARK    3  A    between atoms: C_14  and  C_15
REMARK    4  A    between atoms: C_16  and  C_17
REMARK    5  A    between atoms: C_19  and  C_20
REMARK                            x       y       z     vdW  Elec       q    Type
REMARK                         _______ _______ _______ _____ _____    ______ ____
ROOT
ATOM      1  C   UNL     1       1.501   7.254  -7.953  0.00  0.00    +0.031 C 
ATOM      2  C   UNL     1       1.200   6.448  -6.748  0.00  0.00    -0.022 C 
ATOM      3  C   UNL     1       0.242   6.768  -5.876  0.00  0.00    -0.004 C 
ENDROOT
BRANCH   3   4
ATOM      4  C   UNL     1      -0.745   5.739  -5.513  0.00  0.00    -0.001 C 
ATOM      5  C   UNL     1      -1.961   6.244  -5.287  0.00  0.00    -0.004 C 
BRANCH   5   6
ATOM      6  C   UNL     1      -2.004   7.222  -4.191  0.00  0.00    -0.015 C 
ATOM      7  C   UNL     1      -1.900   6.772  -2.962  0.00  0.00    +0.082 C 
ATOM      8  C   UNL     1      -2.074   8.662  -4.500  0.00  0.00    +0.031 C 
BRANCH   7   9
ATOM      9  C   UNL     1      -2.041   5.385  -2.574  0.00  0.00    +0.388 C 
ATOM     10  O   UNL     1      -1.050   4.868  -1.732  0.00  0.00    -0.241 OA
ATOM     11  O   UNL     1      -3.036   4.670  -2.802  0.00  0.00    -0.241 OA
ENDBRANCH   7   9
ENDBRANCH   5   6
ENDBRANCH   3   4
BRANCH   2  12
ATOM     12  C   UNL     1       1.916   5.219  -6.390  0.00  0.00    -0.005 C 
ATOM     13  C   UNL     1       2.255   5.142  -5.101  0.00  0.00    -0.005 C 
BRANCH  13  14
ATOM     14  C   UNL     1       3.152   6.226  -4.674  0.00  0.00    -0.031 C 
ATOM     15  C   UNL     1       3.178   6.526  -3.208  0.00  0.00    +0.018 C 
ATOM     16  C   UNL     1       1.804   6.681  -2.623  0.00  0.00    +0.004 C 
ATOM     17  C   UNL     1       3.825   5.340  -2.500  0.00  0.00    +0.004 C 
ATOM     18  C   UNL     1       3.963   7.781  -2.938  0.00  0.00    +0.004 C 
ATOM     19  C   UNL     1       5.250   7.860  -3.709  0.00  0.00    +0.005 C 
ATOM     20  C   UNL     1       5.580   6.600  -4.456  0.00  0.00    +0.022 C 
ATOM     21  C   UNL     1       4.363   6.213  -5.240  0.00  0.00    -0.048 C 
ATOM     22  C   UNL     1       4.647   5.399  -6.465  0.00  0.00    +0.026 C 
ENDBRANCH  13  14
ENDBRANCH   2  12
TORSDOF 5
ENDMDL
MODEL 5
REMARK VINA RESULT:      -6.3      3.515      6.710
REMARK  Name = 
REMARK  5 active torsions:
REMARK  status: ('A' for Active; 'I' for Inactive)
REMARK    1  A    between atoms: C_2  and  C_3
REMARK    2  A    between atoms: C_4  and  C_5
REMARK    3  A    between atoms: C_14  and  C_15
REMARK    4  A    between atoms: C_16  and  C_17
REMARK    5  A    between atoms: C_19  and  C_20
REMARK                            x       y       z     vdW  Elec       q    Type
REMARK                         _______ _______ _______ _____ _____    ______ ____
ROOT
ATOM      1  C   UNL     1      -2.353   8.335  -4.857  0.00  0.00    +0.031 C 
ATOM      2  C   UNL     1      -1.960   7.242  -3.939  0.00  0.00    -0.022 C 
ATOM      3  C   UNL     1      -1.664   7.440  -2.652  0.00  0.00    -0.004 C 
ENDROOT
BRANCH   3   4
ATOM      4  C   UNL     1      -2.343   6.613  -1.643  0.00  0.00    -0.001 C 
ATOM      5  C   UNL     1      -1.878   6.817  -0.408  0.00  0.00    -0.004 C 
BRANCH   5   6
ATOM      6  C   UNL     1      -0.448   6.515  -0.254  0.00  0.00    -0.015 C 
ATOM      7  C   UNL     1       0.241   7.228   0.608  0.00  0.00    +0.082 C 
ATOM      8  C   UNL     1       0.143   5.386  -0.994  0.00  0.00    +0.031 C 
BRANCH   7   9
ATOM      9  C   UNL     1      -0.208   8.468   1.202  0.00  0.00    +0.388 C 
ATOM     10  O   UNL     1      -0.797   8.377   2.468  0.00  0.00    -0.241 OA
ATOM     11  O   UNL     1       0.021   9.608   0.753  0.00  0.00    -0.241 OA
ENDBRANCH   7   9
ENDBRANCH   5   6
ENDBRANCH   3   4
BRANCH   2  12
ATOM     12  C   UNL     1      -1.860   5.836  -4.342  0.00  0.00    -0.005 C 
ATOM     13  C   UNL     1      -0.606   5.400  -4.490  0.00  0.00    -0.005 C 
BRANCH  13  14
ATOM     14  C   UNL     1       0.140   6.131  -5.524  0.00  0.00    -0.031 C 
ATOM     15  C   UNL     1       1.616   6.266  -5.306  0.00  0.00    +0.018 C 
ATOM     16  C   UNL     1       1.956   6.753  -3.928  0.00  0.00    +0.004 C 
ATOM     17  C   UNL     1       2.236   4.880  -5.448  0.00  0.00    +0.004 C 
ATOM     18  C   UNL     1       2.216   7.208  -6.314  0.00  0.00    +0.004 C 
ATOM     19  C   UNL     1       1.715   6.987  -7.713  0.00  0.00    +0.005 C 
ATOM     20  C   UNL     1       0.854   5.765  -7.856  0.00  0.00    +0.022 C 
ATOM     21  C   UNL     1      -0.189   5.824  -6.783  0.00  0.00    -0.048 C 
ATOM     22  C   UNL     1      -1.453   5.087  -7.105  0.00  0.00    +0.026 C 
ENDBRANCH  13  14
ENDBRANCH   2  12
TORSDOF 5
ENDMDL
MODEL 6
REMARK VINA RESULT:      -6.3      2.041      3.335
REMARK  Name = 
REMARK  5 active torsions:
REMARK  status: ('A' for Active; 'I' for Inactive)
REMARK    1  A    between atoms: C_2  and  C_3
REMARK    2  A    between atoms: C_4  and  C_5
REMARK    3  A    between atoms: C_14  and  C_15
REMARK    4  A    between atoms: C_16  and  C_17
REMARK    5  A    between atoms: C_19  and  C_20
REMARK                            x       y       z     vdW  Elec       q    Type
REMARK                         _______ _______ _______ _____ _____    ______ ____
ROOT
ATOM      1  C   UNL     1       1.801   7.522  -7.444  0.00  0.00    +0.031 C 
ATOM      2  C   UNL     1       1.087   6.231  -7.566  0.00  0.00    -0.022 C 
ATOM      3  C   UNL     1       0.327   5.913  -8.616  0.00  0.00    -0.004 C 
ENDROOT
BRANCH   3   4
ATOM      4  C   UNL     1       0.573   4.631  -9.293  0.00  0.00    -0.001 C 
ATOM      5  C   UNL     1       1.635   4.667 -10.103  0.00  0.00    -0.004 C 
BRANCH   5   6
ATOM      6  C   UNL     1       1.525   5.657 -11.183  0.00  0.00    -0.015 C 
ATOM      7  C   UNL     1       2.627   6.241 -11.596  0.00  0.00    +0.082 C 
ATOM      8  C   UNL     1       0.218   5.901 -11.819  0.00  0.00    +0.031 C 
BRANCH   7   9
ATOM      9  C   UNL     1       3.891   6.214 -10.892  0.00  0.00    +0.388 C 
ATOM     10  O   UNL     1       4.872   5.358 -11.401  0.00  0.00    -0.241 OA
ATOM     11  O   UNL     1       4.222   6.992  -9.976  0.00  0.00    -0.241 OA
ENDBRANCH   7   9
ENDBRANCH   5   6
ENDBRANCH   3   4
BRANCH   2  12
ATOM     12  C   UNL     1       1.142   5.172  -6.554  0.00  0.00    -0.005 C 
ATOM     13  C   UNL     1      -0.037   4.891  -5.994  0.00  0.00    -0.005 C 
BRANCH  13  14
ATOM     14  C   UNL     1      -0.629   6.039  -5.291  0.00  0.00    -0.031 C 
ATOM     15  C   UNL     1      -2.117   6.177  -5.383  0.00  0.00    +0.018 C 
ATOM     16  C   UNL     1      -2.622   6.071  -6.793  0.00  0.00    +0.004 C 
ATOM     17  C   UNL     1      -2.743   5.025  -4.604  0.00  0.00    +0.004 C 
ATOM     18  C   UNL     1      -2.563   7.494  -4.808  0.00  0.00    +0.004 C 
ATOM     19  C   UNL     1      -1.889   7.839  -3.509  0.00  0.00    +0.005 C 
ATOM     20  C   UNL     1      -1.043   6.728  -2.959  0.00  0.00    +0.022 C 
ATOM     21  C   UNL     1      -0.146   6.260  -4.064  0.00  0.00    -0.048 C 
ATOM     22  C   UNL     1       1.133   5.633  -3.601  0.00  0.00    +0.026 C 
ENDBRANCH  13  14
ENDBRANCH   2  12
TORSDOF 5
ENDMDL
MODEL 7
REMARK VINA RESULT:      -6.3      2.233      4.591
REMARK  Name = 
REMARK  5 active torsions:
REMARK  status: ('A' for Active; 'I' for Inactive)
REMARK    1  A    between atoms: C_2  and  C_3
REMARK    2  A    between atoms: C_4  and  C_5
REMARK    3  A    between atoms: C_14  and  C_15
REMARK    4  A    between atoms: C_16  and  C_17
REMARK    5  A    between atoms: C_19  and  C_20
REMARK                            x       y       z     vdW  Elec       q    Type
REMARK                         _______ _______ _______ _____ _____    ______ ____
ROOT
ATOM      1  C   UNL     1      -0.111   5.362  -5.635  0.00  0.00    +0.031 C 
ATOM      2  C   UNL     1       0.962   5.351  -6.655  0.00  0.00    -0.022 C 
ATOM      3  C   UNL     1       0.946   6.129  -7.739  0.00  0.00    -0.004 C 
ENDROOT
BRANCH   3   4
ATOM      4  C   UNL     1       2.135   6.945  -8.031  0.00  0.00    -0.001 C 
ATOM      5  C   UNL     1       2.290   7.187  -9.336  0.00  0.00    -0.004 C 
BRANCH   5   6
ATOM      6  C   UNL     1       2.445   5.975 -10.151  0.00  0.00    -0.015 C 
ATOM      7  C   UNL     1       1.669   5.838 -11.202  0.00  0.00    +0.082 C 
ATOM      8  C   UNL     1       3.506   5.006  -9.823  0.00  0.00    +0.031 C 
BRANCH   7   9
ATOM      9  C   UNL     1       0.483   6.625 -11.463  0.00  0.00    +0.388 C 
ATOM     10  O   UNL     1       0.544   7.507 -12.546  0.00  0.00    -0.241 OA
ATOM     11  O   UNL     1      -0.621   6.472 -10.904  0.00  0.00    -0.241 OA
ENDBRANCH   7   9
ENDBRANCH   5   6
ENDBRANCH   3   4
BRANCH   2  12
ATOM     12  C   UNL     1       2.148   4.492  -6.581  0.00  0.00    -0.005 C 
ATOM     13  C   UNL     1       2.691   4.419  -5.363  0.00  0.00    -0.005 C 
BRANCH  13  14
ATOM     14  C   UNL     1       3.150   5.721  -4.857  0.00  0.00    -0.031 C 
ATOM     15  C   UNL     1       3.008   5.947  -3.384  0.00  0.00    +0.018 C 
ATOM     16  C   UNL     1       1.637   5.607  -2.875  0.00  0.00    +0.004 C 
ATOM     17  C   UNL     1       3.984   5.016  -2.672  0.00  0.00    +0.004 C 
ATOM     18  C   UNL     1       3.311   7.379  -3.037  0.00  0.00    +0.004 C 
ATOM     19  C   UNL     1       4.529   7.919  -3.731  0.00  0.00    +0.005 C 
ATOM     20  C   UNL     1       5.297   6.876  -4.491  0.00  0.00    +0.022 C 
ATOM     21  C   UNL     1       4.319   6.139  -5.353  0.00  0.00    -0.048 C 
ATOM     22  C   UNL     1       4.915   5.522  -6.581  0.00  0.00    +0.026 C 
ENDBRANCH  13  14
ENDBRANCH   2  12
TORSDOF 5
ENDMDL
MODEL 8
REMARK VINA RESULT:      -6.2      3.374      5.686
REMARK  Name = 
REMARK  5 active torsions:
REMARK  status: ('A' for Active; 'I' for Inactive)
REMARK    1  A    between atoms: C_2  and  C_3
REMARK    2  A    between atoms: C_4  and  C_5
REMARK    3  A    between atoms: C_14  and  C_15
REMARK    4  A    between atoms: C_16  and  C_17
REMARK    5  A    between atoms: C_19  and  C_20
REMARK                            x       y       z     vdW  Elec       q    Type
REMARK                         _______ _______ _______ _____ _____    ______ ____
ROOT
ATOM      1  C   UNL     1       3.685   4.189  -8.926  0.00  0.00    +0.031 C 
ATOM      2  C   UNL     1       3.524   5.493  -9.611  0.00  0.00    -0.022 C 
ATOM      3  C   UNL     1       4.548   6.184 -10.114  0.00  0.00    -0.004 C 
ENDROOT
BRANCH   3   4
ATOM      4  C   UNL     1       4.465   6.641 -11.510  0.00  0.00    -0.001 C 
ATOM      5  C   UNL     1       5.632   6.550 -12.155  0.00  0.00    -0.004 C 
BRANCH   5   6
ATOM      6  C   UNL     1       6.707   7.349 -11.552  0.00  0.00    -0.015 C 
ATOM      7  C   UNL     1       7.852   6.752 -11.307  0.00  0.00    +0.082 C 
ATOM      8  C   UNL     1       6.505   8.791 -11.323  0.00  0.00    +0.031 C 
BRANCH   7   9
ATOM      9  C   UNL     1       8.054   5.320 -11.304  0.00  0.00    +0.388 C 
ATOM     10  O   UNL     1       8.121   4.701 -10.052  0.00  0.00    -0.241 OA
ATOM     11  O   UNL     1       8.021   4.585 -12.311  0.00  0.00    -0.241 OA
ENDBRANCH   7   9
ENDBRANCH   5   6
ENDBRANCH   3   4
BRANCH   2  12
ATOM     12  C   UNL     1       2.230   6.153  -9.810  0.00  0.00    -0.005 C 
ATOM     13  C   UNL     1       1.784   6.810  -8.737  0.00  0.00    -0.005 C 
BRANCH  13  14
ATOM     14  C   UNL     1       1.573   5.938  -7.572  0.00  0.00    -0.031 C 
ATOM     15  C   UNL     1       2.073   6.454  -6.259  0.00  0.00    +0.018 C 
ATOM     16  C   UNL     1       3.488   6.950  -6.332  0.00  0.00    +0.004 C 
ATOM     17  C   UNL     1       1.210   7.648  -5.867  0.00  0.00    +0.004 C 
ATOM     18  C   UNL     1       1.989   5.385  -5.203  0.00  0.00    +0.004 C 
ATOM     19  C   UNL     1       0.697   4.619  -5.228  0.00  0.00    +0.005 C 
ATOM     20  C   UNL     1      -0.318   5.186  -6.179  0.00  0.00    +0.022 C 
ATOM     21  C   UNL     1       0.364   5.373  -7.500  0.00  0.00    -0.048 C 
ATOM     22  C   UNL     1      -0.554   5.333  -8.683  0.00  0.00    +0.026 C 
ENDBRANCH  13  14
ENDBRANCH   2  12
TORSDOF 5
ENDMDL
MODEL 9
REMARK VINA RESULT:      -6.2      3.637      6.141
REMARK  Name = 
REMARK  5 active torsions:
REMARK  status: ('A' for Active; 'I' for Inactive)
REMARK    1  A    between atoms: C_2  and  C_3
REMARK    2  A    between atoms: C_4  and  C_5
REMARK    3  A    between atoms: C_14  and  C_15
REMARK    4  A    between atoms: C_16  and  C_17
REMARK    5  A    between atoms: C_19  and  C_20
REMARK                            x       y       z     vdW  Elec       q    Type
REMARK                         _______ _______ _______ _____ _____    ______ ____
ROOT
ATOM      1  C   UNL     1       4.201   4.614 -10.274  0.00  0.00    +0.031 C 
ATOM      2  C   UNL     1       4.608   6.000  -9.946  0.00  0.00    -0.022 C 
ATOM      3  C   UNL     1       5.882   6.382  -9.845  0.00  0.00    -0.004 C 
ENDROOT
BRANCH   3   4
ATOM      4  C   UNL     1       6.321   7.562 -10.606  0.00  0.00    -0.001 C 
ATOM      5  C   UNL     1       6.328   7.353 -11.926  0.00  0.00    -0.004 C 
BRANCH   5   6
ATOM      6  C   UNL     1       7.221   6.267 -12.351  0.00  0.00    -0.015 C 
ATOM      7  C   UNL     1       6.819   5.491 -13.332  0.00  0.00    +0.082 C 
ATOM      8  C   UNL     1       8.553   6.134 -11.735  0.00  0.00    +0.031 C 
BRANCH   7   9
ATOM      9  C   UNL     1       5.464   5.424 -13.832  0.00  0.00    +0.388 C 
ATOM     10  O   UNL     1       5.121   6.341 -14.831  0.00  0.00    -0.241 OA
ATOM     11  O   UNL     1       4.637   4.532 -13.559  0.00  0.00    -0.241 OA
ENDBRANCH   7   9
ENDBRANCH   5   6
ENDBRANCH   3   4
BRANCH   2  12
ATOM     12  C   UNL     1       3.659   7.091  -9.705  0.00  0.00    -0.005 C 
ATOM     13  C   UNL     1       3.345   7.265  -8.419  0.00  0.00    -0.005 C 
BRANCH  13  14
ATOM     14  C   UNL     1       2.707   6.086  -7.816  0.00  0.00    -0.031 C 
ATOM     15  C   UNL     1       3.068   5.792  -6.393  0.00  0.00    +0.018 C 
ATOM     16  C   UNL     1       4.550   5.801  -6.157  0.00  0.00    +0.004 C 
ATOM     17  C   UNL     1       2.479   6.897  -5.524  0.00  0.00    +0.004 C 
ATOM     18  C   UNL     1       2.520   4.455  -5.973  0.00  0.00    +0.004 C 
ATOM     19  C   UNL     1       1.104   4.222  -6.417  0.00  0.00    +0.005 C 
ATOM     20  C   UNL     1       0.462   5.431  -7.033  0.00  0.00    +0.022 C 
ATOM     21  C   UNL     1       1.402   5.954  -8.075  0.00  0.00    -0.048 C 
ATOM     22  C   UNL     1       0.741   6.724  -9.178  0.00  0.00    +0.026 C 
ENDBRANCH  13  14
ENDBRANCH   2  12
TORSDOF 5
ENDMDL
