MODEL 1
REMARK VINA RESULT:      -7.0      0.000      0.000
REMARK  Name = 
REMARK  2 active torsions:
REMARK  status: ('A' for Active; 'I' for Inactive)
REMARK    1  A    between atoms: C_2  and  C_4
REMARK    2  A    between atoms: C_4  and  C_6
REMARK                            x       y       z     vdW  Elec       q    Type
REMARK                         _______ _______ _______ _____ _____    ______ ____
ROOT
ATOM      1  C   UNL     1       4.731   6.608 -12.080  0.00  0.00    +0.147 C 
ATOM      2  N   UNL     1       3.475   5.651 -12.113  0.00  0.00    -0.228 NA
ATOM      3  C   UNL     1       2.522   5.746 -11.097  0.00  0.00    +0.157 A 
ATOM      4  C   UNL     1       3.024   5.274  -9.878  0.00  0.00    +0.170 A 
ATOM      5  N   UNL     1       2.253   5.057  -8.812  0.00  0.00    -0.193 NA
ATOM      6  C   UNL     1       0.903   5.166  -8.953  0.00  0.00    +0.260 A 
ATOM      7  N   UNL     1       0.426   5.318 -10.212  0.00  0.00    -0.171 NA
ATOM      8  N   UNL     1       0.125   5.658  -7.855  0.00  0.00    -0.086 NA
ATOM      9  N   UNL     1       4.444   5.501  -9.864  0.00  0.00    -0.217 NA
ATOM     10  C   UNL     1       1.210   5.333 -11.313  0.00  0.00    +0.299 A 
ATOM     11  O   UNL     1       0.777   5.094 -12.475  0.00  0.00    -0.264 OA
ATOM     12  C   UNL     1       4.809   6.772 -10.429  0.00  0.00    +0.138 C 
ENDROOT
BRANCH   1  13
ATOM     13  C   UNL     1       5.782   5.235 -12.026  0.00  0.00    +0.203 C 
ATOM     14  O   UNL     1       5.340   4.827 -13.417  0.00  0.00    -0.219 OA
BRANCH  13  16
ATOM     15  C   UNL     1       8.047   6.196 -11.307  0.00  0.00    +0.038 C 
ATOM     16  C   UNL     1       7.171   6.036 -12.714  0.00  0.00    +0.184 C 
ATOM     17  O   UNL     1       7.842   4.676 -12.999  0.00  0.00    -0.220 OA
ENDBRANCH  13  16
ENDBRANCH   1  13
TORSDOF 2
ENDMDL
MODEL 2
REMARK VINA RESULT:      -6.8      2.794      5.423
REMARK  Name = 
REMARK  2 active torsions:
REMARK  status: ('A' for Active; 'I' for Inactive)
REMARK    1  A    between atoms: C_2  and  C_4
REMARK    2  A    between atoms: C_4  and  C_6
REMARK                            x       y       z     vdW  Elec       q    Type
REMARK                         _______ _______ _______ _____ _____    ______ ____
ROOT
ATOM      1  C   UNL     1       2.843   5.286  -9.281  0.00  0.00    +0.147 C 
ATOM      2  N   UNL     1       3.092   5.829 -10.743  0.00  0.00    -0.228 NA
ATOM      3  C   UNL     1       4.243   5.434 -11.428  0.00  0.00    +0.157 A 
ATOM      4  C   UNL     1       5.392   6.007 -10.869  0.00  0.00    +0.170 A 
ATOM      5  N   UNL     1       6.585   5.962 -11.463  0.00  0.00    -0.193 NA
ATOM      6  C   UNL     1       6.664   5.461 -12.727  0.00  0.00    +0.260 A 
ATOM      7  N   UNL     1       5.496   5.202 -13.360  0.00  0.00    -0.171 NA
ATOM      8  N   UNL     1       7.838   4.737 -13.117  0.00  0.00    -0.086 NA
ATOM      9  N   UNL     1       5.151   6.210  -9.466  0.00  0.00    -0.217 NA
ATOM     10  C   UNL     1       4.281   5.444 -12.819  0.00  0.00    +0.299 A 
ATOM     11  O   UNL     1       3.229   5.570 -13.506  0.00  0.00    -0.264 OA
ATOM     12  C   UNL     1       4.440   5.117  -8.860  0.00  0.00    +0.138 C 
ENDROOT
BRANCH   1  13
ATOM     13  C   UNL     1       2.822   6.908  -8.677  0.00  0.00    +0.203 C 
ATOM     14  O   UNL     1       1.450   7.128  -9.284  0.00  0.00    -0.219 OA
BRANCH  13  16
ATOM     15  C   UNL     1       3.415   6.755  -6.189  0.00  0.00    +0.038 C 
ATOM     16  C   UNL     1       2.074   6.528  -7.148  0.00  0.00    +0.184 C 
ATOM     17  O   UNL     1       1.664   8.004  -6.957  0.00  0.00    -0.220 OA
ENDBRANCH  13  16
ENDBRANCH   1  13
TORSDOF 2
ENDMDL
MODEL 3
REMARK VINA RESULT:      -6.8      5.171      6.951
REMARK  Name = 
REMARK  2 active torsions:
REMARK  status: ('A' for Active; 'I' for Inactive)
REMARK    1  A    between atoms: C_2  and  C_4
REMARK    2  A    between atoms: C_4  and  C_6
REMARK                            x       y       z     vdW  Elec       q    Type
REMARK                         _______ _______ _______ _____ _____    ______ ____
ROOT
ATOM      1  C   UNL     1       2.827   4.633  -5.668  0.00  0.00    +0.147 C 
ATOM      2  N   UNL     1       2.279   5.658  -4.599  0.00  0.00    -0.228 NA
ATOM      3  C   UNL     1       1.075   5.382  -3.948  0.00  0.00    +0.157 A 
ATOM      4  C   UNL     1      -0.015   5.494  -4.819  0.00  0.00    +0.170 A 
ATOM      5  N   UNL     1      -1.281   5.493  -4.399  0.00  0.00    -0.193 NA
ATOM      6  C   UNL     1      -1.521   5.524  -3.059  0.00  0.00    +0.260 A 
ATOM      7  N   UNL     1      -0.457   5.727  -2.247  0.00  0.00    -0.171 NA
ATOM      8  N   UNL     1      -2.664   4.830  -2.541  0.00  0.00    -0.086 NA
ATOM      9  N   UNL     1       0.438   5.166  -6.144  0.00  0.00    -0.217 NA
ATOM     10  C   UNL     1       0.801   5.931  -2.699  0.00  0.00    +0.299 A 
ATOM     11  O   UNL     1       1.703   6.486  -2.010  0.00  0.00    -0.264 OA
ATOM     12  C   UNL     1       1.350   4.055  -6.160  0.00  0.00    +0.138 C 
ENDROOT
BRANCH   1  13
ATOM     13  C   UNL     1       2.783   5.867  -6.881  0.00  0.00    +0.203 C 
ATOM     14  O   UNL     1       3.765   6.701  -6.082  0.00  0.00    -0.219 OA
BRANCH  13  16
ATOM     15  C   UNL     1       3.204   4.278  -8.847  0.00  0.00    +0.038 C 
ATOM     16  C   UNL     1       4.105   5.241  -7.832  0.00  0.00    +0.184 C 
ATOM     17  O   UNL     1       3.986   6.424  -8.816  0.00  0.00    -0.220 OA
ENDBRANCH  13  16
ENDBRANCH   1  13
TORSDOF 2
ENDMDL
MODEL 4
REMARK VINA RESULT:      -6.8      5.778      8.934
REMARK  Name = 
REMARK  2 active torsions:
REMARK  status: ('A' for Active; 'I' for Inactive)
REMARK    1  A    between atoms: C_2  and  C_4
REMARK    2  A    between atoms: C_4  and  C_6
REMARK                            x       y       z     vdW  Elec       q    Type
REMARK                         _______ _______ _______ _____ _____    ______ ____
ROOT
ATOM      1  C   UNL     1       0.238   6.522  -3.560  0.00  0.00    +0.147 C 
ATOM      2  N   UNL     1       1.242   5.401  -4.039  0.00  0.00    -0.228 NA
ATOM      3  C   UNL     1       1.764   5.466  -5.332  0.00  0.00    +0.157 A 
ATOM      4  C   UNL     1       0.784   5.195  -6.295  0.00  0.00    +0.170 A 
ATOM      5  N   UNL     1       1.069   4.983  -7.579  0.00  0.00    -0.193 NA
ATOM      6  C   UNL     1       2.376   4.888  -7.948  0.00  0.00    +0.260 A 
ATOM      7  N   UNL     1       3.294   4.843  -6.954  0.00  0.00    -0.171 NA
ATOM      8  N   UNL     1       2.775   5.376  -9.236  0.00  0.00    -0.086 NA
ATOM      9  N   UNL     1      -0.486   5.619  -5.768  0.00  0.00    -0.217 NA
ATOM     10  C   UNL     1       2.976   4.854  -5.640  0.00  0.00    +0.299 A 
ATOM     11  O   UNL     1       3.753   4.440  -4.735  0.00  0.00    -0.264 OA
ATOM     12  C   UNL     1      -0.404   6.863  -5.053  0.00  0.00    +0.138 C 
ENDROOT
BRANCH   1  13
ATOM     13  C   UNL     1      -0.976   5.322  -3.276  0.00  0.00    +0.203 C 
ATOM     14  O   UNL     1      -0.178   4.775  -2.108  0.00  0.00    -0.219 OA
BRANCH  13  16
ATOM     15  C   UNL     1      -3.199   6.594  -3.192  0.00  0.00    +0.038 C 
ATOM     16  C   UNL     1      -1.926   6.275  -2.167  0.00  0.00    +0.184 C 
ATOM     17  O   UNL     1      -2.636   5.006  -1.650  0.00  0.00    -0.220 OA
ENDBRANCH  13  16
ENDBRANCH   1  13
TORSDOF 2
ENDMDL
MODEL 5
REMARK VINA RESULT:      -6.8      5.540      8.815
REMARK  Name = 
REMARK  2 active torsions:
REMARK  status: ('A' for Active; 'I' for Inactive)
REMARK    1  A    between atoms: C_2  and  C_4
REMARK    2  A    between atoms: C_4  and  C_6
REMARK                            x       y       z     vdW  Elec       q    Type
REMARK                         _______ _______ _______ _____ _____    ______ ____
ROOT
ATOM      1  C   UNL     1      -0.119   6.624  -3.888  0.00  0.00    +0.147 C 
ATOM      2  N   UNL     1       0.684   5.541  -4.710  0.00  0.00    -0.228 NA
ATOM      3  C   UNL     1       0.856   5.721  -6.084  0.00  0.00    +0.157 A 
ATOM      4  C   UNL     1      -0.349   5.555  -6.777  0.00  0.00    +0.170 A 
ATOM      5  N   UNL     1      -0.415   5.462  -8.105  0.00  0.00    -0.193 NA
ATOM      6  C   UNL     1       0.748   5.385  -8.809  0.00  0.00    +0.260 A 
ATOM      7  N   UNL     1       1.890   5.235  -8.097  0.00  0.00    -0.171 NA
ATOM      8  N   UNL     1       0.818   5.989 -10.108  0.00  0.00    -0.086 NA
ATOM      9  N   UNL     1      -1.423   5.943  -5.901  0.00  0.00    -0.217 NA
ATOM     10  C   UNL     1       1.923   5.126  -6.750  0.00  0.00    +0.299 A 
ATOM     11  O   UNL     1       2.893   4.618  -6.120  0.00  0.00    -0.264 OA
ATOM     12  C   UNL     1      -1.113   7.113  -5.125  0.00  0.00    +0.138 C 
ENDROOT
BRANCH   1  13
ATOM     13  C   UNL     1      -1.262   5.417  -3.404  0.00  0.00    +0.203 C 
ATOM     14  O   UNL     1      -0.263   4.853  -2.414  0.00  0.00    -0.219 OA
BRANCH  13  16
ATOM     15  C   UNL     1      -3.495   6.527  -2.811  0.00  0.00    +0.038 C 
ATOM     16  C   UNL     1      -1.989   6.351  -2.123  0.00  0.00    +0.184 C 
ATOM     17  O   UNL     1      -2.444   5.060  -1.410  0.00  0.00    -0.220 OA
ENDBRANCH  13  16
ENDBRANCH   1  13
TORSDOF 2
ENDMDL
MODEL 6
REMARK VINA RESULT:      -6.8      1.729      2.147
REMARK  Name = 
REMARK  2 active torsions:
REMARK  status: ('A' for Active; 'I' for Inactive)
REMARK    1  A    between atoms: C_2  and  C_4
REMARK    2  A    between atoms: C_4  and  C_6
REMARK                            x       y       z     vdW  Elec       q    Type
REMARK                         _______ _______ _______ _____ _____    ______ ____
ROOT
ATOM      1  C   UNL     1       4.947   6.467 -11.760  0.00  0.00    +0.147 C 
ATOM      2  N   UNL     1       4.042   5.423 -10.996  0.00  0.00    -0.228 NA
ATOM      3  C   UNL     1       3.750   5.636  -9.647  0.00  0.00    +0.157 A 
ATOM      4  C   UNL     1       4.882   5.452  -8.843  0.00  0.00    +0.170 A 
ATOM      5  N   UNL     1       4.823   5.385  -7.513  0.00  0.00    -0.193 NA
ATOM      6  C   UNL     1       3.598   5.354  -6.918  0.00  0.00    +0.260 A 
ATOM      7  N   UNL     1       2.523   5.219  -7.729  0.00  0.00    -0.171 NA
ATOM      8  N   UNL     1       3.428   5.985  -5.642  0.00  0.00    -0.086 NA
ATOM      9  N   UNL     1       6.042   5.793  -9.623  0.00  0.00    -0.217 NA
ATOM     10  C   UNL     1       2.610   5.083  -9.071  0.00  0.00    +0.299 A 
ATOM     11  O   UNL     1       1.688   4.588  -9.779  0.00  0.00    -0.264 OA
ATOM     12  C   UNL     1       5.837   6.955 -10.445  0.00  0.00    +0.138 C 
ENDROOT
BRANCH   1  13
ATOM     13  C   UNL     1       6.095   5.221 -12.114  0.00  0.00    +0.203 C 
ATOM     14  O   UNL     1       5.248   4.758 -13.283  0.00  0.00    -0.219 OA
BRANCH  13  16
ATOM     15  C   UNL     1       8.490   6.105 -12.345  0.00  0.00    +0.038 C 
ATOM     16  C   UNL     1       7.068   6.169 -13.208  0.00  0.00    +0.184 C 
ATOM     17  O   UNL     1       7.464   4.899 -13.991  0.00  0.00    -0.220 OA
ENDBRANCH  13  16
ENDBRANCH   1  13
TORSDOF 2
ENDMDL
MODEL 7
REMARK VINA RESULT:      -6.7      3.753      5.047
REMARK  Name = 
REMARK  2 active torsions:
REMARK  status: ('A' for Active; 'I' for Inactive)
REMARK    1  A    between atoms: C_2  and  C_4
REMARK    2  A    between atoms: C_4  and  C_6
REMARK                            x       y       z     vdW  Elec       q    Type
REMARK                         _______ _______ _______ _____ _____    ______ ____
ROOT
ATOM      1  C   UNL     1       1.475   5.929  -8.321  0.00  0.00    +0.147 C 
ATOM      2  N   UNL     1       1.119   6.950  -9.472  0.00  0.00    -0.228 NA
ATOM      3  C   UNL     1       1.092   6.501 -10.794  0.00  0.00    +0.157 A 
ATOM      4  C   UNL     1       2.379   6.207 -11.261  0.00  0.00    +0.170 A 
ATOM      5  N   UNL     1       2.647   5.970 -12.545  0.00  0.00    -0.193 NA
ATOM      6  C   UNL     1       1.657   6.155 -13.461  0.00  0.00    +0.260 A 
ATOM      7  N   UNL     1       0.514   6.736 -13.023  0.00  0.00    -0.171 NA
ATOM      8  N   UNL     1       1.601   5.300 -14.610  0.00  0.00    -0.086 NA
ATOM      9  N   UNL     1       3.176   5.790 -10.138  0.00  0.00    -0.217 NA
ATOM     10  C   UNL     1       0.330   7.161 -11.753  0.00  0.00    +0.299 A 
ATOM     11  O   UNL     1      -0.539   8.018 -11.429  0.00  0.00    -0.264 OA
ATOM     12  C   UNL     1       2.454   4.942  -9.229  0.00  0.00    +0.138 C 
ENDROOT
BRANCH   1  13
ATOM     13  C   UNL     1       2.828   6.906  -7.865  0.00  0.00    +0.203 C 
ATOM     14  O   UNL     1       1.897   8.049  -7.512  0.00  0.00    -0.219 OA
BRANCH  13  16
ATOM     15  C   UNL     1       4.201   5.450  -6.263  0.00  0.00    +0.038 C 
ATOM     16  C   UNL     1       2.851   6.422  -6.189  0.00  0.00    +0.184 C 
ATOM     17  O   UNL     1       3.726   7.641  -5.827  0.00  0.00    -0.220 OA
ENDBRANCH  13  16
ENDBRANCH   1  13
TORSDOF 2
ENDMDL
MODEL 8
REMARK VINA RESULT:      -6.7      6.317      7.936
REMARK  Name = 
REMARK  2 active torsions:
REMARK  status: ('A' for Active; 'I' for Inactive)
REMARK    1  A    between atoms: C_2  and  C_4
REMARK    2  A    between atoms: C_4  and  C_6
REMARK                            x       y       z     vdW  Elec       q    Type
REMARK                         _______ _______ _______ _____ _____    ______ ____
ROOT
ATOM      1  C   UNL     1       1.704   5.965  -5.439  0.00  0.00    +0.147 C 
ATOM      2  N   UNL     1       1.455   5.115  -4.131  0.00  0.00    -0.228 NA
ATOM      3  C   UNL     1       1.995   5.556  -2.922  0.00  0.00    +0.157 A 
ATOM      4  C   UNL     1       3.389   5.428  -2.906  0.00  0.00    +0.170 A 
ATOM      5  N   UNL     1       4.118   5.574  -1.800  0.00  0.00    -0.193 NA
ATOM      6  C   UNL     1       3.472   5.717  -0.610  0.00  0.00    +0.260 A 
ATOM      7  N   UNL     1       2.131   5.527  -0.611  0.00  0.00    -0.171 NA
ATOM      8  N   UNL     1       4.051   6.551   0.402  0.00  0.00    -0.086 NA
ATOM      9  N   UNL     1       3.864   5.565  -4.258  0.00  0.00    -0.217 NA
ATOM     10  C   UNL     1       1.426   5.176  -1.709  0.00  0.00    +0.299 A 
ATOM     11  O   UNL     1       0.285   4.638  -1.657  0.00  0.00    -0.264 OA
ATOM     12  C   UNL     1       3.173   6.594  -4.987  0.00  0.00    +0.138 C 
ENDROOT
BRANCH   1  13
ATOM     13  C   UNL     1       2.478   4.606  -6.180  0.00  0.00    +0.203 C 
ATOM     14  O   UNL     1       1.198   3.801  -6.067  0.00  0.00    -0.219 OA
BRANCH  13  16
ATOM     15  C   UNL     1       3.519   5.691  -8.256  0.00  0.00    +0.038 C 
ATOM     16  C   UNL     1       2.057   5.023  -7.821  0.00  0.00    +0.184 C 
ATOM     17  O   UNL     1       2.521   3.637  -8.316  0.00  0.00    -0.220 OA
ENDBRANCH  13  16
ENDBRANCH   1  13
TORSDOF 2
ENDMDL
MODEL 9
REMARK VINA RESULT:      -6.5      2.677      3.201
REMARK  Name = 
REMARK  2 active torsions:
REMARK  status: ('A' for Active; 'I' for Inactive)
REMARK    1  A    between atoms: C_2  and  C_4
REMARK    2  A    between atoms: C_4  and  C_6
REMARK                            x       y       z     vdW  Elec       q    Type
REMARK                         _______ _______ _______ _____ _____    ______ ____
ROOT
ATOM      1  C   UNL     1       5.169   6.606 -10.171  0.00  0.00    +0.147 C 
ATOM      2  N   UNL     1       3.752   6.882  -9.531  0.00  0.00    -0.228 NA
ATOM      3  C   UNL     1       3.565   6.645  -8.168  0.00  0.00    +0.157 A 
ATOM      4  C   UNL     1       3.583   5.275  -7.880  0.00  0.00    +0.170 A 
ATOM      5  N   UNL     1       3.215   4.778  -6.699  0.00  0.00    -0.193 NA
ATOM      6  C   UNL     1       2.667   5.622  -5.781  0.00  0.00    +0.260 A 
ATOM      7  N   UNL     1       2.375   6.877  -6.196  0.00  0.00    -0.171 NA
ATOM      8  N   UNL     1       2.921   5.395  -4.388  0.00  0.00    -0.086 NA
ATOM      9  N   UNL     1       4.435   4.629  -8.842  0.00  0.00    -0.217 NA
ATOM     10  C   UNL     1       2.567   7.311  -7.462  0.00  0.00    +0.299 A 
ATOM     11  O   UNL     1       1.970   8.310  -7.950  0.00  0.00    -0.264 OA
ATOM     12  C   UNL     1       5.619   5.390  -9.135  0.00  0.00    +0.138 C 
ENDROOT
BRANCH   1  13
ATOM     13  C   UNL     1       4.461   5.462 -11.259  0.00  0.00    +0.203 C 
ATOM     14  O   UNL     1       3.390   6.466 -11.635  0.00  0.00    -0.219 OA
BRANCH  13  16
ATOM     15  C   UNL     1       6.813   5.190 -12.242  0.00  0.00    +0.038 C 
ATOM     16  C   UNL     1       5.385   5.938 -12.659  0.00  0.00    +0.184 C 
ATOM     17  O   UNL     1       4.924   4.677 -13.420  0.00  0.00    -0.220 OA
ENDBRANCH  13  16
ENDBRANCH   1  13
TORSDOF 2
ENDMDL
