MODEL 1
REMARK VINA RESULT:      -8.9      0.000      0.000
REMARK  Name = 
REMARK  3 active torsions:
REMARK  status: ('A' for Active; 'I' for Inactive)
REMARK    1  A    between atoms: N_2  and  C_3
REMARK    2  A    between atoms: C_3  and  C_4
REMARK    3  A    between atoms: C_7  and  C_8
REMARK                            x       y       z     vdW  Elec       q    Type
REMARK                         _______ _______ _______ _____ _____    ______ ____
ROOT
ATOM      1  C   UNL     1       1.456   5.104  -7.784  0.00  0.00    +0.077 A 
ATOM      2  C   UNL     1       1.650   4.954  -9.152  0.00  0.00    -0.001 A 
ATOM      3  C   UNL     1       0.496   5.207 -10.070  0.00  0.00    +0.051 C 
ATOM      4  C   UNL     1       0.786   4.755 -11.480  0.00  0.00    +0.120 C 
ATOM      5  N   UNL     1       1.700   5.666 -12.167  0.00  0.00    -0.201 NA
ATOM      6  C   UNL     1       3.083   5.799 -11.812  0.00  0.00    +0.265 C 
ATOM      7  C   UNL     1       3.710   5.471 -10.526  0.00  0.00    +0.058 A 
ATOM      8  C   UNL     1       5.027   5.819 -10.437  0.00  0.00    +0.034 A 
ATOM      9  C   UNL     1       5.682   5.487  -9.258  0.00  0.00    +0.142 A 
ATOM     10  F   UNL     1       7.043   5.460  -9.286  0.00  0.00    -0.204 F 
ATOM     11  C   UNL     1       4.985   5.086  -8.132  0.00  0.00    +0.049 A 
ATOM     12  C   UNL     1       3.620   4.826  -8.185  0.00  0.00    +0.083 A 
ATOM     13  O   UNL     1       3.782   6.582 -12.511  0.00  0.00    -0.268 OA
ATOM     14  C   UNL     1       3.014   5.025  -9.407  0.00  0.00    +0.020 A 
ATOM     15  N   UNL     1       2.660   4.885  -7.242  0.00  0.00    -0.246 NA
ENDROOT
BRANCH   1  19
ATOM     16  C   UNL     1      -1.549   6.552  -5.193  0.00  0.00    -0.005 A 
ATOM     17  C   UNL     1      -0.228   6.977  -5.113  0.00  0.00    -0.003 A 
ATOM     18  C   UNL     1       0.727   6.581  -6.027  0.00  0.00    +0.001 A 
ATOM     19  C   UNL     1       0.346   5.780  -7.096  0.00  0.00    +0.017 A 
ATOM     20  C   UNL     1      -0.938   5.248  -7.098  0.00  0.00    +0.001 A 
ATOM     21  C   UNL     1      -1.896   5.645  -6.183  0.00  0.00    -0.003 A 
BRANCH  16  22
ATOM     22  C   UNL     1      -2.575   7.511  -4.679  0.00  0.00    +0.115 C 
BRANCH  22  24
ATOM     23  C   UNL     1      -3.148   6.542  -2.609  0.00  0.00    +0.108 C 
ATOM     24  N   UNL     1      -2.403   7.614  -3.235  0.00  0.00    -0.212 NA
ENDBRANCH  22  24
ENDBRANCH  16  22
ENDBRANCH   1  19
TORSDOF 3
ENDMDL
MODEL 2
REMARK VINA RESULT:      -8.8      3.653      7.907
REMARK  Name = 
REMARK  3 active torsions:
REMARK  status: ('A' for Active; 'I' for Inactive)
REMARK    1  A    between atoms: N_2  and  C_3
REMARK    2  A    between atoms: C_3  and  C_4
REMARK    3  A    between atoms: C_7  and  C_8
REMARK                            x       y       z     vdW  Elec       q    Type
REMARK                         _______ _______ _______ _____ _____    ______ ____
ROOT
ATOM      1  C   UNL     1       3.029   5.116  -7.829  0.00  0.00    +0.077 A 
ATOM      2  C   UNL     1       2.810   4.963  -6.466  0.00  0.00    -0.001 A 
ATOM      3  C   UNL     1       3.963   5.147  -5.530  0.00  0.00    +0.051 C 
ATOM      4  C   UNL     1       3.631   4.696  -4.129  0.00  0.00    +0.120 C 
ATOM      5  N   UNL     1       2.756   5.646  -3.444  0.00  0.00    -0.201 NA
ATOM      6  C   UNL     1       1.387   5.854  -3.815  0.00  0.00    +0.265 C 
ATOM      7  C   UNL     1       0.761   5.571  -5.113  0.00  0.00    +0.058 A 
ATOM      8  C   UNL     1      -0.536   5.987  -5.215  0.00  0.00    +0.034 A 
ATOM      9  C   UNL     1      -1.191   5.701  -6.406  0.00  0.00    +0.142 A 
ATOM     10  F   UNL     1      -2.551   5.743  -6.396  0.00  0.00    -0.204 F 
ATOM     11  C   UNL     1      -0.500   5.276  -7.527  0.00  0.00    +0.049 A 
ATOM     12  C   UNL     1       0.849   4.946  -7.460  0.00  0.00    +0.083 A 
ATOM     13  O   UNL     1       0.718   6.664  -3.117  0.00  0.00    -0.268 OA
ATOM     14  C   UNL     1       1.448   5.101  -6.228  0.00  0.00    +0.020 A 
ATOM     15  N   UNL     1       1.823   4.964  -8.389  0.00  0.00    -0.246 NA
ENDROOT
BRANCH   1  19
ATOM     16  C   UNL     1       6.174   6.393 -10.343  0.00  0.00    -0.005 A 
ATOM     17  C   UNL     1       4.867   6.836 -10.502  0.00  0.00    -0.003 A 
ATOM     18  C   UNL     1       3.865   6.498  -9.616  0.00  0.00    +0.001 A 
ATOM     19  C   UNL     1       4.182   5.741  -8.495  0.00  0.00    +0.017 A 
ATOM     20  C   UNL     1       5.454   5.188  -8.412  0.00  0.00    +0.001 A 
ATOM     21  C   UNL     1       6.460   5.525  -9.299  0.00  0.00    -0.003 A 
BRANCH  16  22
ATOM     22  C   UNL     1       7.240   7.310 -10.853  0.00  0.00    +0.115 C 
BRANCH  22  24
ATOM     23  C   UNL     1       8.610   5.915 -12.168  0.00  0.00    +0.108 C 
ATOM     24  N   UNL     1       7.558   6.908 -12.217  0.00  0.00    -0.212 NA
ENDBRANCH  22  24
ENDBRANCH  16  22
ENDBRANCH   1  19
TORSDOF 3
ENDMDL
MODEL 3
REMARK VINA RESULT:      -8.3      4.228      7.709
REMARK  Name = 
REMARK  3 active torsions:
REMARK  status: ('A' for Active; 'I' for Inactive)
REMARK    1  A    between atoms: N_2  and  C_3
REMARK    2  A    between atoms: C_3  and  C_4
REMARK    3  A    between atoms: C_7  and  C_8
REMARK                            x       y       z     vdW  Elec       q    Type
REMARK                         _______ _______ _______ _____ _____    ______ ____
ROOT
ATOM      1  C   UNL     1       3.126   6.977  -5.538  0.00  0.00    +0.077 A 
ATOM      2  C   UNL     1       2.005   6.809  -4.737  0.00  0.00    -0.001 A 
ATOM      3  C   UNL     1       0.732   6.348  -5.374  0.00  0.00    +0.051 C 
ATOM      4  C   UNL     1      -0.445   6.465  -4.437  0.00  0.00    +0.120 C 
ATOM      5  N   UNL     1      -0.430   5.423  -3.411  0.00  0.00    -0.201 NA
ATOM      6  C   UNL     1       0.541   5.380  -2.357  0.00  0.00    +0.265 C 
ATOM      7  C   UNL     1       1.874   5.997  -2.345  0.00  0.00    +0.058 A 
ATOM      8  C   UNL     1       2.629   5.682  -1.251  0.00  0.00    +0.034 A 
ATOM      9  C   UNL     1       3.880   6.278  -1.165  0.00  0.00    +0.142 A 
ATOM     10  F   UNL     1       4.478   6.303   0.057  0.00  0.00    -0.204 F 
ATOM     11  C   UNL     1       4.449   6.925  -2.249  0.00  0.00    +0.049 A 
ATOM     12  C   UNL     1       3.721   7.162  -3.409  0.00  0.00    +0.083 A 
ATOM     13  O   UNL     1       0.421   4.460  -1.503  0.00  0.00    -0.268 OA
ATOM     14  C   UNL     1       2.428   6.686  -3.419  0.00  0.00    +0.020 A 
ATOM     15  N   UNL     1       4.104   7.318  -4.691  0.00  0.00    -0.246 NA
ENDROOT
BRANCH   1  19
ATOM     16  C   UNL     1       4.424   5.997  -9.437  0.00  0.00    -0.005 A 
ATOM     17  C   UNL     1       4.946   5.387  -8.303  0.00  0.00    -0.003 A 
ATOM     18  C   UNL     1       4.447   5.634  -7.041  0.00  0.00    +0.001 A 
ATOM     19  C   UNL     1       3.348   6.473  -6.902  0.00  0.00    +0.017 A 
ATOM     20  C   UNL     1       2.916   7.184  -8.015  0.00  0.00    +0.001 A 
ATOM     21  C   UNL     1       3.416   6.938  -9.281  0.00  0.00    -0.003 A 
BRANCH  16  22
ATOM     22  C   UNL     1       4.500   5.200 -10.701  0.00  0.00    +0.115 C 
BRANCH  22  24
ATOM     23  C   UNL     1       4.533   5.492 -13.038  0.00  0.00    +0.108 C 
ATOM     24  N   UNL     1       4.054   6.056 -11.793  0.00  0.00    -0.212 NA
ENDBRANCH  22  24
ENDBRANCH  16  22
ENDBRANCH   1  19
TORSDOF 3
ENDMDL
MODEL 4
REMARK VINA RESULT:      -8.2      3.770      7.339
REMARK  Name = 
REMARK  3 active torsions:
REMARK  status: ('A' for Active; 'I' for Inactive)
REMARK    1  A    between atoms: N_2  and  C_3
REMARK    2  A    between atoms: C_3  and  C_4
REMARK    3  A    between atoms: C_7  and  C_8
REMARK                            x       y       z     vdW  Elec       q    Type
REMARK                         _______ _______ _______ _____ _____    ______ ____
ROOT
ATOM      1  C   UNL     1      -0.106   5.121  -8.374  0.00  0.00    +0.077 A 
ATOM      2  C   UNL     1       0.640   4.938  -7.217  0.00  0.00    -0.001 A 
ATOM      3  C   UNL     1       2.113   4.707  -7.343  0.00  0.00    +0.051 C 
ATOM      4  C   UNL     1       2.730   4.270  -6.037  0.00  0.00    +0.120 C 
ATOM      5  N   UNL     1       2.854   5.381  -5.095  0.00  0.00    -0.201 NA
ATOM      6  C   UNL     1       1.724   6.006  -4.473  0.00  0.00    +0.265 C 
ATOM      7  C   UNL     1       0.335   6.016  -4.949  0.00  0.00    +0.058 A 
ATOM      8  C   UNL     1      -0.507   6.799  -4.212  0.00  0.00    +0.034 A 
ATOM      9  C   UNL     1      -1.843   6.806  -4.590  0.00  0.00    +0.142 A 
ATOM     10  F   UNL     1      -2.749   7.243  -3.673  0.00  0.00    -0.204 F 
ATOM     11  C   UNL     1      -2.254   6.282  -5.803  0.00  0.00    +0.049 A 
ATOM     12  C   UNL     1      -1.378   5.568  -6.613  0.00  0.00    +0.083 A 
ATOM     13  O   UNL     1       1.961   6.922  -3.639  0.00  0.00    -0.268 OA
ATOM     14  C   UNL     1      -0.086   5.450  -6.147  0.00  0.00    +0.020 A 
ATOM     15  N   UNL     1      -1.349   5.370  -7.944  0.00  0.00    -0.246 NA
ENDROOT
BRANCH   1  19
ATOM     16  C   UNL     1       0.516   6.129 -12.429  0.00  0.00    -0.005 A 
ATOM     17  C   UNL     1       0.344   7.090 -11.440  0.00  0.00    -0.003 A 
ATOM     18  C   UNL     1       0.246   6.760 -10.104  0.00  0.00    +0.001 A 
ATOM     19  C   UNL     1       0.383   5.430  -9.726  0.00  0.00    +0.017 A 
ATOM     20  C   UNL     1       0.418   4.461 -10.722  0.00  0.00    +0.001 A 
ATOM     21  C   UNL     1       0.516   4.791 -12.062  0.00  0.00    -0.003 A 
BRANCH  16  22
ATOM     22  C   UNL     1       1.288   6.563 -13.634  0.00  0.00    +0.115 C 
BRANCH  22  24
ATOM     23  C   UNL     1       0.208   6.825 -15.712  0.00  0.00    +0.108 C 
ATOM     24  N   UNL     1       0.749   5.852 -14.786  0.00  0.00    -0.212 NA
ENDBRANCH  22  24
ENDBRANCH  16  22
ENDBRANCH   1  19
TORSDOF 3
ENDMDL
MODEL 5
REMARK VINA RESULT:      -8.0      3.326      3.990
REMARK  Name = 
REMARK  3 active torsions:
REMARK  status: ('A' for Active; 'I' for Inactive)
REMARK    1  A    between atoms: N_2  and  C_3
REMARK    2  A    between atoms: C_3  and  C_4
REMARK    3  A    between atoms: C_7  and  C_8
REMARK                            x       y       z     vdW  Elec       q    Type
REMARK                         _______ _______ _______ _____ _____    ______ ____
ROOT
ATOM      1  C   UNL     1       4.578   5.200  -7.250  0.00  0.00    +0.077 A 
ATOM      2  C   UNL     1       3.766   4.952  -8.349  0.00  0.00    -0.001 A 
ATOM      3  C   UNL     1       2.294   4.792  -8.130  0.00  0.00    +0.051 C 
ATOM      4  C   UNL     1       1.592   4.273  -9.361  0.00  0.00    +0.120 C 
ATOM      5  N   UNL     1       1.459   5.305 -10.387  0.00  0.00    -0.201 NA
ATOM      6  C   UNL     1       2.577   5.830 -11.116  0.00  0.00    +0.265 C 
ATOM      7  C   UNL     1       3.989   5.823 -10.713  0.00  0.00    +0.058 A 
ATOM      8  C   UNL     1       4.818   6.506 -11.555  0.00  0.00    +0.034 A 
ATOM      9  C   UNL     1       6.172   6.490 -11.246  0.00  0.00    +0.142 A 
ATOM     10  F   UNL     1       7.043   6.812 -12.241  0.00  0.00    -0.204 F 
ATOM     11  C   UNL     1       6.627   6.054 -10.015  0.00  0.00    +0.049 A 
ATOM     12  C   UNL     1       5.770   5.447  -9.104  0.00  0.00    +0.083 A 
ATOM     13  O   UNL     1       2.329   6.682 -12.013  0.00  0.00    -0.268 OA
ATOM     14  C   UNL     1       4.452   5.342  -9.492  0.00  0.00    +0.020 A 
ATOM     15  N   UNL     1       5.804   5.362  -7.760  0.00  0.00    -0.246 NA
ENDROOT
BRANCH   1  19
ATOM     16  C   UNL     1       4.202   6.631  -3.293  0.00  0.00    -0.005 A 
ATOM     17  C   UNL     1       4.265   7.482  -4.389  0.00  0.00    -0.003 A 
ATOM     18  C   UNL     1       4.282   7.009  -5.686  0.00  0.00    +0.001 A 
ATOM     19  C   UNL     1       4.173   5.641  -5.907  0.00  0.00    +0.017 A 
ATOM     20  C   UNL     1       4.248   4.788  -4.812  0.00  0.00    +0.001 A 
ATOM     21  C   UNL     1       4.230   5.261  -3.512  0.00  0.00    -0.003 A 
BRANCH  16  22
ATOM     22  C   UNL     1       3.500   7.170  -2.088  0.00  0.00    +0.115 C 
BRANCH  22  24
ATOM     23  C   UNL     1       3.625   9.005  -0.615  0.00  0.00    +0.108 C 
ATOM     24  N   UNL     1       3.813   8.590  -1.990  0.00  0.00    -0.212 NA
ENDBRANCH  22  24
ENDBRANCH  16  22
ENDBRANCH   1  19
TORSDOF 3
ENDMDL
MODEL 6
REMARK VINA RESULT:      -8.0      3.864      7.390
REMARK  Name = 
REMARK  3 active torsions:
REMARK  status: ('A' for Active; 'I' for Inactive)
REMARK    1  A    between atoms: N_2  and  C_3
REMARK    2  A    between atoms: C_3  and  C_4
REMARK    3  A    between atoms: C_7  and  C_8
REMARK                            x       y       z     vdW  Elec       q    Type
REMARK                         _______ _______ _______ _____ _____    ______ ____
ROOT
ATOM      1  C   UNL     1       1.223   6.839  -5.633  0.00  0.00    +0.077 A 
ATOM      2  C   UNL     1       0.077   6.944  -4.855  0.00  0.00    -0.001 A 
ATOM      3  C   UNL     1      -1.233   7.182  -5.539  0.00  0.00    +0.051 C 
ATOM      4  C   UNL     1      -2.326   7.530  -4.560  0.00  0.00    +0.120 C 
ATOM      5  N   UNL     1      -2.782   6.360  -3.813  0.00  0.00    -0.201 NA
ATOM      6  C   UNL     1      -1.973   5.694  -2.834  0.00  0.00    +0.265 C 
ATOM      7  C   UNL     1      -0.509   5.717  -2.722  0.00  0.00    +0.058 A 
ATOM      8  C   UNL     1      -0.005   4.887  -1.762  0.00  0.00    +0.034 A 
ATOM      9  C   UNL     1       1.371   4.906  -1.581  0.00  0.00    +0.142 A 
ATOM     10  F   UNL     1       1.854   4.409  -0.409  0.00  0.00    -0.204 F 
ATOM     11  C   UNL     1       2.214   5.509  -2.498  0.00  0.00    +0.049 A 
ATOM     12  C   UNL     1       1.709   6.275  -3.543  0.00  0.00    +0.083 A 
ATOM     13  O   UNL     1      -2.494   4.725  -2.220  0.00  0.00    -0.268 OA
ATOM     14  C   UNL     1       0.336   6.362  -3.620  0.00  0.00    +0.020 A 
ATOM     15  N   UNL     1       2.202   6.561  -4.763  0.00  0.00    -0.246 NA
ENDROOT
BRANCH   1  19
ATOM     16  C   UNL     1       2.174   5.819  -9.620  0.00  0.00    -0.005 A 
ATOM     17  C   UNL     1       1.554   4.929  -8.752  0.00  0.00    -0.003 A 
ATOM     18  C   UNL     1       1.151   5.300  -7.485  0.00  0.00    +0.001 A 
ATOM     19  C   UNL     1       1.315   6.620  -7.084  0.00  0.00    +0.017 A 
ATOM     20  C   UNL     1       2.055   7.470  -7.898  0.00  0.00    +0.001 A 
ATOM     21  C   UNL     1       2.459   7.100  -9.169  0.00  0.00    -0.003 A 
BRANCH  16  22
ATOM     22  C   UNL     1       1.924   5.590 -11.077  0.00  0.00    +0.115 C 
BRANCH  22  24
ATOM     23  C   UNL     1       0.534   6.954 -12.404  0.00  0.00    +0.108 C 
ATOM     24  N   UNL     1       0.541   5.957 -11.354  0.00  0.00    -0.212 NA
ENDBRANCH  22  24
ENDBRANCH  16  22
ENDBRANCH   1  19
TORSDOF 3
ENDMDL
MODEL 7
REMARK VINA RESULT:      -8.0      4.001      7.179
REMARK  Name = 
REMARK  3 active torsions:
REMARK  status: ('A' for Active; 'I' for Inactive)
REMARK    1  A    between atoms: N_2  and  C_3
REMARK    2  A    between atoms: C_3  and  C_4
REMARK    3  A    between atoms: C_7  and  C_8
REMARK                            x       y       z     vdW  Elec       q    Type
REMARK                         _______ _______ _______ _____ _____    ______ ____
ROOT
ATOM      1  C   UNL     1       2.666   6.870  -5.834  0.00  0.00    +0.077 A 
ATOM      2  C   UNL     1       1.657   6.793  -4.882  0.00  0.00    -0.001 A 
ATOM      3  C   UNL     1       0.253   6.562  -5.344  0.00  0.00    +0.051 C 
ATOM      4  C   UNL     1      -0.748   6.763  -4.233  0.00  0.00    +0.120 C 
ATOM      5  N   UNL     1      -0.740   5.650  -3.285  0.00  0.00    -0.201 NA
ATOM      6  C   UNL     1       0.355   5.392  -2.395  0.00  0.00    +0.265 C 
ATOM      7  C   UNL     1       1.751   5.819  -2.550  0.00  0.00    +0.058 A 
ATOM      8  C   UNL     1       2.601   5.319  -1.604  0.00  0.00    +0.034 A 
ATOM      9  C   UNL     1       3.924   5.731  -1.675  0.00  0.00    +0.142 A 
ATOM     10  F   UNL     1       4.687   5.577  -0.559  0.00  0.00    -0.204 F 
ATOM     11  C   UNL     1       4.422   6.378  -2.793  0.00  0.00    +0.049 A 
ATOM     12  C   UNL     1       3.579   6.803  -3.813  0.00  0.00    +0.083 A 
ATOM     13  O   UNL     1       0.224   4.432  -1.588  0.00  0.00    -0.268 OA
ATOM     14  C   UNL     1       2.241   6.509  -3.653  0.00  0.00    +0.020 A 
ATOM     15  N   UNL     1       3.794   7.007  -5.127  0.00  0.00    -0.246 NA
ENDROOT
BRANCH   1  19
ATOM     16  C   UNL     1       1.718   5.642  -9.763  0.00  0.00    -0.005 A 
ATOM     17  C   UNL     1       1.637   6.969  -9.358  0.00  0.00    -0.003 A 
ATOM     18  C   UNL     1       2.047   7.380  -8.106  0.00  0.00    +0.001 A 
ATOM     19  C   UNL     1       2.615   6.451  -7.243  0.00  0.00    +0.017 A 
ATOM     20  C   UNL     1       2.569   5.108  -7.597  0.00  0.00    +0.001 A 
ATOM     21  C   UNL     1       2.159   4.694  -8.852  0.00  0.00    -0.003 A 
BRANCH  16  22
ATOM     22  C   UNL     1       1.942   5.420 -11.225  0.00  0.00    +0.115 C 
BRANCH  22  24
ATOM     23  C   UNL     1       4.207   5.645 -11.833  0.00  0.00    +0.108 C 
ATOM     24  N   UNL     1       2.960   6.363 -11.667  0.00  0.00    -0.212 NA
ENDBRANCH  22  24
ENDBRANCH  16  22
ENDBRANCH   1  19
TORSDOF 3
ENDMDL
MODEL 8
REMARK VINA RESULT:      -7.9      3.994      7.801
REMARK  Name = 
REMARK  3 active torsions:
REMARK  status: ('A' for Active; 'I' for Inactive)
REMARK    1  A    between atoms: N_2  and  C_3
REMARK    2  A    between atoms: C_3  and  C_4
REMARK    3  A    between atoms: C_7  and  C_8
REMARK                            x       y       z     vdW  Elec       q    Type
REMARK                         _______ _______ _______ _____ _____    ______ ____
ROOT
ATOM      1  C   UNL     1       2.444   4.935  -6.880  0.00  0.00    +0.077 A 
ATOM      2  C   UNL     1       2.666   4.869  -5.511  0.00  0.00    -0.001 A 
ATOM      3  C   UNL     1       4.061   5.054  -5.001  0.00  0.00    +0.051 C 
ATOM      4  C   UNL     1       4.181   4.698  -3.540  0.00  0.00    +0.120 C 
ATOM      5  N   UNL     1       3.593   5.724  -2.680  0.00  0.00    -0.201 NA
ATOM      6  C   UNL     1       2.183   5.971  -2.613  0.00  0.00    +0.265 C 
ATOM      7  C   UNL     1       1.169   5.644  -3.625  0.00  0.00    +0.058 A 
ATOM      8  C   UNL     1      -0.082   6.111  -3.340  0.00  0.00    +0.034 A 
ATOM      9  C   UNL     1      -1.088   5.788  -4.240  0.00  0.00    +0.142 A 
ATOM     10  F   UNL     1      -2.373   5.892  -3.804  0.00  0.00    -0.204 F 
ATOM     11  C   UNL     1      -0.801   5.270  -5.491  0.00  0.00    +0.049 A 
ATOM     12  C   UNL     1       0.491   4.884  -5.830  0.00  0.00    +0.083 A 
ATOM     13  O   UNL     1       1.791   6.849  -1.796  0.00  0.00    -0.268 OA
ATOM     14  C   UNL     1       1.454   5.081  -4.864  0.00  0.00    +0.020 A 
ATOM     15  N   UNL     1       1.119   4.806  -7.019  0.00  0.00    -0.246 NA
ENDROOT
BRANCH   1  19
ATOM     16  C   UNL     1       4.367   6.409 -10.340  0.00  0.00    -0.005 A 
ATOM     17  C   UNL     1       3.570   7.211  -9.533  0.00  0.00    -0.003 A 
ATOM     18  C   UNL     1       3.029   6.753  -8.349  0.00  0.00    +0.001 A 
ATOM     19  C   UNL     1       3.340   5.469  -7.917  0.00  0.00    +0.017 A 
ATOM     20  C   UNL     1       4.022   4.627  -8.788  0.00  0.00    +0.001 A 
ATOM     21  C   UNL     1       4.565   5.085  -9.975  0.00  0.00    -0.003 A 
BRANCH  16  22
ATOM     22  C   UNL     1       5.420   7.121 -11.130  0.00  0.00    +0.115 C 
BRANCH  22  24
ATOM     23  C   UNL     1       7.686   6.994 -10.497  0.00  0.00    +0.108 C 
ATOM     24  N   UNL     1       6.608   6.278 -11.147  0.00  0.00    -0.212 NA
ENDBRANCH  22  24
ENDBRANCH  16  22
ENDBRANCH   1  19
TORSDOF 3
ENDMDL
MODEL 9
REMARK VINA RESULT:      -7.8      3.402      7.162
REMARK  Name = 
REMARK  3 active torsions:
REMARK  status: ('A' for Active; 'I' for Inactive)
REMARK    1  A    between atoms: N_2  and  C_3
REMARK    2  A    between atoms: C_3  and  C_4
REMARK    3  A    between atoms: C_7  and  C_8
REMARK                            x       y       z     vdW  Elec       q    Type
REMARK                         _______ _______ _______ _____ _____    ______ ____
ROOT
ATOM      1  C   UNL     1       1.038   5.230 -10.517  0.00  0.00    +0.077 A 
ATOM      2  C   UNL     1       2.037   5.084  -9.563  0.00  0.00    -0.001 A 
ATOM      3  C   UNL     1       3.463   5.226  -9.991  0.00  0.00    +0.051 C 
ATOM      4  C   UNL     1       4.424   4.786  -8.913  0.00  0.00    +0.120 C 
ATOM      5  N   UNL     1       4.515   5.765  -7.833  0.00  0.00    -0.201 NA
ATOM      6  C   UNL     1       3.442   6.022  -6.918  0.00  0.00    +0.265 C 
ATOM      7  C   UNL     1       2.011   5.763  -7.126  0.00  0.00    +0.058 A 
ATOM      8  C   UNL     1       1.204   6.225  -6.126  0.00  0.00    +0.034 A 
ATOM      9  C   UNL     1      -0.154   5.964  -6.249  0.00  0.00    +0.142 A 
ATOM     10  F   UNL     1      -0.912   6.054  -5.122  0.00  0.00    -0.204 F 
ATOM     11  C   UNL     1      -0.699   5.515  -7.439  0.00  0.00    +0.049 A 
ATOM     12  C   UNL     1       0.110   5.138  -8.504  0.00  0.00    +0.083 A 
ATOM     13  O   UNL     1       3.658   6.855  -5.997  0.00  0.00    -0.268 OA
ATOM     14  C   UNL     1       1.468   5.270  -8.308  0.00  0.00    +0.020 A 
ATOM     15  N   UNL     1      -0.107   5.122  -9.833  0.00  0.00    -0.246 NA
ENDROOT
BRANCH   1  19
ATOM     16  C   UNL     1       0.554   6.839 -14.392  0.00  0.00    -0.005 A 
ATOM     17  C   UNL     1       0.370   7.598 -13.243  0.00  0.00    -0.003 A 
ATOM     18  C   UNL     1       0.630   7.097 -11.984  0.00  0.00    +0.001 A 
ATOM     19  C   UNL     1       1.151   5.815 -11.862  0.00  0.00    +0.017 A 
ATOM     20  C   UNL     1       1.205   5.014 -12.997  0.00  0.00    +0.001 A 
ATOM     21  C   UNL     1       0.945   5.515 -14.260  0.00  0.00    -0.003 A 
BRANCH  16  22
ATOM     22  C   UNL     1       0.936   7.601 -15.622  0.00  0.00    +0.115 C 
BRANCH  22  24
ATOM     23  C   UNL     1      -0.936   7.413 -17.041  0.00  0.00    +0.108 C 
ATOM     24  N   UNL     1       0.389   6.892 -16.771  0.00  0.00    -0.212 NA
ENDBRANCH  22  24
ENDBRANCH  16  22
ENDBRANCH   1  19
TORSDOF 3
ENDMDL
