MODEL 1
REMARK VINA RESULT:      -8.8      0.000      0.000
REMARK  Name = 
REMARK  7 active torsions:
REMARK  status: ('A' for Active; 'I' for Inactive)
REMARK    1  A    between atoms: C_4  and  C_6
REMARK    2  A    between atoms: C_6  and  C_7
REMARK    3  A    between atoms: C_6  and  C_23
REMARK    4  A    between atoms: C_6  and  C_29
REMARK    5  A    between atoms: C_7  and  C_8
REMARK    6  A    between atoms: C_8  and  N_9
REMARK    7  A    between atoms: C_12  and  C_14
REMARK                            x       y       z     vdW  Elec       q    Type
REMARK                         _______ _______ _______ _____ _____    ______ ____
ROOT
ATOM      1  C   UNL     1       1.022   6.104  -5.205  0.00  0.00    +0.108 C 
ENDROOT
BRANCH   1   2
ATOM      2  C   UNL     1       2.107   5.592  -4.336  0.00  0.00    -0.011 A 
ATOM      3  C   UNL     1       2.278   6.071  -3.059  0.00  0.00    -0.004 A 
ATOM      4  C   UNL     1       3.219   5.504  -2.226  0.00  0.00    -0.000 A 
ATOM      5  C   UNL     1       4.367   4.992  -2.809  0.00  0.00    -0.000 A 
ATOM      6  C   UNL     1       4.220   4.448  -4.075  0.00  0.00    -0.000 A 
ATOM      7  C   UNL     1       3.097   4.764  -4.827  0.00  0.00    -0.004 A 
ENDBRANCH   1   2
BRANCH   1   8
ATOM      8  C   UNL     1      -0.141   6.517  -4.357  0.00  0.00    -0.011 A 
ATOM      9  C   UNL     1      -0.811   5.496  -3.696  0.00  0.00    -0.004 A 
ATOM     10  C   UNL     1      -2.035   5.745  -3.087  0.00  0.00    -0.000 A 
ATOM     11  C   UNL     1      -2.868   6.624  -3.768  0.00  0.00    -0.000 A 
ATOM     12  C   UNL     1      -2.302   7.580  -4.599  0.00  0.00    -0.000 A 
ATOM     13  C   UNL     1      -0.919   7.624  -4.675  0.00  0.00    -0.004 A 
ENDBRANCH   1   8
BRANCH   1  16
ATOM     14  C   UNL     1       0.231   5.150  -8.602  0.00  0.00    +0.115 C 
ATOM     15  N   UNL     1      -0.299   5.361  -7.258  0.00  0.00    -0.276 N 
ATOM     16  C   UNL     1       0.586   5.071  -6.172  0.00  0.00    +0.232 C 
ATOM     17  O   UNL     1       0.668   3.863  -5.809  0.00  0.00    -0.274 OA
ATOM     18  C   UNL     1      -1.694   4.993  -7.064  0.00  0.00    +0.115 C 
ENDBRANCH   1  16
BRANCH   1  19
ATOM     19  C   UNL     1       1.468   7.338  -5.956  0.00  0.00    +0.034 C 
BRANCH  19  20
ATOM     20  C   UNL     1       2.911   7.284  -6.368  0.00  0.00    +0.073 C 
BRANCH  20  21
ATOM     21  N   UNL     1       3.116   6.769  -7.694  0.00  0.00    -0.272 NA
ATOM     22  C   UNL     1       3.077   7.783  -8.722  0.00  0.00    +0.075 C 
ATOM     23  C   UNL     1       2.911   7.100 -10.040  0.00  0.00    +0.052 C 
ATOM     24  C   UNL     1       3.818   5.944 -10.281  0.00  0.00    +0.148 C 
ATOM     25  O   UNL     1       3.071   4.988 -10.992  0.00  0.00    -0.221 OA
ATOM     26  C   UNL     1       4.330   5.259  -9.059  0.00  0.00    +0.052 C 
ATOM     27  C   UNL     1       4.422   6.125  -7.840  0.00  0.00    +0.075 C 
BRANCH  24  28
ATOM     28  C   UNL     1       4.982   6.266 -11.143  0.00  0.00    +0.005 A 
ATOM     29  C   UNL     1       5.357   5.285 -12.053  0.00  0.00    -0.001 A 
ATOM     30  C   UNL     1       6.580   5.316 -12.678  0.00  0.00    +0.011 A 
ATOM     31  C   UNL     1       7.505   6.228 -12.195  0.00  0.00    +0.058 A 
ATOM     32 CL   UNL     1       9.220   5.958 -12.415  0.00  0.00    -0.082 Cl
ATOM     33  C   UNL     1       7.014   7.374 -11.583  0.00  0.00    +0.011 A 
ATOM     34  C   UNL     1       5.741   7.397 -11.025  0.00  0.00    -0.001 A 
ENDBRANCH  24  28
ENDBRANCH  20  21
ENDBRANCH  19  20
ENDBRANCH   1  19
TORSDOF 7
ENDMDL
MODEL 2
REMARK VINA RESULT:      -8.4      3.266      8.639
REMARK  Name = 
REMARK  7 active torsions:
REMARK  status: ('A' for Active; 'I' for Inactive)
REMARK    1  A    between atoms: C_4  and  C_6
REMARK    2  A    between atoms: C_6  and  C_7
REMARK    3  A    between atoms: C_6  and  C_23
REMARK    4  A    between atoms: C_6  and  C_29
REMARK    5  A    between atoms: C_7  and  C_8
REMARK    6  A    between atoms: C_8  and  N_9
REMARK    7  A    between atoms: C_12  and  C_14
REMARK                            x       y       z     vdW  Elec       q    Type
REMARK                         _______ _______ _______ _____ _____    ______ ____
ROOT
ATOM      1  C   UNL     1       3.486   6.083 -10.012  0.00  0.00    +0.108 C 
ENDROOT
BRANCH   1   2
ATOM      2  C   UNL     1       2.318   5.520 -10.730  0.00  0.00    -0.011 A 
ATOM      3  C   UNL     1       1.916   6.033 -11.940  0.00  0.00    -0.004 A 
ATOM      4  C   UNL     1       0.899   5.425 -12.646  0.00  0.00    -0.000 A 
ATOM      5  C   UNL     1      -0.104   4.802 -11.921  0.00  0.00    -0.000 A 
ATOM      6  C   UNL     1       0.279   4.223 -10.722  0.00  0.00    -0.000 A 
ATOM      7  C   UNL     1       1.479   4.598 -10.135  0.00  0.00    -0.004 A 
ENDBRANCH   1   2
BRANCH   1   8
ATOM      8  C   UNL     1       4.535   6.480 -11.005  0.00  0.00    -0.011 A 
ATOM      9  C   UNL     1       5.173   5.441 -11.671  0.00  0.00    -0.004 A 
ATOM     10  C   UNL     1       6.315   5.692 -12.422  0.00  0.00    -0.000 A 
ATOM     11  C   UNL     1       7.178   6.642 -11.891  0.00  0.00    -0.000 A 
ATOM     12  C   UNL     1       6.663   7.631 -11.063  0.00  0.00    -0.000 A 
ATOM     13  C   UNL     1       5.295   7.631 -10.841  0.00  0.00    -0.004 A 
ENDBRANCH   1   8
BRANCH   1  16
ATOM     14  C   UNL     1       4.719   5.286  -6.708  0.00  0.00    +0.115 C 
ATOM     15  N   UNL     1       5.068   5.435  -8.118  0.00  0.00    -0.276 N 
ATOM     16  C   UNL     1       4.051   5.095  -9.065  0.00  0.00    +0.232 C 
ATOM     17  O   UNL     1       3.930   3.872  -9.359  0.00  0.00    -0.274 OA
ATOM     18  C   UNL     1       6.428   5.060  -8.475  0.00  0.00    +0.115 C 
ENDBRANCH   1  16
BRANCH   1  19
ATOM     19  C   UNL     1       3.105   7.338  -9.262  0.00  0.00    +0.034 C 
BRANCH  19  20
ATOM     20  C   UNL     1       1.745   7.255  -8.632  0.00  0.00    +0.073 C 
BRANCH  20  21
ATOM     21  N   UNL     1       1.746   6.647  -7.329  0.00  0.00    -0.272 NA
ATOM     22  C   UNL     1       1.413   7.563  -6.263  0.00  0.00    +0.075 C 
ATOM     23  C   UNL     1       1.822   6.935  -4.970  0.00  0.00    +0.052 C 
ATOM     24  C   UNL     1       1.401   5.519  -4.785  0.00  0.00    +0.148 C 
ATOM     25  O   UNL     1       2.448   4.874  -4.103  0.00  0.00    -0.221 OA
ATOM     26  C   UNL     1       1.171   4.744  -6.039  0.00  0.00    +0.052 C 
ATOM     27  C   UNL     1       0.766   5.566  -7.224  0.00  0.00    +0.075 C 
BRANCH  24  28
ATOM     28  C   UNL     1       0.202   5.358  -3.925  0.00  0.00    +0.005 A 
ATOM     29  C   UNL     1      -1.025   5.409  -4.574  0.00  0.00    -0.001 A 
ATOM     30  C   UNL     1      -2.197   5.589  -3.881  0.00  0.00    +0.011 A 
ATOM     31  C   UNL     1      -2.083   5.947  -2.546  0.00  0.00    +0.058 A 
ATOM     32 CL   UNL     1      -3.375   6.812  -1.744  0.00  0.00    -0.082 Cl
ATOM     33  C   UNL     1      -0.937   5.545  -1.872  0.00  0.00    +0.011 A 
ATOM     34  C   UNL     1       0.237   5.266  -2.561  0.00  0.00    -0.001 A 
ENDBRANCH  24  28
ENDBRANCH  20  21
ENDBRANCH  19  20
ENDBRANCH   1  19
TORSDOF 7
ENDMDL
MODEL 3
REMARK VINA RESULT:      -7.8      4.744      6.912
REMARK  Name = 
REMARK  7 active torsions:
REMARK  status: ('A' for Active; 'I' for Inactive)
REMARK    1  A    between atoms: C_4  and  C_6
REMARK    2  A    between atoms: C_6  and  C_7
REMARK    3  A    between atoms: C_6  and  C_23
REMARK    4  A    between atoms: C_6  and  C_29
REMARK    5  A    between atoms: C_7  and  C_8
REMARK    6  A    between atoms: C_8  and  N_9
REMARK    7  A    between atoms: C_12  and  C_14
REMARK                            x       y       z     vdW  Elec       q    Type
REMARK                         _______ _______ _______ _____ _____    ______ ____
ROOT
ATOM      1  C   UNL     1       3.237   8.356   0.627  0.00  0.00    +0.108 C 
ENDROOT
BRANCH   1   2
ATOM      2  C   UNL     1       4.306   8.003   1.589  0.00  0.00    -0.011 A 
ATOM      3  C   UNL     1       4.012   7.706   2.898  0.00  0.00    -0.004 A 
ATOM      4  C   UNL     1       5.004   7.270   3.750  0.00  0.00    -0.000 A 
ATOM      5  C   UNL     1       6.287   7.751   3.541  0.00  0.00    -0.000 A 
ATOM      6  C   UNL     1       6.637   8.007   2.226  0.00  0.00    -0.000 A 
ATOM      7  C   UNL     1       5.642   8.141   1.268  0.00  0.00    -0.004 A 
ENDBRANCH   1   2
BRANCH   1   8
ATOM      8  C   UNL     1       3.108   9.846   0.553  0.00  0.00    -0.011 A 
ATOM      9  C   UNL     1       3.540  10.442  -0.626  0.00  0.00    -0.004 A 
ATOM     10  C   UNL     1       3.688  11.822  -0.697  0.00  0.00    -0.000 A 
ATOM     11  C   UNL     1       4.171  12.427   0.456  0.00  0.00    -0.000 A 
ATOM     12  C   UNL     1       3.942  11.818   1.682  0.00  0.00    -0.000 A 
ATOM     13  C   UNL     1       3.206  10.645   1.687  0.00  0.00    -0.004 A 
ENDBRANCH   1   8
BRANCH   1  16
ATOM     14  C   UNL     1       0.027   6.958  -0.276  0.00  0.00    +0.115 C 
ATOM     15  N   UNL     1       0.714   8.075   0.365  0.00  0.00    -0.276 N 
ATOM     16  C   UNL     1       1.940   7.769   1.035  0.00  0.00    +0.232 C 
ATOM     17  O   UNL     1       1.851   7.318   2.212  0.00  0.00    -0.274 OA
ATOM     18  C   UNL     1      -0.143   9.056   1.015  0.00  0.00    +0.115 C 
ENDBRANCH   1  16
BRANCH   1  19
ATOM     19  C   UNL     1       3.586   7.885  -0.766  0.00  0.00    +0.034 C 
BRANCH  19  20
ATOM     20  C   UNL     1       3.473   6.396  -0.926  0.00  0.00    +0.073 C 
BRANCH  20  21
ATOM     21  N   UNL     1       3.111   5.982  -2.254  0.00  0.00    -0.272 NA
ATOM     22  C   UNL     1       2.460   7.015  -3.026  0.00  0.00    +0.075 C 
ATOM     23  C   UNL     1       1.800   6.368  -4.200  0.00  0.00    +0.052 C 
ATOM     24  C   UNL     1       2.643   5.403  -4.958  0.00  0.00    +0.148 C 
ATOM     25  O   UNL     1       1.794   4.360  -5.366  0.00  0.00    -0.221 OA
ATOM     26  C   UNL     1       3.753   4.771  -4.187  0.00  0.00    +0.052 C 
ATOM     27  C   UNL     1       4.276   5.588  -3.046  0.00  0.00    +0.075 C 
BRANCH  24  28
ATOM     28  C   UNL     1       3.219   5.964  -6.206  0.00  0.00    +0.005 A 
ATOM     29  C   UNL     1       2.487   6.976  -6.815  0.00  0.00    -0.001 A 
ATOM     30  C   UNL     1       2.730   7.358  -8.112  0.00  0.00    +0.011 A 
ATOM     31  C   UNL     1       3.570   6.543  -8.855  0.00  0.00    +0.058 A 
ATOM     32 CL   UNL     1       3.462   6.511 -10.601  0.00  0.00    -0.082 Cl
ATOM     33  C   UNL     1       4.521   5.804  -8.163  0.00  0.00    +0.011 A 
ATOM     34  C   UNL     1       4.342   5.485  -6.823  0.00  0.00    -0.001 A 
ENDBRANCH  24  28
ENDBRANCH  20  21
ENDBRANCH  19  20
ENDBRANCH   1  19
TORSDOF 7
ENDMDL
MODEL 4
REMARK VINA RESULT:      -7.8      2.231      3.603
REMARK  Name = 
REMARK  7 active torsions:
REMARK  status: ('A' for Active; 'I' for Inactive)
REMARK    1  A    between atoms: C_4  and  C_6
REMARK    2  A    between atoms: C_6  and  C_7
REMARK    3  A    between atoms: C_6  and  C_23
REMARK    4  A    between atoms: C_6  and  C_29
REMARK    5  A    between atoms: C_7  and  C_8
REMARK    6  A    between atoms: C_8  and  N_9
REMARK    7  A    between atoms: C_12  and  C_14
REMARK                            x       y       z     vdW  Elec       q    Type
REMARK                         _______ _______ _______ _____ _____    ______ ____
ROOT
ATOM      1  C   UNL     1       2.404   6.118  -3.086  0.00  0.00    +0.108 C 
ENDROOT
BRANCH   1   2
ATOM      2  C   UNL     1       2.679   7.213  -2.126  0.00  0.00    -0.011 A 
ATOM      3  C   UNL     1       3.651   8.150  -2.379  0.00  0.00    -0.004 A 
ATOM      4  C   UNL     1       3.815   9.225  -1.531  0.00  0.00    -0.000 A 
ATOM      5  C   UNL     1       3.536   9.031  -0.188  0.00  0.00    -0.000 A 
ATOM      6  C   UNL     1       2.521   8.134   0.103  0.00  0.00    -0.000 A 
ATOM      7  C   UNL     1       2.113   7.228  -0.866  0.00  0.00    -0.004 A 
ENDBRANCH   1   2
BRANCH   1   8
ATOM      8  C   UNL     1       0.939   5.808  -3.078  0.00  0.00    -0.011 A 
ATOM      9  C   UNL     1       0.102   6.785  -3.603  0.00  0.00    -0.004 A 
ATOM     10  C   UNL     1      -1.272   6.697  -3.421  0.00  0.00    -0.000 A 
ATOM     11  C   UNL     1      -1.677   6.205  -2.187  0.00  0.00    -0.000 A 
ATOM     12  C   UNL     1      -0.832   5.350  -1.493  0.00  0.00    -0.000 A 
ATOM     13  C   UNL     1       0.367   5.007  -2.096  0.00  0.00    -0.004 A 
ENDBRANCH   1   8
BRANCH   1  16
ATOM     14  C   UNL     1       2.934   3.301  -0.882  0.00  0.00    +0.115 C 
ATOM     15  N   UNL     1       3.485   4.557  -1.381  0.00  0.00    -0.276 N 
ATOM     16  C   UNL     1       3.168   4.899  -2.733  0.00  0.00    +0.232 C 
ATOM     17  O   UNL     1       3.882   4.379  -3.637  0.00  0.00    -0.274 OA
ATOM     18  C   UNL     1       4.835   4.874  -0.939  0.00  0.00    +0.115 C 
ENDBRANCH   1  16
BRANCH   1  19
ATOM     19  C   UNL     1       2.749   6.537  -4.496  0.00  0.00    +0.034 C 
BRANCH  19  20
ATOM     20  C   UNL     1       1.814   5.964  -5.522  0.00  0.00    +0.073 C 
BRANCH  20  21
ATOM     21  N   UNL     1       2.365   5.926  -6.850  0.00  0.00    -0.272 NA
ATOM     22  C   UNL     1       2.796   7.216  -7.336  0.00  0.00    +0.075 C 
ATOM     23  C   UNL     1       2.973   7.117  -8.816  0.00  0.00    +0.052 C 
ATOM     24  C   UNL     1       3.745   5.935  -9.291  0.00  0.00    +0.148 C 
ATOM     25  O   UNL     1       3.146   5.520 -10.493  0.00  0.00    -0.221 OA
ATOM     26  C   UNL     1       3.739   4.752  -8.383  0.00  0.00    +0.052 C 
ATOM     27  C   UNL     1       3.548   5.070  -6.931  0.00  0.00    +0.075 C 
BRANCH  24  28
ATOM     28  C   UNL     1       5.157   6.240  -9.631  0.00  0.00    +0.005 A 
ATOM     29  C   UNL     1       5.354   7.133 -10.678  0.00  0.00    -0.001 A 
ATOM     30  C   UNL     1       6.575   7.259 -11.294  0.00  0.00    +0.011 A 
ATOM     31  C   UNL     1       7.531   6.303 -10.986  0.00  0.00    +0.058 A 
ATOM     32 CL   UNL     1       8.825   5.945 -12.108  0.00  0.00    -0.082 Cl
ATOM     33  C   UNL     1       7.445   5.691  -9.742  0.00  0.00    +0.011 A 
ATOM     34  C   UNL     1       6.239   5.633  -9.055  0.00  0.00    -0.001 A 
ENDBRANCH  24  28
ENDBRANCH  20  21
ENDBRANCH  19  20
ENDBRANCH   1  19
TORSDOF 7
ENDMDL
MODEL 5
REMARK VINA RESULT:      -7.8      3.570      7.991
REMARK  Name = 
REMARK  7 active torsions:
REMARK  status: ('A' for Active; 'I' for Inactive)
REMARK    1  A    between atoms: C_4  and  C_6
REMARK    2  A    between atoms: C_6  and  C_7
REMARK    3  A    between atoms: C_6  and  C_23
REMARK    4  A    between atoms: C_6  and  C_29
REMARK    5  A    between atoms: C_7  and  C_8
REMARK    6  A    between atoms: C_8  and  N_9
REMARK    7  A    between atoms: C_12  and  C_14
REMARK                            x       y       z     vdW  Elec       q    Type
REMARK                         _______ _______ _______ _____ _____    ______ ____
ROOT
ATOM      1  C   UNL     1       1.786   6.296  -6.989  0.00  0.00    +0.108 C 
ENDROOT
BRANCH   1   2
ATOM      2  C   UNL     1       0.407   6.140  -6.470  0.00  0.00    -0.011 A 
ATOM      3  C   UNL     1      -0.503   5.333  -7.108  0.00  0.00    -0.004 A 
ATOM      4  C   UNL     1      -1.744   5.111  -6.549  0.00  0.00    -0.000 A 
ATOM      5  C   UNL     1      -2.304   6.135  -5.802  0.00  0.00    -0.000 A 
ATOM      6  C   UNL     1      -1.417   6.934  -5.098  0.00  0.00    -0.000 A 
ATOM      7  C   UNL     1      -0.075   6.935  -5.448  0.00  0.00    -0.004 A 
ENDBRANCH   1   2
BRANCH   1   8
ATOM      8  C   UNL     1       1.734   6.841  -8.382  0.00  0.00    -0.011 A 
ATOM      9  C   UNL     1       0.707   6.365  -9.189  0.00  0.00    -0.004 A 
ATOM     10  C   UNL     1       0.718   6.622 -10.554  0.00  0.00    -0.000 A 
ATOM     11  C   UNL     1       1.971   6.596 -11.154  0.00  0.00    -0.000 A 
ATOM     12  C   UNL     1       3.090   6.888 -10.386  0.00  0.00    -0.000 A 
ATOM     13  C   UNL     1       2.885   7.227  -9.059  0.00  0.00    -0.004 A 
ENDBRANCH   1   8
BRANCH   1  16
ATOM     14  C   UNL     1       4.605   4.294  -8.047  0.00  0.00    +0.115 C 
ATOM     15  N   UNL     1       3.162   4.491  -8.155  0.00  0.00    -0.276 N 
ATOM     16  C   UNL     1       2.501   4.999  -6.993  0.00  0.00    +0.232 C 
ATOM     17  O   UNL     1       2.188   4.160  -6.100  0.00  0.00    -0.274 OA
ATOM     18  C   UNL     1       2.441   3.478  -8.912  0.00  0.00    +0.115 C 
ENDBRANCH   1  16
BRANCH   1  19
ATOM     19  C   UNL     1       2.564   7.295  -6.164  0.00  0.00    +0.034 C 
BRANCH  19  20
ATOM     20  C   UNL     1       3.749   6.688  -5.470  0.00  0.00    +0.073 C 
BRANCH  20  21
ATOM     21  N   UNL     1       3.496   6.322  -4.103  0.00  0.00    -0.272 NA
ATOM     22  C   UNL     1       4.692   6.013  -3.355  0.00  0.00    +0.075 C 
ATOM     23  C   UNL     1       4.287   5.290  -2.112  0.00  0.00    +0.052 C 
ATOM     24  C   UNL     1       3.166   5.907  -1.349  0.00  0.00    +0.148 C 
ATOM     25  O   UNL     1       2.397   4.848  -0.837  0.00  0.00    -0.221 OA
ATOM     26  C   UNL     1       2.237   6.762  -2.144  0.00  0.00    +0.052 C 
ATOM     27  C   UNL     1       2.844   7.398  -3.356  0.00  0.00    +0.075 C 
BRANCH  24  28
ATOM     28  C   UNL     1       3.607   6.691  -0.168  0.00  0.00    +0.005 A 
ATOM     29  C   UNL     1       2.666   7.557   0.374  0.00  0.00    -0.001 A 
ATOM     30  C   UNL     1       3.027   8.553   1.249  0.00  0.00    +0.011 A 
ATOM     31  C   UNL     1       4.384   8.801   1.386  0.00  0.00    +0.058 A 
ATOM     32 CL   UNL     1       4.954  10.370   1.910  0.00  0.00    -0.082 Cl
ATOM     33  C   UNL     1       5.254   7.746   1.144  0.00  0.00    +0.011 A 
ATOM     34  C   UNL     1       4.878   6.679   0.336  0.00  0.00    -0.001 A 
ENDBRANCH  24  28
ENDBRANCH  20  21
ENDBRANCH  19  20
ENDBRANCH   1  19
TORSDOF 7
ENDMDL
MODEL 6
REMARK VINA RESULT:      -7.7      1.961      3.032
REMARK  Name = 
REMARK  7 active torsions:
REMARK  status: ('A' for Active; 'I' for Inactive)
REMARK    1  A    between atoms: C_4  and  C_6
REMARK    2  A    between atoms: C_6  and  C_7
REMARK    3  A    between atoms: C_6  and  C_23
REMARK    4  A    between atoms: C_6  and  C_29
REMARK    5  A    between atoms: C_7  and  C_8
REMARK    6  A    between atoms: C_8  and  N_9
REMARK    7  A    between atoms: C_12  and  C_14
REMARK                            x       y       z     vdW  Elec       q    Type
REMARK                         _______ _______ _______ _____ _____    ______ ____
ROOT
ATOM      1  C   UNL     1       1.229   5.675  -3.943  0.00  0.00    +0.108 C 
ENDROOT
BRANCH   1   2
ATOM      2  C   UNL     1       2.588   6.261  -3.858  0.00  0.00    -0.011 A 
ATOM      3  C   UNL     1       3.704   5.461  -3.829  0.00  0.00    -0.004 A 
ATOM      4  C   UNL     1       4.962   6.025  -3.863  0.00  0.00    -0.000 A 
ATOM      5  C   UNL     1       5.126   7.266  -3.271  0.00  0.00    -0.000 A 
ATOM      6  C   UNL     1       4.037   8.122  -3.333  0.00  0.00    -0.000 A 
ATOM      7  C   UNL     1       2.780   7.607  -3.614  0.00  0.00    -0.004 A 
ENDBRANCH   1   2
BRANCH   1   8
ATOM      8  C   UNL     1       0.273   6.710  -4.449  0.00  0.00    -0.011 A 
ATOM      9  C   UNL     1      -0.570   7.281  -3.503  0.00  0.00    -0.004 A 
ATOM     10  C   UNL     1      -1.644   8.063  -3.908  0.00  0.00    -0.000 A 
ATOM     11  C   UNL     1      -2.291   7.633  -5.060  0.00  0.00    -0.000 A 
ATOM     12  C   UNL     1      -1.578   6.898  -5.997  0.00  0.00    -0.000 A 
ATOM     13  C   UNL     1      -0.237   6.664  -5.741  0.00  0.00    -0.004 A 
ENDBRANCH   1   8
BRANCH   1  16
ATOM     14  C   UNL     1       0.980   6.152  -0.368  0.00  0.00    +0.115 C 
ATOM     15  N   UNL     1       1.564   5.345  -1.435  0.00  0.00    -0.276 N 
ATOM     16  C   UNL     1       0.777   5.190  -2.620  0.00  0.00    +0.232 C 
ATOM     17  O   UNL     1      -0.109   4.289  -2.602  0.00  0.00    -0.274 OA
ATOM     18  C   UNL     1       2.313   4.174  -1.004  0.00  0.00    +0.115 C 
ENDBRANCH   1  16
BRANCH   1  19
ATOM     19  C   UNL     1       1.194   4.535  -4.935  0.00  0.00    +0.034 C 
BRANCH  19  20
ATOM     20  C   UNL     1       2.444   4.439  -5.762  0.00  0.00    +0.073 C 
BRANCH  20  21
ATOM     21  N   UNL     1       2.332   5.055  -7.056  0.00  0.00    -0.272 NA
ATOM     22  C   UNL     1       3.083   6.283  -7.181  0.00  0.00    +0.075 C 
ATOM     23  C   UNL     1       2.587   7.008  -8.389  0.00  0.00    +0.052 C 
ATOM     24  C   UNL     1       2.453   6.182  -9.622  0.00  0.00    +0.148 C 
ATOM     25  O   UNL     1       1.307   6.644 -10.293  0.00  0.00    -0.221 OA
ATOM     26  C   UNL     1       2.256   4.720  -9.401  0.00  0.00    +0.052 C 
ATOM     27  C   UNL     1       2.832   4.190  -8.124  0.00  0.00    +0.075 C 
BRANCH  24  28
ATOM     28  C   UNL     1       3.575   6.350 -10.579  0.00  0.00    +0.005 A 
ATOM     29  C   UNL     1       3.534   5.548 -11.713  0.00  0.00    -0.001 A 
ATOM     30  C   UNL     1       4.641   5.373 -12.508  0.00  0.00    +0.011 A 
ATOM     31  C   UNL     1       5.848   5.838 -12.009  0.00  0.00    +0.058 A 
ATOM     32 CL   UNL     1       7.360   5.146 -12.551  0.00  0.00    -0.082 Cl
ATOM     33  C   UNL     1       5.803   6.898 -11.113  0.00  0.00    +0.011 A 
ATOM     34  C   UNL     1       4.661   7.153 -10.364  0.00  0.00    -0.001 A 
ENDBRANCH  24  28
ENDBRANCH  20  21
ENDBRANCH  19  20
ENDBRANCH   1  19
TORSDOF 7
ENDMDL
MODEL 7
REMARK VINA RESULT:      -7.4      1.407      3.880
REMARK  Name = 
REMARK  7 active torsions:
REMARK  status: ('A' for Active; 'I' for Inactive)
REMARK    1  A    between atoms: C_4  and  C_6
REMARK    2  A    between atoms: C_6  and  C_7
REMARK    3  A    between atoms: C_6  and  C_23
REMARK    4  A    between atoms: C_6  and  C_29
REMARK    5  A    between atoms: C_7  and  C_8
REMARK    6  A    between atoms: C_8  and  N_9
REMARK    7  A    between atoms: C_12  and  C_14
REMARK                            x       y       z     vdW  Elec       q    Type
REMARK                         _______ _______ _______ _____ _____    ______ ____
ROOT
ATOM      1  C   UNL     1       0.471   6.045  -5.276  0.00  0.00    +0.108 C 
ENDROOT
BRANCH   1   2
ATOM      2  C   UNL     1      -0.877   6.374  -4.756  0.00  0.00    -0.011 A 
ATOM      3  C   UNL     1      -1.249   7.676  -4.526  0.00  0.00    -0.004 A 
ATOM      4  C   UNL     1      -2.543   7.971  -4.150  0.00  0.00    -0.000 A 
ATOM      5  C   UNL     1      -3.219   7.033  -3.387  0.00  0.00    -0.000 A 
ATOM      6  C   UNL     1      -2.910   5.706  -3.634  0.00  0.00    -0.000 A 
ATOM      7  C   UNL     1      -1.737   5.392  -4.305  0.00  0.00    -0.004 A 
ENDBRANCH   1   2
BRANCH   1   8
ATOM      8  C   UNL     1       0.337   5.184  -6.494  0.00  0.00    -0.011 A 
ATOM      9  C   UNL     1       1.454   4.435  -6.843  0.00  0.00    -0.004 A 
ATOM     10  C   UNL     1       1.510   3.801  -8.077  0.00  0.00    -0.000 A 
ATOM     11  C   UNL     1       0.946   4.505  -9.133  0.00  0.00    -0.000 A 
ATOM     12  C   UNL     1      -0.069   5.415  -8.869  0.00  0.00    -0.000 A 
ATOM     13  C   UNL     1      -0.487   5.543  -7.554  0.00  0.00    -0.004 A 
ENDBRANCH   1   8
BRANCH   1  16
ATOM     14  C   UNL     1       0.843   4.840  -1.888  0.00  0.00    +0.115 C 
ATOM     15  N   UNL     1       1.345   5.770  -2.895  0.00  0.00    -0.276 N 
ATOM     16  C   UNL     1       1.275   5.335  -4.255  0.00  0.00    +0.232 C 
ATOM     17  O   UNL     1       2.210   4.590  -4.666  0.00  0.00    -0.274 OA
ATOM     18  C   UNL     1       2.534   6.522  -2.523  0.00  0.00    +0.115 C 
ENDBRANCH   1  16
BRANCH   1  19
ATOM     19  C   UNL     1       1.202   7.294  -5.711  0.00  0.00    +0.034 C 
BRANCH  19  20
ATOM     20  C   UNL     1       2.695   7.139  -5.685  0.00  0.00    +0.073 C 
BRANCH  20  21
ATOM     21  N   UNL     1       3.242   6.588  -6.896  0.00  0.00    -0.272 NA
ATOM     22  C   UNL     1       3.274   7.524  -7.996  0.00  0.00    +0.075 C 
ATOM     23  C   UNL     1       3.483   6.749  -9.256  0.00  0.00    +0.052 C 
ATOM     24  C   UNL     1       4.574   5.738  -9.212  0.00  0.00    +0.148 C 
ATOM     25  O   UNL     1       4.134   4.638  -9.969  0.00  0.00    -0.221 OA
ATOM     26  C   UNL     1       4.914   5.212  -7.858  0.00  0.00    +0.052 C 
ATOM     27  C   UNL     1       4.627   6.150  -6.726  0.00  0.00    +0.075 C 
BRANCH  24  28
ATOM     28  C   UNL     1       5.834   6.189  -9.854  0.00  0.00    +0.005 A 
ATOM     29  C   UNL     1       5.693   7.017 -10.961  0.00  0.00    -0.001 A 
ATOM     30  C   UNL     1       6.737   7.246 -11.824  0.00  0.00    +0.011 A 
ATOM     31  C   UNL     1       7.857   6.442 -11.676  0.00  0.00    +0.058 A 
ATOM     32 CL   UNL     1       8.936   6.163 -13.024  0.00  0.00    -0.082 Cl
ATOM     33  C   UNL     1       8.107   5.921 -10.413  0.00  0.00    +0.011 A 
ATOM     34  C   UNL     1       7.083   5.766  -9.487  0.00  0.00    -0.001 A 
ENDBRANCH  24  28
ENDBRANCH  20  21
ENDBRANCH  19  20
ENDBRANCH   1  19
TORSDOF 7
ENDMDL
MODEL 8
REMARK VINA RESULT:      -7.4      1.790      4.275
REMARK  Name = 
REMARK  7 active torsions:
REMARK  status: ('A' for Active; 'I' for Inactive)
REMARK    1  A    between atoms: C_4  and  C_6
REMARK    2  A    between atoms: C_6  and  C_7
REMARK    3  A    between atoms: C_6  and  C_23
REMARK    4  A    between atoms: C_6  and  C_29
REMARK    5  A    between atoms: C_7  and  C_8
REMARK    6  A    between atoms: C_8  and  N_9
REMARK    7  A    between atoms: C_12  and  C_14
REMARK                            x       y       z     vdW  Elec       q    Type
REMARK                         _______ _______ _______ _____ _____    ______ ____
ROOT
ATOM      1  C   UNL     1       1.709   5.903  -4.086  0.00  0.00    +0.108 C 
ENDROOT
BRANCH   1   2
ATOM      2  C   UNL     1       0.313   6.383  -3.964  0.00  0.00    -0.011 A 
ATOM      3  C   UNL     1      -0.140   7.443  -4.712  0.00  0.00    -0.004 A 
ATOM      4  C   UNL     1      -1.471   7.803  -4.669  0.00  0.00    -0.000 A 
ATOM      5  C   UNL     1      -2.152   7.603  -3.479  0.00  0.00    -0.000 A 
ATOM      6  C   UNL     1      -1.759   6.507  -2.727  0.00  0.00    -0.000 A 
ATOM      7  C   UNL     1      -0.527   5.919  -2.971  0.00  0.00    -0.004 A 
ENDBRANCH   1   2
BRANCH   1   8
ATOM      8  C   UNL     1       2.228   5.537  -2.730  0.00  0.00    -0.011 A 
ATOM      9  C   UNL     1       2.038   6.477  -1.725  0.00  0.00    -0.004 A 
ATOM     10  C   UNL     1       2.690   6.337  -0.507  0.00  0.00    -0.000 A 
ATOM     11  C   UNL     1       3.984   5.838  -0.580  0.00  0.00    -0.000 A 
ATOM     12  C   UNL     1       4.332   5.022  -1.648  0.00  0.00    -0.000 A 
ATOM     13  C   UNL     1       3.343   4.722  -2.571  0.00  0.00    -0.004 A 
ENDBRANCH   1   8
BRANCH   1  16
ATOM     14  C   UNL     1       2.880   7.690  -7.003  0.00  0.00    +0.115 C 
ATOM     15  N   UNL     1       3.243   6.763  -5.935  0.00  0.00    -0.276 N 
ATOM     16  C   UNL     1       2.578   6.944  -4.682  0.00  0.00    +0.232 C 
ATOM     17  O   UNL     1       3.051   7.821  -3.905  0.00  0.00    -0.274 OA
ATOM     18  C   UNL     1       4.650   6.398  -5.867  0.00  0.00    +0.115 C 
ENDBRANCH   1  16
BRANCH   1  19
ATOM     19  C   UNL     1       1.778   4.650  -4.927  0.00  0.00    +0.034 C 
BRANCH  19  20
ATOM     20  C   UNL     1       0.522   4.401  -5.712  0.00  0.00    +0.073 C 
BRANCH  20  21
ATOM     21  N   UNL     1       0.712   4.440  -7.137  0.00  0.00    -0.272 NA
ATOM     22  C   UNL     1       0.410   5.724  -7.727  0.00  0.00    +0.075 C 
ATOM     23  C   UNL     1       0.266   5.533  -9.201  0.00  0.00    +0.052 C 
ATOM     24  C   UNL     1       1.345   4.739  -9.852  0.00  0.00    +0.148 C 
ATOM     25  O   UNL     1       0.730   3.970 -10.855  0.00  0.00    -0.221 OA
ATOM     26  C   UNL     1       2.068   3.782  -8.965  0.00  0.00    +0.052 C 
ATOM     27  C   UNL     1       2.097   4.161  -7.516  0.00  0.00    +0.075 C 
BRANCH  24  28
ATOM     28  C   UNL     1       2.360   5.569 -10.549  0.00  0.00    +0.005 A 
ATOM     29  C   UNL     1       2.259   5.622 -11.933  0.00  0.00    -0.001 A 
ATOM     30  C   UNL     1       3.294   6.080 -12.712  0.00  0.00    +0.011 A 
ATOM     31  C   UNL     1       4.514   6.266 -12.081  0.00  0.00    +0.058 A 
ATOM     32 CL   UNL     1       6.006   6.206 -12.993  0.00  0.00    -0.082 Cl
ATOM     33  C   UNL     1       4.494   6.552 -10.722  0.00  0.00    +0.011 A 
ATOM     34  C   UNL     1       3.415   6.181  -9.929  0.00  0.00    -0.001 A 
ENDBRANCH  24  28
ENDBRANCH  20  21
ENDBRANCH  19  20
ENDBRANCH   1  19
TORSDOF 7
ENDMDL
MODEL 9
REMARK VINA RESULT:      -7.3      4.389      8.546
REMARK  Name = 
REMARK  7 active torsions:
REMARK  status: ('A' for Active; 'I' for Inactive)
REMARK    1  A    between atoms: C_4  and  C_6
REMARK    2  A    between atoms: C_6  and  C_7
REMARK    3  A    between atoms: C_6  and  C_23
REMARK    4  A    between atoms: C_6  and  C_29
REMARK    5  A    between atoms: C_7  and  C_8
REMARK    6  A    between atoms: C_8  and  N_9
REMARK    7  A    between atoms: C_12  and  C_14
REMARK                            x       y       z     vdW  Elec       q    Type
REMARK                         _______ _______ _______ _____ _____    ______ ____
ROOT
ATOM      1  C   UNL     1       1.171   6.048  -5.446  0.00  0.00    +0.108 C 
ENDROOT
BRANCH   1   2
ATOM      2  C   UNL     1      -0.172   5.768  -4.885  0.00  0.00    -0.011 A 
ATOM      3  C   UNL     1      -1.310   6.008  -5.616  0.00  0.00    -0.004 A 
ATOM      4  C   UNL     1      -2.542   5.636  -5.121  0.00  0.00    -0.000 A 
ATOM      5  C   UNL     1      -2.720   5.671  -3.748  0.00  0.00    -0.000 A 
ATOM      6  C   UNL     1      -1.606   5.376  -2.979  0.00  0.00    -0.000 A 
ATOM      7  C   UNL     1      -0.344   5.440  -3.554  0.00  0.00    -0.004 A 
ENDBRANCH   1   2
BRANCH   1   8
ATOM      8  C   UNL     1       1.024   6.628  -6.819  0.00  0.00    -0.011 A 
ATOM      9  C   UNL     1       0.519   5.776  -7.794  0.00  0.00    -0.004 A 
ATOM     10  C   UNL     1       0.574   6.139  -9.133  0.00  0.00    -0.000 A 
ATOM     11  C   UNL     1       1.719   6.826  -9.516  0.00  0.00    -0.000 A 
ATOM     12  C   UNL     1       2.403   7.574  -8.568  0.00  0.00    -0.000 A 
ATOM     13  C   UNL     1       1.877   7.620  -7.287  0.00  0.00    -0.004 A 
ENDBRANCH   1   8
BRANCH   1  16
ATOM     14  C   UNL     1       4.233   4.286  -4.678  0.00  0.00    +0.115 C 
ATOM     15  N   UNL     1       3.397   4.836  -5.741  0.00  0.00    -0.276 N 
ATOM     16  C   UNL     1       1.984   4.813  -5.516  0.00  0.00    +0.232 C 
ATOM     17  O   UNL     1       1.381   3.734  -5.779  0.00  0.00    -0.274 OA
ATOM     18  C   UNL     1       3.834   4.553  -7.100  0.00  0.00    +0.115 C 
ENDBRANCH   1  16
BRANCH   1  19
ATOM     19  C   UNL     1       1.897   7.082  -4.617  0.00  0.00    +0.034 C 
BRANCH  19  20
ATOM     20  C   UNL     1       2.624   6.489  -3.445  0.00  0.00    +0.073 C 
BRANCH  20  21
ATOM     21  N   UNL     1       2.623   7.328  -2.278  0.00  0.00    -0.272 NA
ATOM     22  C   UNL     1       2.442   6.602  -1.042  0.00  0.00    +0.075 C 
ATOM     23  C   UNL     1       2.073   7.584   0.022  0.00  0.00    +0.052 C 
ATOM     24  C   UNL     1       2.922   8.805   0.088  0.00  0.00    +0.148 C 
ATOM     25  O   UNL     1       2.068   9.872   0.419  0.00  0.00    -0.221 OA
ATOM     26  C   UNL     1       3.605   9.187  -1.183  0.00  0.00    +0.052 C 
ATOM     27  C   UNL     1       3.886   8.049  -2.116  0.00  0.00    +0.075 C 
BRANCH  24  28
ATOM     28  C   UNL     1       3.947   8.764   1.160  0.00  0.00    +0.005 A 
ATOM     29  C   UNL     1       4.054   9.905   1.946  0.00  0.00    -0.001 A 
ATOM     30  C   UNL     1       5.147  10.124   2.749  0.00  0.00    +0.011 A 
ATOM     31  C   UNL     1       6.233   9.281   2.568  0.00  0.00    +0.058 A 
ATOM     32 CL   UNL     1       7.845   9.801   3.004  0.00  0.00    -0.082 Cl
ATOM     33  C   UNL     1       5.977   8.005   2.083  0.00  0.00    +0.011 A 
ATOM     34  C   UNL     1       4.830   7.736   1.346  0.00  0.00    -0.001 A 
ENDBRANCH  24  28
ENDBRANCH  20  21
ENDBRANCH  19  20
ENDBRANCH   1  19
TORSDOF 7
ENDMDL
