MODEL 1
REMARK VINA RESULT:      -6.5      0.000      0.000
REMARK  Name = 
REMARK  1 active torsions:
REMARK  status: ('A' for Active; 'I' for Inactive)
REMARK    1  A    between atoms: N_7  and  C_8
REMARK                            x       y       z     vdW  Elec       q    Type
REMARK                         _______ _______ _______ _____ _____    ______ ____
ROOT
ATOM      1  C   UNL     1       0.782   6.955 -12.748  0.00  0.00    +0.033 C 
ATOM      2  C   UNL     1       2.030   6.140 -12.746  0.00  0.00    -0.004 A 
ATOM      3  C   UNL     1       2.780   5.902 -11.619  0.00  0.00    +0.079 A 
ATOM      4  N   UNL     1       4.116   5.693 -11.673  0.00  0.00    -0.273 N 
ATOM      5  C   UNL     1       4.570   5.099 -12.799  0.00  0.00    +0.265 A 
ATOM      6  O   UNL     1       5.821   5.015 -12.990  0.00  0.00    -0.267 OA
ATOM      7  C   UNL     1       3.743   5.041 -13.914  0.00  0.00    +0.061 A 
ATOM      8  C   UNL     1       2.552   5.757 -13.974  0.00  0.00    +0.002 A 
ENDROOT
BRANCH   4   9
ATOM      9  C   UNL     1       5.034   6.376 -10.807  0.00  0.00    +0.067 A 
ATOM     10  C   UNL     1       5.719   5.682  -9.814  0.00  0.00    +0.018 A 
ATOM     11  C   UNL     1       7.087   5.841  -9.623  0.00  0.00    +0.001 A 
ATOM     12  C   UNL     1       7.778   6.818 -10.332  0.00  0.00    +0.000 A 
ATOM     13  C   UNL     1       6.983   7.823 -10.871  0.00  0.00    +0.001 A 
ATOM     14  C   UNL     1       5.697   7.497 -11.285  0.00  0.00    +0.018 A 
ENDBRANCH   4   9
TORSDOF 1
ENDMDL
MODEL 2
REMARK VINA RESULT:      -6.4      6.065      8.178
REMARK  Name = 
REMARK  1 active torsions:
REMARK  status: ('A' for Active; 'I' for Inactive)
REMARK    1  A    between atoms: N_7  and  C_8
REMARK                            x       y       z     vdW  Elec       q    Type
REMARK                         _______ _______ _______ _____ _____    ______ ____
ROOT
ATOM      1  C   UNL     1       4.940   7.930  -4.141  0.00  0.00    +0.033 C 
ATOM      2  C   UNL     1       4.295   6.761  -4.804  0.00  0.00    -0.004 A 
ATOM      3  C   UNL     1       3.454   6.870  -5.886  0.00  0.00    +0.079 A 
ATOM      4  N   UNL     1       2.465   5.977  -6.123  0.00  0.00    -0.273 N 
ATOM      5  C   UNL     1       2.706   4.713  -5.710  0.00  0.00    +0.265 A 
ATOM      6  O   UNL     1       1.768   3.861  -5.753  0.00  0.00    -0.267 OA
ATOM      7  C   UNL     1       3.749   4.479  -4.821  0.00  0.00    +0.061 A 
ATOM      8  C   UNL     1       4.410   5.524  -4.184  0.00  0.00    +0.002 A 
ENDROOT
BRANCH   4   9
ATOM      9  C   UNL     1       1.123   6.384  -6.428  0.00  0.00    +0.067 A 
ATOM     10  C   UNL     1       0.464   5.872  -7.541  0.00  0.00    +0.018 A 
ATOM     11  C   UNL     1      -0.839   5.393  -7.463  0.00  0.00    +0.001 A 
ATOM     12  C   UNL     1      -1.568   5.555  -6.290  0.00  0.00    +0.000 A 
ATOM     13  C   UNL     1      -1.086   6.535  -5.431  0.00  0.00    +0.001 A 
ATOM     14  C   UNL     1       0.285   6.759  -5.387  0.00  0.00    +0.018 A 
ENDBRANCH   4   9
TORSDOF 1
ENDMDL
MODEL 3
REMARK VINA RESULT:      -6.4      2.120      3.163
REMARK  Name = 
REMARK  1 active torsions:
REMARK  status: ('A' for Active; 'I' for Inactive)
REMARK    1  A    between atoms: N_7  and  C_8
REMARK                            x       y       z     vdW  Elec       q    Type
REMARK                         _______ _______ _______ _____ _____    ______ ____
ROOT
ATOM      1  C   UNL     1       2.746   7.244  -7.326  0.00  0.00    +0.033 C 
ATOM      2  C   UNL     1       2.632   6.646  -8.687  0.00  0.00    -0.004 A 
ATOM      3  C   UNL     1       3.685   6.068  -9.353  0.00  0.00    +0.079 A 
ATOM      4  N   UNL     1       3.763   6.053 -10.704  0.00  0.00    -0.273 N 
ATOM      5  C   UNL     1       2.581   6.013 -11.358  0.00  0.00    +0.265 A 
ATOM      6  O   UNL     1       2.568   6.157 -12.618  0.00  0.00    -0.267 OA
ATOM      7  C   UNL     1       1.414   6.309 -10.664  0.00  0.00    +0.061 A 
ATOM      8  C   UNL     1       1.447   6.847  -9.381  0.00  0.00    +0.002 A 
ENDROOT
BRANCH   4   9
ATOM      9  C   UNL     1       4.955   6.435 -11.408  0.00  0.00    +0.067 A 
ATOM     10  C   UNL     1       5.614   7.619 -11.090  0.00  0.00    +0.018 A 
ATOM     11  C   UNL     1       6.992   7.661 -10.909  0.00  0.00    +0.001 A 
ATOM     12  C   UNL     1       7.764   6.539 -11.189  0.00  0.00    +0.000 A 
ATOM     13  C   UNL     1       7.153   5.598 -12.010  0.00  0.00    +0.001 A 
ATOM     14  C   UNL     1       5.774   5.442 -11.924  0.00  0.00    +0.018 A 
ENDBRANCH   4   9
TORSDOF 1
ENDMDL
MODEL 4
REMARK VINA RESULT:      -6.3      6.497      7.414
REMARK  Name = 
REMARK  1 active torsions:
REMARK  status: ('A' for Active; 'I' for Inactive)
REMARK    1  A    between atoms: N_7  and  C_8
REMARK                            x       y       z     vdW  Elec       q    Type
REMARK                         _______ _______ _______ _____ _____    ______ ____
ROOT
ATOM      1  C   UNL     1      -1.385   6.819  -3.592  0.00  0.00    +0.033 C 
ATOM      2  C   UNL     1      -0.729   6.000  -4.652  0.00  0.00    -0.004 A 
ATOM      3  C   UNL     1       0.496   5.397  -4.496  0.00  0.00    +0.079 A 
ATOM      4  N   UNL     1       1.325   5.166  -5.540  0.00  0.00    -0.273 N 
ATOM      5  C   UNL     1       0.720   4.935  -6.727  0.00  0.00    +0.265 A 
ATOM      6  O   UNL     1       1.427   4.870  -7.777  0.00  0.00    -0.267 OA
ATOM      7  C   UNL     1      -0.625   5.257  -6.875  0.00  0.00    +0.061 A 
ATOM      8  C   UNL     1      -1.305   5.999  -5.915  0.00  0.00    +0.002 A 
ENDROOT
BRANCH   4   9
ATOM      9  C   UNL     1       2.717   5.513  -5.505  0.00  0.00    +0.067 A 
ATOM     10  C   UNL     1       3.115   6.845  -5.521  0.00  0.00    +0.018 A 
ATOM     11  C   UNL     1       4.070   7.333  -4.636  0.00  0.00    +0.001 A 
ATOM     12  C   UNL     1       4.761   6.455  -3.808  0.00  0.00    +0.000 A 
ATOM     13  C   UNL     1       4.735   5.126  -4.212  0.00  0.00    +0.001 A 
ATOM     14  C   UNL     1       3.603   4.656  -4.867  0.00  0.00    +0.018 A 
ENDBRANCH   4   9
TORSDOF 1
ENDMDL
MODEL 5
REMARK VINA RESULT:      -6.3      5.109      6.255
REMARK  Name = 
REMARK  1 active torsions:
REMARK  status: ('A' for Active; 'I' for Inactive)
REMARK    1  A    between atoms: N_7  and  C_8
REMARK                            x       y       z     vdW  Elec       q    Type
REMARK                         _______ _______ _______ _____ _____    ______ ____
ROOT
ATOM      1  C   UNL     1       5.701   5.642  -9.326  0.00  0.00    +0.033 C 
ATOM      2  C   UNL     1       4.404   5.320  -8.665  0.00  0.00    -0.004 A 
ATOM      3  C   UNL     1       3.884   6.045  -7.620  0.00  0.00    +0.079 A 
ATOM      4  N   UNL     1       3.082   5.486  -6.683  0.00  0.00    -0.273 N 
ATOM      5  C   UNL     1       2.311   4.462  -7.110  0.00  0.00    +0.265 A 
ATOM      6  O   UNL     1       1.655   3.788  -6.258  0.00  0.00    -0.267 OA
ATOM      7  C   UNL     1       2.605   3.853  -8.325  0.00  0.00    +0.061 A 
ATOM      8  C   UNL     1       3.786   4.125  -9.007  0.00  0.00    +0.002 A 
ENDROOT
BRANCH   4   9
ATOM      9  C   UNL     1       3.294   5.683  -5.277  0.00  0.00    +0.067 A 
ATOM     10  C   UNL     1       4.485   5.283  -4.679  0.00  0.00    +0.018 A 
ATOM     11  C   UNL     1       5.182   6.117  -3.812  0.00  0.00    +0.001 A 
ATOM     12  C   UNL     1       4.620   7.323  -3.407  0.00  0.00    +0.000 A 
ATOM     13  C   UNL     1       3.244   7.414  -3.576  0.00  0.00    +0.001 A 
ATOM     14  C   UNL     1       2.664   6.748  -4.649  0.00  0.00    +0.018 A 
ENDBRANCH   4   9
TORSDOF 1
ENDMDL
MODEL 6
REMARK VINA RESULT:      -6.2      8.159      9.052
REMARK  Name = 
REMARK  1 active torsions:
REMARK  status: ('A' for Active; 'I' for Inactive)
REMARK    1  A    between atoms: N_7  and  C_8
REMARK                            x       y       z     vdW  Elec       q    Type
REMARK                         _______ _______ _______ _____ _____    ______ ____
ROOT
ATOM      1  C   UNL     1      -2.749   6.115  -6.373  0.00  0.00    +0.033 C 
ATOM      2  C   UNL     1      -2.120   6.064  -5.023  0.00  0.00    -0.004 A 
ATOM      3  C   UNL     1      -0.875   6.576  -4.746  0.00  0.00    +0.079 A 
ATOM      4  N   UNL     1      -0.086   6.067  -3.771  0.00  0.00    -0.273 N 
ATOM      5  C   UNL     1      -0.736   5.536  -2.711  0.00  0.00    +0.265 A 
ATOM      6  O   UNL     1      -0.073   4.900  -1.837  0.00  0.00    -0.267 OA
ATOM      7  C   UNL     1      -2.093   5.254  -2.821  0.00  0.00    +0.061 A 
ATOM      8  C   UNL     1      -2.749   5.305  -4.046  0.00  0.00    +0.002 A 
ENDROOT
BRANCH   4   9
ATOM      9  C   UNL     1       1.298   5.754  -3.989  0.00  0.00    +0.067 A 
ATOM     10  C   UNL     1       1.676   4.909  -5.028  0.00  0.00    +0.018 A 
ATOM     11  C   UNL     1       2.719   5.232  -5.889  0.00  0.00    +0.001 A 
ATOM     12  C   UNL     1       3.508   6.348  -5.635  0.00  0.00    +0.000 A 
ATOM     13  C   UNL     1       3.452   6.821  -4.329  0.00  0.00    +0.001 A 
ATOM     14  C   UNL     1       2.259   6.687  -3.629  0.00  0.00    +0.018 A 
ENDBRANCH   4   9
TORSDOF 1
ENDMDL
MODEL 7
REMARK VINA RESULT:      -6.1      2.245      3.181
REMARK  Name = 
REMARK  1 active torsions:
REMARK  status: ('A' for Active; 'I' for Inactive)
REMARK    1  A    between atoms: N_7  and  C_8
REMARK                            x       y       z     vdW  Elec       q    Type
REMARK                         _______ _______ _______ _____ _____    ______ ____
ROOT
ATOM      1  C   UNL     1       0.545   4.621 -10.579  0.00  0.00    +0.033 C 
ATOM      2  C   UNL     1       1.806   5.015  -9.886  0.00  0.00    -0.004 A 
ATOM      3  C   UNL     1       2.582   6.082 -10.271  0.00  0.00    +0.079 A 
ATOM      4  N   UNL     1       3.920   6.111 -10.066  0.00  0.00    -0.273 N 
ATOM      5  C   UNL     1       4.359   5.447  -8.973  0.00  0.00    +0.265 A 
ATOM      6  O   UNL     1       5.606   5.296  -8.804  0.00  0.00    -0.267 OA
ATOM      7  C   UNL     1       3.509   4.546  -8.342  0.00  0.00    +0.061 A 
ATOM      8  C   UNL     1       2.307   4.153  -8.920  0.00  0.00    +0.002 A 
ENDROOT
BRANCH   4   9
ATOM      9  C   UNL     1       4.846   6.471 -11.102  0.00  0.00    +0.067 A 
ATOM     10  C   UNL     1       5.639   7.607 -10.977  0.00  0.00    +0.018 A 
ATOM     11  C   UNL     1       7.003   7.578 -11.245  0.00  0.00    +0.001 A 
ATOM     12  C   UNL     1       7.580   6.437 -11.790  0.00  0.00    +0.000 A 
ATOM     13  C   UNL     1       6.686   5.564 -12.400  0.00  0.00    +0.001 A 
ATOM     14  C   UNL     1       5.400   5.467 -11.882  0.00  0.00    +0.018 A 
ENDBRANCH   4   9
TORSDOF 1
ENDMDL
MODEL 8
REMARK VINA RESULT:      -6.1      1.540      4.229
REMARK  Name = 
REMARK  1 active torsions:
REMARK  status: ('A' for Active; 'I' for Inactive)
REMARK    1  A    between atoms: N_7  and  C_8
REMARK                            x       y       z     vdW  Elec       q    Type
REMARK                         _______ _______ _______ _____ _____    ______ ____
ROOT
ATOM      1  C   UNL     1       7.807   7.331 -10.166  0.00  0.00    +0.033 C 
ATOM      2  C   UNL     1       6.973   6.801 -11.283  0.00  0.00    -0.004 A 
ATOM      3  C   UNL     1       5.622   7.026 -11.394  0.00  0.00    +0.079 A 
ATOM      4  N   UNL     1       4.792   6.148 -12.004  0.00  0.00    -0.273 N 
ATOM      5  C   UNL     1       5.338   5.432 -13.013  0.00  0.00    +0.265 A 
ATOM      6  O   UNL     1       4.673   4.482 -13.524  0.00  0.00    -0.267 OA
ATOM      7  C   UNL     1       6.722   5.393 -13.143  0.00  0.00    +0.061 A 
ATOM      8  C   UNL     1       7.560   5.890 -12.150  0.00  0.00    +0.002 A 
ENDROOT
BRANCH   4   9
ATOM      9  C   UNL     1       3.560   5.716 -11.409  0.00  0.00    +0.067 A 
ATOM     10  C   UNL     1       3.523   5.301 -10.082  0.00  0.00    +0.018 A 
ATOM     11  C   UNL     1       2.548   5.755  -9.201  0.00  0.00    +0.001 A 
ATOM     12  C   UNL     1       1.492   6.526  -9.673  0.00  0.00    +0.000 A 
ATOM     13  C   UNL     1       1.273   6.444 -11.043  0.00  0.00    +0.001 A 
ATOM     14  C   UNL     1       2.368   6.250 -11.877  0.00  0.00    +0.018 A 
ENDBRANCH   4   9
TORSDOF 1
ENDMDL
MODEL 9
REMARK VINA RESULT:      -6.1      2.658      4.062
REMARK  Name = 
REMARK  1 active torsions:
REMARK  status: ('A' for Active; 'I' for Inactive)
REMARK    1  A    between atoms: N_7  and  C_8
REMARK                            x       y       z     vdW  Elec       q    Type
REMARK                         _______ _______ _______ _____ _____    ______ ____
ROOT
ATOM      1  C   UNL     1       7.524   6.757 -11.050  0.00  0.00    +0.033 C 
ATOM      2  C   UNL     1       6.059   6.680 -11.317  0.00  0.00    -0.004 A 
ATOM      3  C   UNL     1       5.104   7.181 -10.464  0.00  0.00    +0.079 A 
ATOM      4  N   UNL     1       3.862   6.651 -10.382  0.00  0.00    -0.273 N 
ATOM      5  C   UNL     1       3.382   6.105 -11.521  0.00  0.00    +0.265 A 
ATOM      6  O   UNL     1       2.297   5.451 -11.482  0.00  0.00    -0.267 OA
ATOM      7  C   UNL     1       4.261   5.832 -12.563  0.00  0.00    +0.061 A 
ATOM      8  C   UNL     1       5.639   5.907 -12.391  0.00  0.00    +0.002 A 
ENDROOT
BRANCH   4   9
ATOM      9  C   UNL     1       3.245   6.335  -9.124  0.00  0.00    +0.067 A 
ATOM     10  C   UNL     1       3.880   5.492  -8.218  0.00  0.00    +0.018 A 
ATOM     11  C   UNL     1       3.982   5.814  -6.869  0.00  0.00    +0.001 A 
ATOM     12  C   UNL     1       3.317   6.927  -6.369  0.00  0.00    +0.000 A 
ATOM     13  C   UNL     1       2.280   7.397  -7.166  0.00  0.00    +0.001 A 
ATOM     14  C   UNL     1       2.394   7.265  -8.545  0.00  0.00    +0.018 A 
ENDBRANCH   4   9
TORSDOF 1
ENDMDL
