MODEL 1
REMARK VINA RESULT:      -5.3      0.000      0.000
REMARK  Name = 
REMARK  2 active torsions:
REMARK  status: ('A' for Active; 'I' for Inactive)
REMARK    1  A    between atoms: C_2  and  C_5
REMARK    2  A    between atoms: C_5  and  C_8
REMARK                            x       y       z     vdW  Elec       q    Type
REMARK                         _______ _______ _______ _____ _____    ______ ____
ROOT
ATOM      1  C   UNL     1       7.173   6.766 -10.640  0.00  0.00    +0.434 C 
ATOM      2  F   UNL     1       8.035   7.654 -10.005  0.00  0.00    -0.186 F 
ATOM      3  F   UNL     1       6.268   6.310  -9.686  0.00  0.00    -0.186 F 
ENDROOT
BRANCH   1   5
ATOM      4  F   UNL     1       6.786   7.278 -12.960  0.00  0.00    -0.165 F 
ATOM      5  C   UNL     1       6.372   7.512 -11.659  0.00  0.00    +0.463 C 
ATOM      6  F   UNL     1       5.020   7.295 -11.505  0.00  0.00    -0.165 F 
ATOM      7  F   UNL     1       6.595   8.868 -11.429  0.00  0.00    -0.165 F 
ENDBRANCH   1   5
BRANCH   1   8
ATOM      8  C   UNL     1       7.978   5.628 -11.192  0.00  0.00    +0.463 C 
ATOM      9  F   UNL     1       8.407   4.875 -10.102  0.00  0.00    -0.165 F 
ATOM     10  F   UNL     1       9.138   6.101 -11.799  0.00  0.00    -0.165 F 
ATOM     11  F   UNL     1       7.259   4.790 -12.006  0.00  0.00    -0.165 F 
ENDBRANCH   1   8
TORSDOF 2
ENDMDL
MODEL 2
REMARK VINA RESULT:      -5.3      1.134      1.966
REMARK  Name = 
REMARK  2 active torsions:
REMARK  status: ('A' for Active; 'I' for Inactive)
REMARK    1  A    between atoms: C_2  and  C_5
REMARK    2  A    between atoms: C_5  and  C_8
REMARK                            x       y       z     vdW  Elec       q    Type
REMARK                         _______ _______ _______ _____ _____    ______ ____
ROOT
ATOM      1  C   UNL     1       7.535   6.073 -10.371  0.00  0.00    +0.434 C 
ATOM      2  F   UNL     1       8.031   7.304  -9.955  0.00  0.00    -0.186 F 
ATOM      3  F   UNL     1       8.032   5.109  -9.499  0.00  0.00    -0.186 F 
ENDROOT
BRANCH   1   5
ATOM      4  F   UNL     1       5.400   5.248 -11.113  0.00  0.00    -0.165 F 
ATOM      5  C   UNL     1       6.049   6.066 -10.204  0.00  0.00    +0.463 C 
ATOM      6  F   UNL     1       5.682   5.782  -8.907  0.00  0.00    -0.165 F 
ATOM      7  F   UNL     1       5.610   7.359 -10.477  0.00  0.00    -0.165 F 
ENDBRANCH   1   5
BRANCH   1   8
ATOM      8  C   UNL     1       8.007   5.814 -11.770  0.00  0.00    +0.463 C 
ATOM      9  F   UNL     1       9.383   6.024 -11.774  0.00  0.00    -0.165 F 
ATOM     10  F   UNL     1       7.482   6.761 -12.645  0.00  0.00    -0.165 F 
ATOM     11  F   UNL     1       7.792   4.527 -12.194  0.00  0.00    -0.165 F 
ENDBRANCH   1   8
TORSDOF 2
ENDMDL
MODEL 3
REMARK VINA RESULT:      -5.3      1.139      2.925
REMARK  Name = 
REMARK  2 active torsions:
REMARK  status: ('A' for Active; 'I' for Inactive)
REMARK    1  A    between atoms: C_2  and  C_5
REMARK    2  A    between atoms: C_5  and  C_8
REMARK                            x       y       z     vdW  Elec       q    Type
REMARK                         _______ _______ _______ _____ _____    ______ ____
ROOT
ATOM      1  C   UNL     1       7.510   6.077 -10.353  0.00  0.00    +0.434 C 
ATOM      2  F   UNL     1       8.059   5.110  -9.517  0.00  0.00    -0.186 F 
ATOM      3  F   UNL     1       8.036   7.306  -9.968  0.00  0.00    -0.186 F 
ENDROOT
BRANCH   1   5
ATOM      4  F   UNL     1       7.780   4.533 -12.179  0.00  0.00    -0.165 F 
ATOM      5  C   UNL     1       7.982   5.835 -11.751  0.00  0.00    +0.463 C 
ATOM      6  F   UNL     1       7.454   6.751 -12.634  0.00  0.00    -0.165 F 
ATOM      7  F   UNL     1       9.362   6.022 -11.747  0.00  0.00    -0.165 F 
ENDBRANCH   1   5
BRANCH   1   8
ATOM      8  C   UNL     1       6.020   6.064 -10.186  0.00  0.00    +0.463 C 
ATOM      9  F   UNL     1       5.576   7.356 -10.453  0.00  0.00    -0.165 F 
ATOM     10  F   UNL     1       5.679   5.817  -8.860  0.00  0.00    -0.165 F 
ATOM     11  F   UNL     1       5.377   5.226 -11.062  0.00  0.00    -0.165 F 
ENDBRANCH   1   8
TORSDOF 2
ENDMDL
MODEL 4
REMARK VINA RESULT:      -5.3      0.841      2.182
REMARK  Name = 
REMARK  2 active torsions:
REMARK  status: ('A' for Active; 'I' for Inactive)
REMARK    1  A    between atoms: C_2  and  C_5
REMARK    2  A    between atoms: C_5  and  C_8
REMARK                            x       y       z     vdW  Elec       q    Type
REMARK                         _______ _______ _______ _____ _____    ______ ____
ROOT
ATOM      1  C   UNL     1       7.436   7.040 -10.822  0.00  0.00    +0.434 C 
ATOM      2  F   UNL     1       8.345   6.726 -11.826  0.00  0.00    -0.186 F 
ATOM      3  F   UNL     1       8.105   7.823  -9.886  0.00  0.00    -0.186 F 
ENDROOT
BRANCH   1   5
ATOM      4  F   UNL     1       5.118   7.688 -10.814  0.00  0.00    -0.165 F 
ATOM      5  C   UNL     1       6.356   7.900 -11.397  0.00  0.00    +0.463 C 
ATOM      6  F   UNL     1       6.705   9.234 -11.386  0.00  0.00    -0.165 F 
ATOM      7  F   UNL     1       6.215   7.528 -12.732  0.00  0.00    -0.165 F 
ENDBRANCH   1   5
BRANCH   1   8
ATOM      8  C   UNL     1       6.952   5.766 -10.198  0.00  0.00    +0.463 C 
ATOM      9  F   UNL     1       8.071   4.956 -10.022  0.00  0.00    -0.165 F 
ATOM     10  F   UNL     1       6.124   5.075 -11.078  0.00  0.00    -0.165 F 
ATOM     11  F   UNL     1       6.381   5.942  -8.962  0.00  0.00    -0.165 F 
ENDBRANCH   1   8
TORSDOF 2
ENDMDL
MODEL 5
REMARK VINA RESULT:      -5.2     10.964     12.421
REMARK  Name = 
REMARK  2 active torsions:
REMARK  status: ('A' for Active; 'I' for Inactive)
REMARK    1  A    between atoms: C_2  and  C_5
REMARK    2  A    between atoms: C_5  and  C_8
REMARK                            x       y       z     vdW  Elec       q    Type
REMARK                         _______ _______ _______ _____ _____    ______ ____
ROOT
ATOM      1  C   UNL     1      -2.427   5.835  -4.000  0.00  0.00    +0.434 C 
ATOM      2  F   UNL     1      -3.358   4.865  -4.356  0.00  0.00    -0.186 F 
ATOM      3  F   UNL     1      -1.222   5.184  -3.754  0.00  0.00    -0.186 F 
ENDROOT
BRANCH   1   5
ATOM      4  F   UNL     1      -3.150   7.724  -5.304  0.00  0.00    -0.165 F 
ATOM      5  C   UNL     1      -2.191   6.734  -5.171  0.00  0.00    +0.463 C 
ATOM      6  F   UNL     1      -0.915   7.256  -5.165  0.00  0.00    -0.165 F 
ATOM      7  F   UNL     1      -2.302   5.944  -6.312  0.00  0.00    -0.165 F 
ENDBRANCH   1   5
BRANCH   1   8
ATOM      8  C   UNL     1      -2.913   6.534  -2.765  0.00  0.00    +0.463 C 
ATOM      9  F   UNL     1      -2.584   5.717  -1.687  0.00  0.00    -0.165 F 
ATOM     10  F   UNL     1      -4.302   6.615  -2.765  0.00  0.00    -0.165 F 
ATOM     11  F   UNL     1      -2.313   7.749  -2.550  0.00  0.00    -0.165 F 
ENDBRANCH   1   8
TORSDOF 2
ENDMDL
MODEL 6
REMARK VINA RESULT:      -5.2     11.006     12.399
REMARK  Name = 
REMARK  2 active torsions:
REMARK  status: ('A' for Active; 'I' for Inactive)
REMARK    1  A    between atoms: C_2  and  C_5
REMARK    2  A    between atoms: C_5  and  C_8
REMARK                            x       y       z     vdW  Elec       q    Type
REMARK                         _______ _______ _______ _____ _____    ______ ____
ROOT
ATOM      1  C   UNL     1      -2.433   5.815  -3.937  0.00  0.00    +0.434 C 
ATOM      2  F   UNL     1      -1.244   5.167  -3.619  0.00  0.00    -0.186 F 
ATOM      3  F   UNL     1      -3.371   4.834  -4.244  0.00  0.00    -0.186 F 
ENDROOT
BRANCH   1   5
ATOM      4  F   UNL     1      -2.332   7.745  -2.503  0.00  0.00    -0.165 F 
ATOM      5  C   UNL     1      -2.941   6.520  -2.721  0.00  0.00    +0.463 C 
ATOM      6  F   UNL     1      -4.315   6.628  -2.730  0.00  0.00    -0.165 F 
ATOM      7  F   UNL     1      -2.602   5.729  -1.627  0.00  0.00    -0.165 F 
ENDBRANCH   1   5
BRANCH   1   8
ATOM      8  C   UNL     1      -2.191   6.704  -5.119  0.00  0.00    +0.463 C 
ATOM      9  F   UNL     1      -2.267   5.897  -6.251  0.00  0.00    -0.165 F 
ATOM     10  F   UNL     1      -0.891   7.200  -5.100  0.00  0.00    -0.165 F 
ATOM     11  F   UNL     1      -3.132   7.694  -5.263  0.00  0.00    -0.165 F 
ENDBRANCH   1   8
TORSDOF 2
ENDMDL
MODEL 7
REMARK VINA RESULT:      -5.2     10.948     12.228
REMARK  Name = 
REMARK  2 active torsions:
REMARK  status: ('A' for Active; 'I' for Inactive)
REMARK    1  A    between atoms: C_2  and  C_5
REMARK    2  A    between atoms: C_5  and  C_8
REMARK                            x       y       z     vdW  Elec       q    Type
REMARK                         _______ _______ _______ _____ _____    ______ ____
ROOT
ATOM      1  C   UNL     1      -1.992   6.911  -3.390  0.00  0.00    +0.434 C 
ATOM      2  F   UNL     1      -0.775   6.334  -3.040  0.00  0.00    -0.186 F 
ATOM      3  F   UNL     1      -2.135   8.071  -2.634  0.00  0.00    -0.186 F 
ENDROOT
BRANCH   1   5
ATOM      4  F   UNL     1      -1.224   6.467  -5.627  0.00  0.00    -0.165 F 
ATOM      5  C   UNL     1      -1.930   7.343  -4.820  0.00  0.00    +0.463 C 
ATOM      6  F   UNL     1      -3.183   7.609  -5.328  0.00  0.00    -0.165 F 
ATOM      7  F   UNL     1      -1.217   8.540  -4.847  0.00  0.00    -0.165 F 
ENDBRANCH   1   5
BRANCH   1   8
ATOM      8  C   UNL     1      -3.090   5.939  -3.079  0.00  0.00    +0.463 C 
ATOM      9  F   UNL     1      -2.679   5.214  -1.964  0.00  0.00    -0.165 F 
ATOM     10  F   UNL     1      -3.221   5.007  -4.104  0.00  0.00    -0.165 F 
ATOM     11  F   UNL     1      -4.280   6.539  -2.756  0.00  0.00    -0.165 F 
ENDBRANCH   1   8
TORSDOF 2
ENDMDL
MODEL 8
REMARK VINA RESULT:      -5.1      0.794      3.269
REMARK  Name = 
REMARK  2 active torsions:
REMARK  status: ('A' for Active; 'I' for Inactive)
REMARK    1  A    between atoms: C_2  and  C_5
REMARK    2  A    between atoms: C_5  and  C_8
REMARK                            x       y       z     vdW  Elec       q    Type
REMARK                         _______ _______ _______ _____ _____    ______ ____
ROOT
ATOM      1  C   UNL     1       7.219   6.286 -11.242  0.00  0.00    +0.434 C 
ATOM      2  F   UNL     1       8.461   6.371 -11.862  0.00  0.00    -0.186 F 
ATOM      3  F   UNL     1       6.560   5.185 -11.779  0.00  0.00    -0.186 F 
ENDROOT
BRANCH   1   5
ATOM      4  F   UNL     1       8.131   6.975  -9.124  0.00  0.00    -0.165 F 
ATOM      5  C   UNL     1       7.421   5.990  -9.790  0.00  0.00    +0.463 C 
ATOM      6  F   UNL     1       6.231   5.702  -9.157  0.00  0.00    -0.165 F 
ATOM      7  F   UNL     1       8.208   4.844  -9.720  0.00  0.00    -0.165 F 
ENDBRANCH   1   5
BRANCH   1   8
ATOM      8  C   UNL     1       6.458   7.547 -11.521  0.00  0.00    +0.463 C 
ATOM      9  F   UNL     1       7.142   8.578 -10.882  0.00  0.00    -0.165 F 
ATOM     10  F   UNL     1       5.203   7.503 -10.921  0.00  0.00    -0.165 F 
ATOM     11  F   UNL     1       6.395   7.867 -12.854  0.00  0.00    -0.165 F 
ENDBRANCH   1   8
TORSDOF 2
ENDMDL
MODEL 9
REMARK VINA RESULT:      -5.1     10.402     11.755
REMARK  Name = 
REMARK  2 active torsions:
REMARK  status: ('A' for Active; 'I' for Inactive)
REMARK    1  A    between atoms: C_2  and  C_5
REMARK    2  A    between atoms: C_5  and  C_8
REMARK                            x       y       z     vdW  Elec       q    Type
REMARK                         _______ _______ _______ _____ _____    ______ ____
ROOT
ATOM      1  C   UNL     1      -2.154   7.154  -4.920  0.00  0.00    +0.434 C 
ATOM      2  F   UNL     1      -3.092   8.023  -5.469  0.00  0.00    -0.186 F 
ATOM      3  F   UNL     1      -0.895   7.697  -5.158  0.00  0.00    -0.186 F 
ENDROOT
BRANCH   1   5
ATOM      4  F   UNL     1      -3.624   6.837  -3.041  0.00  0.00    -0.165 F 
ATOM      5  C   UNL     1      -2.329   7.127  -3.435  0.00  0.00    +0.463 C 
ATOM      6  F   UNL     1      -1.412   6.296  -2.828  0.00  0.00    -0.165 F 
ATOM      7  F   UNL     1      -2.074   8.418  -2.978  0.00  0.00    -0.165 F 
ENDBRANCH   1   5
BRANCH   1   8
ATOM      8  C   UNL     1      -2.290   5.819  -5.589  0.00  0.00    +0.463 C 
ATOM      9  F   UNL     1      -1.012   5.271  -5.652  0.00  0.00    -0.165 F 
ATOM     10  F   UNL     1      -2.697   5.974  -6.910  0.00  0.00    -0.165 F 
ATOM     11  F   UNL     1      -3.077   4.935  -4.894  0.00  0.00    -0.165 F 
ENDBRANCH   1   8
TORSDOF 2
ENDMDL
