MODEL 1
REMARK VINA RESULT:      -4.5      0.000      0.000
REMARK  Name = 
REMARK  4 active torsions:
REMARK  status: ('A' for Active; 'I' for Inactive)
REMARK    1  A    between atoms: CA_2  and  CB_3
REMARK    2  A    between atoms: CA_2  and  C_8
REMARK    3  A    between atoms: CB_3  and  CG_4
REMARK    4  A    between atoms: CG_4  and  CD_5
REMARK                            x       y       z     vdW  Elec       q    Type
REMARK                         _______ _______ _______ _____ _____    ______ ____
ROOT
ATOM      1  N   GLU A   1       4.342   6.924 -10.488  0.00  0.00    -0.121 NA
ATOM      2  CA  GLU A   1       5.039   5.484 -10.625  0.00  0.00    +0.195 C 
ENDROOT
BRANCH   2   3
ATOM      3  C   GLU A   1       4.616   5.090  -9.084  0.00  0.00    +0.382 C 
ATOM      4  OXT GLU A   1       5.738   4.981  -8.250  0.00  0.00    -0.244 OA
ATOM      5  O   GLU A   1       3.842   4.089  -9.132  0.00  0.00    -0.244 OA
ENDBRANCH   2   3
BRANCH   2   6
ATOM      6  CB  GLU A   1       6.533   6.036 -10.110  0.00  0.00    +0.042 C 
BRANCH   6   7
ATOM      7  CG  GLU A   1       7.294   6.440 -11.296  0.00  0.00    +0.116 C 
BRANCH   7   8
ATOM      8  CD  GLU A   1       8.208   5.431 -11.873  0.00  0.00    +0.365 C 
ATOM      9  OE2 GLU A   1       7.667   4.618 -12.878  0.00  0.00    -0.246 OA
ATOM     10  OE1 GLU A   1       9.355   5.896 -12.159  0.00  0.00    -0.246 OA
ENDBRANCH   7   8
ENDBRANCH   6   7
ENDBRANCH   2   6
TORSDOF 4
ENDMDL
MODEL 2
REMARK VINA RESULT:      -4.4      1.005      4.461
REMARK  Name = 
REMARK  4 active torsions:
REMARK  status: ('A' for Active; 'I' for Inactive)
REMARK    1  A    between atoms: CA_2  and  CB_3
REMARK    2  A    between atoms: CA_2  and  C_8
REMARK    3  A    between atoms: CB_3  and  CG_4
REMARK    4  A    between atoms: CG_4  and  CD_5
REMARK                            x       y       z     vdW  Elec       q    Type
REMARK                         _______ _______ _______ _____ _____    ______ ____
ROOT
ATOM      1  N   GLU A   1       6.043   6.101 -12.032  0.00  0.00    -0.121 NA
ATOM      2  CA  GLU A   1       7.326   6.675 -11.255  0.00  0.00    +0.195 C 
ENDROOT
BRANCH   2   3
ATOM      3  C   GLU A   1       8.256   5.428 -11.790  0.00  0.00    +0.382 C 
ATOM      4  OXT GLU A   1       9.466   5.880 -12.336  0.00  0.00    -0.244 OA
ATOM      5  O   GLU A   1       7.539   4.689 -12.527  0.00  0.00    -0.244 OA
ENDBRANCH   2   3
BRANCH   2   6
ATOM      6  CB  GLU A   1       6.975   5.852  -9.841  0.00  0.00    +0.042 C 
BRANCH   6   7
ATOM      7  CG  GLU A   1       5.516   5.779  -9.715  0.00  0.00    +0.116 C 
BRANCH   7   8
ATOM      8  CD  GLU A   1       4.985   4.932  -8.626  0.00  0.00    +0.365 C 
ATOM      9  OE2 GLU A   1       4.777   5.572  -7.396  0.00  0.00    -0.246 OA
ATOM     10  OE1 GLU A   1       4.014   4.198  -8.987  0.00  0.00    -0.246 OA
ENDBRANCH   7   8
ENDBRANCH   6   7
ENDBRANCH   2   6
TORSDOF 4
ENDMDL
MODEL 3
REMARK VINA RESULT:      -4.2      1.444      4.373
REMARK  Name = 
REMARK  4 active torsions:
REMARK  status: ('A' for Active; 'I' for Inactive)
REMARK    1  A    between atoms: CA_2  and  CB_3
REMARK    2  A    between atoms: CA_2  and  C_8
REMARK    3  A    between atoms: CB_3  and  CG_4
REMARK    4  A    between atoms: CG_4  and  CD_5
REMARK                            x       y       z     vdW  Elec       q    Type
REMARK                         _______ _______ _______ _____ _____    ______ ____
ROOT
ATOM      1  N   GLU A   1       7.399   7.107 -11.059  0.00  0.00    -0.121 NA
ATOM      2  CA  GLU A   1       6.656   5.699 -10.855  0.00  0.00    +0.195 C 
ENDROOT
BRANCH   2   3
ATOM      3  C   GLU A   1       6.806   5.343 -12.455  0.00  0.00    +0.382 C 
ATOM      4  OXT GLU A   1       5.597   4.894 -13.002  0.00  0.00    -0.244 OA
ATOM      5  O   GLU A   1       7.813   4.588 -12.598  0.00  0.00    -0.244 OA
ENDBRANCH   2   3
BRANCH   2   6
ATOM      6  CB  GLU A   1       5.131   6.342 -11.107  0.00  0.00    +0.042 C 
BRANCH   6   7
ATOM      7  CG  GLU A   1       4.391   6.245  -9.845  0.00  0.00    +0.116 C 
BRANCH   7   8
ATOM      8  CD  GLU A   1       4.695   5.083  -8.983  0.00  0.00    +0.365 C 
ATOM      9  OE2 GLU A   1       4.993   5.374  -7.645  0.00  0.00    -0.246 OA
ATOM     10  OE1 GLU A   1       3.874   4.124  -9.124  0.00  0.00    -0.246 OA
ENDBRANCH   7   8
ENDBRANCH   6   7
ENDBRANCH   2   6
TORSDOF 4
ENDMDL
MODEL 4
REMARK VINA RESULT:      -4.2      8.429     10.558
REMARK  Name = 
REMARK  4 active torsions:
REMARK  status: ('A' for Active; 'I' for Inactive)
REMARK    1  A    between atoms: CA_2  and  CB_3
REMARK    2  A    between atoms: CA_2  and  C_8
REMARK    3  A    between atoms: CB_3  and  CG_4
REMARK    4  A    between atoms: CG_4  and  CD_5
REMARK                            x       y       z     vdW  Elec       q    Type
REMARK                         _______ _______ _______ _____ _____    ______ ____
ROOT
ATOM      1  N   GLU A   1       0.175   6.850  -5.783  0.00  0.00    -0.121 NA
ATOM      2  CA  GLU A   1      -0.586   5.593  -5.134  0.00  0.00    +0.195 C 
ENDROOT
BRANCH   2   3
ATOM      3  C   GLU A   1      -1.357   5.277  -6.553  0.00  0.00    +0.382 C 
ATOM      4  OXT GLU A   1      -0.540   5.549  -7.660  0.00  0.00    -0.244 OA
ATOM      5  O   GLU A   1      -2.487   5.849  -6.524  0.00  0.00    -0.244 OA
ENDBRANCH   2   3
BRANCH   2   6
ATOM      6  CB  GLU A   1      -1.878   6.512  -4.598  0.00  0.00    +0.042 C 
BRANCH   6   7
ATOM      7  CG  GLU A   1      -1.712   6.719  -3.156  0.00  0.00    +0.116 C 
BRANCH   7   8
ATOM      8  CD  GLU A   1      -2.092   5.594  -2.275  0.00  0.00    +0.365 C 
ATOM      9  OE2 GLU A   1      -2.959   4.645  -2.833  0.00  0.00    -0.246 OA
ATOM     10  OE1 GLU A   1      -1.106   5.082  -1.660  0.00  0.00    -0.246 OA
ENDBRANCH   7   8
ENDBRANCH   6   7
ENDBRANCH   2   6
TORSDOF 4
ENDMDL
MODEL 5
REMARK VINA RESULT:      -4.1      8.297      9.875
REMARK  Name = 
REMARK  4 active torsions:
REMARK  status: ('A' for Active; 'I' for Inactive)
REMARK    1  A    between atoms: CA_2  and  CB_3
REMARK    2  A    between atoms: CA_2  and  C_8
REMARK    3  A    between atoms: CB_3  and  CG_4
REMARK    4  A    between atoms: CG_4  and  CD_5
REMARK                            x       y       z     vdW  Elec       q    Type
REMARK                         _______ _______ _______ _____ _____    ______ ____
ROOT
ATOM      1  N   GLU A   1      -0.628   6.809  -3.414  0.00  0.00    -0.121 NA
ATOM      2  CA  GLU A   1      -2.234   6.798  -3.413  0.00  0.00    +0.195 C 
ENDROOT
BRANCH   2   3
ATOM      3  C   GLU A   1      -2.263   5.477  -2.432  0.00  0.00    +0.382 C 
ATOM      4  OXT GLU A   1      -0.972   5.072  -2.069  0.00  0.00    -0.244 OA
ATOM      5  O   GLU A   1      -3.005   4.603  -2.971  0.00  0.00    -0.244 OA
ENDBRANCH   2   3
BRANCH   2   6
ATOM      6  CB  GLU A   1      -2.338   5.832  -4.775  0.00  0.00    +0.042 C 
BRANCH   6   7
ATOM      7  CG  GLU A   1      -1.242   6.205  -5.674  0.00  0.00    +0.116 C 
BRANCH   7   8
ATOM      8  CD  GLU A   1      -0.709   5.140  -6.550  0.00  0.00    +0.365 C 
ATOM      9  OE2 GLU A   1      -0.585   5.466  -7.907  0.00  0.00    -0.246 OA
ATOM     10  OE1 GLU A   1       0.316   4.561  -6.071  0.00  0.00    -0.246 OA
ENDBRANCH   7   8
ENDBRANCH   6   7
ENDBRANCH   2   6
TORSDOF 4
ENDMDL
MODEL 6
REMARK VINA RESULT:      -4.0      7.494      9.436
REMARK  Name = 
REMARK  4 active torsions:
REMARK  status: ('A' for Active; 'I' for Inactive)
REMARK    1  A    between atoms: CA_2  and  CB_3
REMARK    2  A    between atoms: CA_2  and  C_8
REMARK    3  A    between atoms: CB_3  and  CG_4
REMARK    4  A    between atoms: CG_4  and  CD_5
REMARK                            x       y       z     vdW  Elec       q    Type
REMARK                         _______ _______ _______ _____ _____    ______ ____
ROOT
ATOM      1  N   GLU A   1      -0.801   5.093  -2.153  0.00  0.00    -0.121 NA
ATOM      2  CA  GLU A   1      -1.051   6.329  -3.147  0.00  0.00    +0.195 C 
ENDROOT
BRANCH   2   3
ATOM      3  C   GLU A   1      -2.570   5.796  -3.490  0.00  0.00    +0.382 C 
ATOM      4  OXT GLU A   1      -2.939   4.719  -2.672  0.00  0.00    -0.244 OA
ATOM      5  O   GLU A   1      -2.652   5.618  -4.741  0.00  0.00    -0.244 OA
ENDBRANCH   2   3
BRANCH   2   6
ATOM      6  CB  GLU A   1      -0.433   5.526  -4.479  0.00  0.00    +0.042 C 
BRANCH   6   7
ATOM      7  CG  GLU A   1       1.030   5.543  -4.373  0.00  0.00    +0.116 C 
BRANCH   7   8
ATOM      8  CD  GLU A   1       1.779   4.813  -5.418  0.00  0.00    +0.365 C 
ATOM      9  OE2 GLU A   1       3.112   4.503  -5.113  0.00  0.00    -0.246 OA
ATOM     10  OE1 GLU A   1       1.132   3.840  -5.915  0.00  0.00    -0.246 OA
ENDBRANCH   7   8
ENDBRANCH   6   7
ENDBRANCH   2   6
TORSDOF 4
ENDMDL
MODEL 7
REMARK VINA RESULT:      -3.9     10.156     12.217
REMARK  Name = 
REMARK  4 active torsions:
REMARK  status: ('A' for Active; 'I' for Inactive)
REMARK    1  A    between atoms: CA_2  and  CB_3
REMARK    2  A    between atoms: CA_2  and  C_8
REMARK    3  A    between atoms: CB_3  and  CG_4
REMARK    4  A    between atoms: CG_4  and  CD_5
REMARK                            x       y       z     vdW  Elec       q    Type
REMARK                         _______ _______ _______ _____ _____    ______ ____
ROOT
ATOM      1  N   GLU A   1      -2.525   4.998  -2.213  0.00  0.00    -0.121 NA
ATOM      2  CA  GLU A   1      -2.344   5.834  -3.571  0.00  0.00    +0.195 C 
ENDROOT
BRANCH   2   3
ATOM      3  C   GLU A   1      -0.741   5.464  -3.631  0.00  0.00    +0.382 C 
ATOM      4  OXT GLU A   1      -0.315   4.813  -2.465  0.00  0.00    -0.244 OA
ATOM      5  O   GLU A   1      -0.108   6.509  -3.965  0.00  0.00    -0.244 OA
ENDBRANCH   2   3
BRANCH   2   6
ATOM      6  CB  GLU A   1      -2.018   7.269  -2.774  0.00  0.00    +0.042 C 
BRANCH   6   7
ATOM      7  CG  GLU A   1      -2.367   7.087  -1.362  0.00  0.00    +0.116 C 
BRANCH   7   8
ATOM      8  CD  GLU A   1      -1.365   7.528  -0.368  0.00  0.00    +0.365 C 
ATOM      9  OE2 GLU A   1      -1.627   8.750   0.266  0.00  0.00    -0.246 OA
ATOM     10  OE1 GLU A   1      -1.011   6.606   0.432  0.00  0.00    -0.246 OA
ENDBRANCH   7   8
ENDBRANCH   6   7
ENDBRANCH   2   6
TORSDOF 4
ENDMDL
MODEL 8
REMARK VINA RESULT:      -3.9      2.590      3.047
REMARK  Name = 
REMARK  4 active torsions:
REMARK  status: ('A' for Active; 'I' for Inactive)
REMARK    1  A    between atoms: CA_2  and  CB_3
REMARK    2  A    between atoms: CA_2  and  C_8
REMARK    3  A    between atoms: CB_3  and  CG_4
REMARK    4  A    between atoms: CG_4  and  CD_5
REMARK                            x       y       z     vdW  Elec       q    Type
REMARK                         _______ _______ _______ _____ _____    ______ ____
ROOT
ATOM      1  N   GLU A   1       6.638   5.646  -9.909  0.00  0.00    -0.121 NA
ATOM      2  CA  GLU A   1       7.446   7.000 -10.211  0.00  0.00    +0.195 C 
ENDROOT
BRANCH   2   3
ATOM      3  C   GLU A   1       6.231   7.557 -11.171  0.00  0.00    +0.382 C 
ATOM      4  OXT GLU A   1       6.495   8.849 -11.646  0.00  0.00    -0.244 OA
ATOM      5  O   GLU A   1       5.135   7.387 -10.558  0.00  0.00    -0.244 OA
ENDBRANCH   2   3
BRANCH   2   6
ATOM      6  CB  GLU A   1       8.244   6.360 -11.535  0.00  0.00    +0.042 C 
BRANCH   6   7
ATOM      7  CG  GLU A   1       7.454   5.229 -12.030  0.00  0.00    +0.116 C 
BRANCH   7   8
ATOM      8  CD  GLU A   1       7.088   5.251 -13.463  0.00  0.00    +0.365 C 
ATOM      9  OE2 GLU A   1       5.757   4.929 -13.761  0.00  0.00    -0.246 OA
ATOM     10  OE1 GLU A   1       7.511   6.281 -14.074  0.00  0.00    -0.246 OA
ENDBRANCH   7   8
ENDBRANCH   6   7
ENDBRANCH   2   6
TORSDOF 4
ENDMDL
MODEL 9
REMARK VINA RESULT:      -3.8      3.078      4.449
REMARK  Name = 
REMARK  4 active torsions:
REMARK  status: ('A' for Active; 'I' for Inactive)
REMARK    1  A    between atoms: CA_2  and  CB_3
REMARK    2  A    between atoms: CA_2  and  C_8
REMARK    3  A    between atoms: CB_3  and  CG_4
REMARK    4  A    between atoms: CG_4  and  CD_5
REMARK                            x       y       z     vdW  Elec       q    Type
REMARK                         _______ _______ _______ _____ _____    ______ ____
ROOT
ATOM      1  N   GLU A   1       6.420   5.002 -13.574  0.00  0.00    -0.121 NA
ATOM      2  CA  GLU A   1       5.399   6.221 -13.358  0.00  0.00    +0.195 C 
ENDROOT
BRANCH   2   3
ATOM      3  C   GLU A   1       5.518   6.653 -14.942  0.00  0.00    +0.382 C 
ATOM      4  OXT GLU A   1       6.195   7.871 -15.097  0.00  0.00    -0.244 OA
ATOM      5  O   GLU A   1       4.367   6.569 -15.461  0.00  0.00    -0.244 OA
ENDBRANCH   2   3
BRANCH   2   6
ATOM      6  CB  GLU A   1       6.605   7.302 -12.937  0.00  0.00    +0.042 C 
BRANCH   6   7
ATOM      7  CG  GLU A   1       6.408   7.668 -11.531  0.00  0.00    +0.116 C 
BRANCH   7   8
ATOM      8  CD  GLU A   1       7.109   6.842 -10.525  0.00  0.00    +0.365 C 
ATOM      9  OE2 GLU A   1       6.317   5.913  -9.836  0.00  0.00    -0.246 OA
ATOM     10  OE1 GLU A   1       8.207   6.362 -10.945  0.00  0.00    -0.246 OA
ENDBRANCH   7   8
ENDBRANCH   6   7
ENDBRANCH   2   6
TORSDOF 4
ENDMDL
