MODEL 1
REMARK VINA RESULT:      -2.4      0.000      0.000
REMARK  Name = 
REMARK  0 active torsions:
REMARK  status: ('A' for Active; 'I' for Inactive)
REMARK                            x       y       z     vdW  Elec       q    Type
REMARK                         _______ _______ _______ _____ _____    ______ ____
ROOT
ATOM      1  C   UNL     1       7.657   5.727 -10.261  0.00  0.00    +0.106 C 
ATOM      2  S   UNL     1       7.905   5.914 -12.028  0.00  0.00    +0.044 S 
ATOM      3  O   UNL     1       7.816   4.562 -12.718  0.00  0.00    -0.256 OA
ATOM      4  C   UNL     1       6.620   6.961 -12.734  0.00  0.00    +0.106 C 
ENDROOT
TORSDOF 0
ENDMDL
MODEL 2
REMARK VINA RESULT:      -2.3     13.250     13.467
REMARK  Name = 
REMARK  0 active torsions:
REMARK  status: ('A' for Active; 'I' for Inactive)
REMARK                            x       y       z     vdW  Elec       q    Type
REMARK                         _______ _______ _______ _____ _____    ______ ____
ROOT
ATOM      1  C   UNL     1      -2.278   5.757  -4.900  0.00  0.00    +0.106 C 
ATOM      2  S   UNL     1      -2.993   5.928  -3.264  0.00  0.00    +0.044 S 
ATOM      3  O   UNL     1      -2.729   4.677  -2.441  0.00  0.00    -0.256 OA
ATOM      4  C   UNL     1      -2.238   7.312  -2.391  0.00  0.00    +0.106 C 
ENDROOT
TORSDOF 0
ENDMDL
MODEL 3
REMARK VINA RESULT:      -2.3      0.605      2.170
REMARK  Name = 
REMARK  0 active torsions:
REMARK  status: ('A' for Active; 'I' for Inactive)
REMARK                            x       y       z     vdW  Elec       q    Type
REMARK                         _______ _______ _______ _____ _____    ______ ____
ROOT
ATOM      1  C   UNL     1       6.495   7.080 -12.778  0.00  0.00    +0.106 C 
ATOM      2  S   UNL     1       6.828   5.482 -12.035  0.00  0.00    +0.044 S 
ATOM      3  O   UNL     1       7.777   4.680 -12.911  0.00  0.00    -0.256 OA
ATOM      4  C   UNL     1       7.625   5.689 -10.433  0.00  0.00    +0.106 C 
ENDROOT
TORSDOF 0
ENDMDL
MODEL 4
REMARK VINA RESULT:      -2.3     12.890     13.088
REMARK  Name = 
REMARK  0 active torsions:
REMARK  status: ('A' for Active; 'I' for Inactive)
REMARK                            x       y       z     vdW  Elec       q    Type
REMARK                         _______ _______ _______ _____ _____    ______ ____
ROOT
ATOM      1  C   UNL     1      -0.051   5.344  -2.325  0.00  0.00    +0.106 C 
ATOM      2  S   UNL     1      -1.648   5.622  -3.092  0.00  0.00    +0.044 S 
ATOM      3  O   UNL     1      -2.695   4.708  -2.475  0.00  0.00    -0.256 OA
ATOM      4  C   UNL     1      -2.189   7.318  -2.818  0.00  0.00    +0.106 C 
ENDROOT
TORSDOF 0
ENDMDL
MODEL 5
REMARK VINA RESULT:      -2.2     12.579     12.915
REMARK  Name = 
REMARK  0 active torsions:
REMARK  status: ('A' for Active; 'I' for Inactive)
REMARK                            x       y       z     vdW  Elec       q    Type
REMARK                         _______ _______ _______ _____ _____    ______ ____
ROOT
ATOM      1  C   UNL     1      -1.377   5.963  -4.624  0.00  0.00    +0.106 C 
ATOM      2  S   UNL     1      -1.721   5.772  -2.874  0.00  0.00    +0.044 S 
ATOM      3  O   UNL     1      -2.720   4.647  -2.653  0.00  0.00    -0.256 OA
ATOM      4  C   UNL     1      -0.217   5.335  -1.984  0.00  0.00    +0.106 C 
ENDROOT
TORSDOF 0
ENDMDL
MODEL 6
REMARK VINA RESULT:      -2.1      2.226      2.585
REMARK  Name = 
REMARK  0 active torsions:
REMARK  status: ('A' for Active; 'I' for Inactive)
REMARK                            x       y       z     vdW  Elec       q    Type
REMARK                         _______ _______ _______ _____ _____    ______ ____
ROOT
ATOM      1  C   UNL     1       6.473   7.970 -11.400  0.00  0.00    +0.106 C 
ATOM      2  S   UNL     1       7.553   6.760 -10.635  0.00  0.00    +0.044 S 
ATOM      3  O   UNL     1       6.737   5.757  -9.835  0.00  0.00    -0.256 OA
ATOM      4  C   UNL     1       8.450   5.836 -11.895  0.00  0.00    +0.106 C 
ENDROOT
TORSDOF 0
ENDMDL
MODEL 7
REMARK VINA RESULT:      -2.0      6.848      6.848
REMARK  Name = 
REMARK  0 active torsions:
REMARK  status: ('A' for Active; 'I' for Inactive)
REMARK                            x       y       z     vdW  Elec       q    Type
REMARK                         _______ _______ _______ _____ _____    ______ ____
ROOT
ATOM      1  C   UNL     1       3.407   6.016  -7.620  0.00  0.00    +0.106 C 
ATOM      2  S   UNL     1       1.897   6.926  -7.948  0.00  0.00    +0.044 S 
ATOM      3  O   UNL     1       2.150   8.422  -7.840  0.00  0.00    -0.256 OA
ATOM      4  C   UNL     1       1.319   6.601  -9.622  0.00  0.00    +0.106 C 
ENDROOT
TORSDOF 0
ENDMDL
MODEL 8
REMARK VINA RESULT:      -2.0      6.817      7.111
REMARK  Name = 
REMARK  0 active torsions:
REMARK  status: ('A' for Active; 'I' for Inactive)
REMARK                            x       y       z     vdW  Elec       q    Type
REMARK                         _______ _______ _______ _____ _____    ______ ____
ROOT
ATOM      1  C   UNL     1       1.158   6.475  -9.501  0.00  0.00    +0.106 C 
ATOM      2  S   UNL     1       2.519   7.100  -8.513  0.00  0.00    +0.044 S 
ATOM      3  O   UNL     1       2.124   8.405  -7.840  0.00  0.00    -0.256 OA
ATOM      4  C   UNL     1       2.936   5.930  -7.209  0.00  0.00    +0.106 C 
ENDROOT
TORSDOF 0
ENDMDL
MODEL 9
REMARK VINA RESULT:      -1.9      2.280      2.446
REMARK  Name = 
REMARK  0 active torsions:
REMARK  status: ('A' for Active; 'I' for Inactive)
REMARK                            x       y       z     vdW  Elec       q    Type
REMARK                         _______ _______ _______ _____ _____    ______ ____
ROOT
ATOM      1  C   UNL     1       5.825   5.717 -11.421  0.00  0.00    +0.106 C 
ATOM      2  S   UNL     1       7.439   6.172 -10.787  0.00  0.00    +0.044 S 
ATOM      3  O   UNL     1       7.742   5.398  -9.513  0.00  0.00    -0.256 OA
ATOM      4  C   UNL     1       8.722   5.758 -11.982  0.00  0.00    +0.106 C 
ENDROOT
TORSDOF 0
ENDMDL
