MODEL 1
REMARK VINA RESULT:      -6.6      0.000      0.000
REMARK  Name = 
REMARK  6 active torsions:
REMARK  status: ('A' for Active; 'I' for Inactive)
REMARK    1  A    between atoms: C_2  and  C_3
REMARK    2  A    between atoms: C_2  and  C_5
REMARK    3  A    between atoms: C_5  and  C_7
REMARK    4  A    between atoms: C_10  and  O_11
REMARK    5  A    between atoms: O_11  and  C_12
REMARK    6  A    between atoms: C_12  and  C_13
REMARK                            x       y       z     vdW  Elec       q    Type
REMARK                         _______ _______ _______ _____ _____    ______ ____
ROOT
ATOM      1  C   UNL     1       3.646   5.534  -9.625  0.00  0.00    +0.050 A 
ATOM      2  C   UNL     1       4.889   5.624  -9.021  0.00  0.00    +0.074 A 
ATOM      3 CL   UNL     1       5.093   5.421  -7.286  0.00  0.00    -0.081 Cl
ATOM      4  C   UNL     1       5.961   6.109  -9.759  0.00  0.00    +0.102 A 
ATOM      5 CL   UNL     1       7.587   5.759  -9.244  0.00  0.00    -0.078 Cl
ATOM      6  C   UNL     1       5.661   6.762 -10.945  0.00  0.00    +0.151 A 
ATOM      7  C   UNL     1       4.455   6.557 -11.575  0.00  0.00    +0.038 A 
ATOM      8  C   UNL     1       3.531   5.696 -10.997  0.00  0.00    +0.007 A 
ENDROOT
BRANCH   1   9
ATOM      9  C   UNL     1       2.557   4.935  -8.843  0.00  0.00    +0.192 C 
ATOM     10  O   UNL     1       2.467   3.672  -8.926  0.00  0.00    -0.287 OA
BRANCH   9  12
ATOM     11  C   UNL     1       1.513   6.999  -8.184  0.00  0.00    -0.001 C 
ATOM     12  C   UNL     1       1.363   5.739  -8.558  0.00  0.00    +0.017 C 
BRANCH  12  13
ATOM     13  C   UNL     1       0.121   5.426  -9.331  0.00  0.00    +0.030 C 
ATOM     14  C   UNL     1       0.057   6.469 -10.442  0.00  0.00    +0.005 C 
ENDBRANCH  12  13
ENDBRANCH   9  12
ENDBRANCH   1   9
BRANCH   6  15
ATOM     15  O   UNL     1       6.731   7.298 -11.669  0.00  0.00    -0.463 OA
BRANCH  15  16
ATOM     16  C   UNL     1       6.979   6.715 -12.943  0.00  0.00    +0.319 C 
BRANCH  16  17
ATOM     17  C   UNL     1       8.037   5.664 -12.871  0.00  0.00    +0.408 C 
ATOM     18  O   UNL     1       9.247   6.051 -12.286  0.00  0.00    -0.241 OA
ATOM     19  O   UNL     1       7.633   4.463 -12.809  0.00  0.00    -0.241 OA
ENDBRANCH  16  17
ENDBRANCH  15  16
ENDBRANCH   6  15
TORSDOF 6
ENDMDL
MODEL 2
REMARK VINA RESULT:      -6.5      4.747      7.033
REMARK  Name = 
REMARK  6 active torsions:
REMARK  status: ('A' for Active; 'I' for Inactive)
REMARK    1  A    between atoms: C_2  and  C_3
REMARK    2  A    between atoms: C_2  and  C_5
REMARK    3  A    between atoms: C_5  and  C_7
REMARK    4  A    between atoms: C_10  and  O_11
REMARK    5  A    between atoms: O_11  and  C_12
REMARK    6  A    between atoms: C_12  and  C_13
REMARK                            x       y       z     vdW  Elec       q    Type
REMARK                         _______ _______ _______ _____ _____    ______ ____
ROOT
ATOM      1  C   UNL     1      -1.265   5.536  -5.141  0.00  0.00    +0.050 A 
ATOM      2  C   UNL     1       0.065   5.197  -4.960  0.00  0.00    +0.074 A 
ATOM      3 CL   UNL     1       0.849   5.326  -3.390  0.00  0.00    -0.081 Cl
ATOM      4  C   UNL     1       0.859   4.971  -6.076  0.00  0.00    +0.102 A 
ATOM      5 CL   UNL     1       2.333   4.059  -5.913  0.00  0.00    -0.078 Cl
ATOM      6  C   UNL     1       0.360   5.399  -7.297  0.00  0.00    +0.151 A 
ATOM      7  C   UNL     1      -0.988   5.617  -7.468  0.00  0.00    +0.038 A 
ATOM      8  C   UNL     1      -1.845   5.416  -6.394  0.00  0.00    +0.007 A 
ENDROOT
BRANCH   1   9
ATOM      9  C   UNL     1      -2.095   5.681  -3.937  0.00  0.00    +0.192 C 
ATOM     10  O   UNL     1      -3.143   4.967  -3.917  0.00  0.00    -0.287 OA
BRANCH   9  12
ATOM     11  C   UNL     1      -2.043   8.086  -3.873  0.00  0.00    -0.001 C 
ATOM     12  C   UNL     1      -2.055   6.949  -3.198  0.00  0.00    +0.017 C 
BRANCH  12  13
ATOM     13  C   UNL     1      -2.723   6.986  -1.859  0.00  0.00    +0.030 C 
ATOM     14  C   UNL     1      -1.793   6.227  -0.917  0.00  0.00    +0.005 C 
ENDBRANCH  12  13
ENDBRANCH   9  12
ENDBRANCH   1   9
BRANCH   6  15
ATOM     15  O   UNL     1       1.174   5.222  -8.420  0.00  0.00    -0.463 OA
BRANCH  15  16
ATOM     16  C   UNL     1       1.471   6.394  -9.169  0.00  0.00    +0.319 C 
BRANCH  16  17
ATOM     17  C   UNL     1       2.552   7.200  -8.526  0.00  0.00    +0.408 C 
ATOM     18  O   UNL     1       2.141   8.375  -7.887  0.00  0.00    -0.241 OA
ATOM     19  O   UNL     1       3.570   6.559  -8.128  0.00  0.00    -0.241 OA
ENDBRANCH  16  17
ENDBRANCH  15  16
ENDBRANCH   6  15
TORSDOF 6
ENDMDL
MODEL 3
REMARK VINA RESULT:      -6.4      5.317      9.208
REMARK  Name = 
REMARK  6 active torsions:
REMARK  status: ('A' for Active; 'I' for Inactive)
REMARK    1  A    between atoms: C_2  and  C_3
REMARK    2  A    between atoms: C_2  and  C_5
REMARK    3  A    between atoms: C_5  and  C_7
REMARK    4  A    between atoms: C_10  and  O_11
REMARK    5  A    between atoms: O_11  and  C_12
REMARK    6  A    between atoms: C_12  and  C_13
REMARK                            x       y       z     vdW  Elec       q    Type
REMARK                         _______ _______ _______ _____ _____    ______ ____
ROOT
ATOM      1  C   UNL     1       1.071   5.341  -5.767  0.00  0.00    +0.050 A 
ATOM      2  C   UNL     1      -0.095   5.558  -6.483  0.00  0.00    +0.074 A 
ATOM      3 CL   UNL     1      -0.144   5.420  -8.236  0.00  0.00    -0.081 Cl
ATOM      4  C   UNL     1      -1.187   6.120  -5.835  0.00  0.00    +0.102 A 
ATOM      5 CL   UNL     1      -2.779   5.931  -6.513  0.00  0.00    -0.078 Cl
ATOM      6  C   UNL     1      -0.949   6.711  -4.603  0.00  0.00    +0.151 A 
ATOM      7  C   UNL     1       0.168   6.382  -3.869  0.00  0.00    +0.038 A 
ATOM      8  C   UNL     1       1.065   5.455  -4.386  0.00  0.00    +0.007 A 
ENDROOT
BRANCH   1   9
ATOM      9  C   UNL     1       2.174   4.665  -6.462  0.00  0.00    +0.192 C 
ATOM     10  O   UNL     1       2.161   3.399  -6.389  0.00  0.00    -0.287 OA
BRANCH   9  12
ATOM     11  C   UNL     1       3.478   6.456  -7.402  0.00  0.00    -0.001 C 
ATOM     12  C   UNL     1       3.445   5.379  -6.635  0.00  0.00    +0.017 C 
BRANCH  12  13
ATOM     13  C   UNL     1       4.407   5.359  -5.488  0.00  0.00    +0.030 C 
ATOM     14  C   UNL     1       4.576   6.816  -5.071  0.00  0.00    +0.005 C 
ENDBRANCH  12  13
ENDBRANCH   9  12
ENDBRANCH   1   9
BRANCH   6  15
ATOM     15  O   UNL     1      -2.033   7.324  -3.966  0.00  0.00    -0.463 OA
BRANCH  15  16
ATOM     16  C   UNL     1      -2.157   7.080  -2.570  0.00  0.00    +0.319 C 
BRANCH  16  17
ATOM     17  C   UNL     1      -2.813   5.766  -2.297  0.00  0.00    +0.408 C 
ATOM     18  O   UNL     1      -3.739   5.333  -3.252  0.00  0.00    -0.241 OA
ATOM     19  O   UNL     1      -2.146   4.938  -1.606  0.00  0.00    -0.241 OA
ENDBRANCH  16  17
ENDBRANCH  15  16
ENDBRANCH   6  15
TORSDOF 6
ENDMDL
MODEL 4
REMARK VINA RESULT:      -6.3      4.577      8.473
REMARK  Name = 
REMARK  6 active torsions:
REMARK  status: ('A' for Active; 'I' for Inactive)
REMARK    1  A    between atoms: C_2  and  C_3
REMARK    2  A    between atoms: C_2  and  C_5
REMARK    3  A    between atoms: C_5  and  C_7
REMARK    4  A    between atoms: C_10  and  O_11
REMARK    5  A    between atoms: O_11  and  C_12
REMARK    6  A    between atoms: C_12  and  C_13
REMARK                            x       y       z     vdW  Elec       q    Type
REMARK                         _______ _______ _______ _____ _____    ______ ____
ROOT
ATOM      1  C   UNL     1       1.813   5.121  -7.169  0.00  0.00    +0.050 A 
ATOM      2  C   UNL     1       0.482   5.411  -7.413  0.00  0.00    +0.074 A 
ATOM      3 CL   UNL     1      -0.134   5.627  -9.047  0.00  0.00    -0.081 Cl
ATOM      4  C   UNL     1      -0.336   5.766  -6.349  0.00  0.00    +0.102 A 
ATOM      5 CL   UNL     1      -2.064   5.627  -6.508  0.00  0.00    -0.078 Cl
ATOM      6  C   UNL     1       0.294   6.110  -5.162  0.00  0.00    +0.151 A 
ATOM      7  C   UNL     1       1.584   5.704  -4.908  0.00  0.00    +0.038 A 
ATOM      8  C   UNL     1       2.256   4.954  -5.866  0.00  0.00    +0.007 A 
ENDROOT
BRANCH   1   9
ATOM      9  C   UNL     1       2.625   4.665  -8.304  0.00  0.00    +0.192 C 
ATOM     10  O   UNL     1       2.668   3.407  -8.463  0.00  0.00    -0.287 OA
BRANCH   9  12
ATOM     11  C   UNL     1       3.507   6.763  -9.084  0.00  0.00    -0.001 C 
ATOM     12  C   UNL     1       3.741   5.502  -8.760  0.00  0.00    +0.017 C 
BRANCH  12  13
ATOM     13  C   UNL     1       5.097   5.209  -8.196  0.00  0.00    +0.030 C 
ATOM     14  C   UNL     1       6.088   5.641  -9.271  0.00  0.00    +0.005 C 
ENDBRANCH  12  13
ENDBRANCH   9  12
ENDBRANCH   1   9
BRANCH   6  15
ATOM     15  O   UNL     1      -0.519   6.518  -4.100  0.00  0.00    -0.463 OA
BRANCH  15  16
ATOM     16  C   UNL     1      -0.774   5.541  -3.098  0.00  0.00    +0.319 C 
BRANCH  16  17
ATOM     17  C   UNL     1      -2.178   5.622  -2.594  0.00  0.00    +0.408 C 
ATOM     18  O   UNL     1      -2.728   6.906  -2.517  0.00  0.00    -0.241 OA
ATOM     19  O   UNL     1      -2.909   4.607  -2.801  0.00  0.00    -0.241 OA
ENDBRANCH  16  17
ENDBRANCH  15  16
ENDBRANCH   6  15
TORSDOF 6
ENDMDL
MODEL 5
REMARK VINA RESULT:      -6.1      4.742      8.520
REMARK  Name = 
REMARK  6 active torsions:
REMARK  status: ('A' for Active; 'I' for Inactive)
REMARK    1  A    between atoms: C_2  and  C_3
REMARK    2  A    between atoms: C_2  and  C_5
REMARK    3  A    between atoms: C_5  and  C_7
REMARK    4  A    between atoms: C_10  and  O_11
REMARK    5  A    between atoms: O_11  and  C_12
REMARK    6  A    between atoms: C_12  and  C_13
REMARK                            x       y       z     vdW  Elec       q    Type
REMARK                         _______ _______ _______ _____ _____    ______ ____
ROOT
ATOM      1  C   UNL     1       1.458   6.672  -6.457  0.00  0.00    +0.050 A 
ATOM      2  C   UNL     1       2.252   6.590  -5.325  0.00  0.00    +0.074 A 
ATOM      3 CL   UNL     1       4.008   6.644  -5.420  0.00  0.00    -0.081 Cl
ATOM      4  C   UNL     1       1.668   6.228  -4.118  0.00  0.00    +0.102 A 
ATOM      5 CL   UNL     1       2.474   6.611  -2.624  0.00  0.00    -0.078 Cl
ATOM      6  C   UNL     1       0.399   5.672  -4.179  0.00  0.00    +0.151 A 
ATOM      7  C   UNL     1      -0.405   5.872  -5.277  0.00  0.00    +0.038 A 
ATOM      8  C   UNL     1       0.078   6.630  -6.337  0.00  0.00    +0.007 A 
ENDROOT
BRANCH   1   9
ATOM      9  C   UNL     1       2.093   7.142  -7.694  0.00  0.00    +0.192 C 
ATOM     10  O   UNL     1       2.114   8.402  -7.843  0.00  0.00    -0.287 OA
BRANCH   9  12
ATOM     11  C   UNL     1       2.476   5.005  -8.731  0.00  0.00    -0.001 C 
ATOM     12  C   UNL     1       2.091   6.263  -8.870  0.00  0.00    +0.017 C 
BRANCH  12  13
ATOM     13  C   UNL     1       1.060   6.524  -9.923  0.00  0.00    +0.030 C 
ATOM     14  C   UNL     1       0.198   5.267  -9.970  0.00  0.00    +0.005 C 
ENDBRANCH  12  13
ENDBRANCH   9  12
ENDBRANCH   1   9
BRANCH   6  15
ATOM     15  O   UNL     1      -0.177   5.258  -2.973  0.00  0.00    -0.463 OA
BRANCH  15  16
ATOM     16  C   UNL     1      -0.973   6.223  -2.296  0.00  0.00    +0.319 C 
BRANCH  16  17
ATOM     17  C   UNL     1      -2.386   5.763  -2.146  0.00  0.00    +0.408 C 
ATOM     18  O   UNL     1      -3.352   6.772  -2.059  0.00  0.00    -0.241 OA
ATOM     19  O   UNL     1      -2.664   4.629  -2.641  0.00  0.00    -0.241 OA
ENDBRANCH  16  17
ENDBRANCH  15  16
ENDBRANCH   6  15
TORSDOF 6
ENDMDL
MODEL 6
REMARK VINA RESULT:      -6.1      2.687      3.264
REMARK  Name = 
REMARK  6 active torsions:
REMARK  status: ('A' for Active; 'I' for Inactive)
REMARK    1  A    between atoms: C_2  and  C_3
REMARK    2  A    between atoms: C_2  and  C_5
REMARK    3  A    between atoms: C_5  and  C_7
REMARK    4  A    between atoms: C_10  and  O_11
REMARK    5  A    between atoms: O_11  and  C_12
REMARK    6  A    between atoms: C_12  and  C_13
REMARK                            x       y       z     vdW  Elec       q    Type
REMARK                         _______ _______ _______ _____ _____    ______ ____
ROOT
ATOM      1  C   UNL     1       2.534   5.971  -8.427  0.00  0.00    +0.050 A 
ATOM      2  C   UNL     1       1.991   6.043  -9.699  0.00  0.00    +0.074 A 
ATOM      3 CL   UNL     1       0.252   6.057  -9.964  0.00  0.00    -0.081 Cl
ATOM      4  C   UNL     1       2.823   5.868 -10.796  0.00  0.00    +0.102 A 
ATOM      5 CL   UNL     1       2.322   6.453 -12.357  0.00  0.00    -0.078 Cl
ATOM      6  C   UNL     1       4.077   5.328 -10.553  0.00  0.00    +0.151 A 
ATOM      7  C   UNL     1       4.632   5.378  -9.294  0.00  0.00    +0.038 A 
ATOM      8  C   UNL     1       3.911   5.967  -8.262  0.00  0.00    +0.007 A 
ENDROOT
BRANCH   1   9
ATOM      9  C   UNL     1       1.641   6.247  -7.295  0.00  0.00    +0.192 C 
ATOM     10  O   UNL     1       1.938   7.276  -6.614  0.00  0.00    -0.287 OA
BRANCH   9  12
ATOM     11  C   UNL     1       1.618   4.071  -6.269  0.00  0.00    -0.001 C 
ATOM     12  C   UNL     1       0.929   5.129  -6.664  0.00  0.00    +0.017 C 
BRANCH  12  13
ATOM     13  C   UNL     1      -0.294   5.454  -5.864  0.00  0.00    +0.030 C 
ATOM     14  C   UNL     1      -1.469   5.250  -6.815  0.00  0.00    +0.005 C 
ENDBRANCH  12  13
ENDBRANCH   9  12
ENDBRANCH   1   9
BRANCH   6  15
ATOM     15  O   UNL     1       4.903   5.102 -11.658  0.00  0.00    -0.463 OA
BRANCH  15  16
ATOM     16  C   UNL     1       6.018   5.975 -11.794  0.00  0.00    +0.319 C 
BRANCH  16  17
ATOM     17  C   UNL     1       7.305   5.219 -11.860  0.00  0.00    +0.408 C 
ATOM     18  O   UNL     1       7.642   4.692 -13.111  0.00  0.00    -0.241 OA
ATOM     19  O   UNL     1       8.199   5.559 -11.028  0.00  0.00    -0.241 OA
ENDBRANCH  16  17
ENDBRANCH  15  16
ENDBRANCH   6  15
TORSDOF 6
ENDMDL
MODEL 7
REMARK VINA RESULT:      -6.1      2.253      3.006
REMARK  Name = 
REMARK  6 active torsions:
REMARK  status: ('A' for Active; 'I' for Inactive)
REMARK    1  A    between atoms: C_2  and  C_3
REMARK    2  A    between atoms: C_2  and  C_5
REMARK    3  A    between atoms: C_5  and  C_7
REMARK    4  A    between atoms: C_10  and  O_11
REMARK    5  A    between atoms: O_11  and  C_12
REMARK    6  A    between atoms: C_12  and  C_13
REMARK                            x       y       z     vdW  Elec       q    Type
REMARK                         _______ _______ _______ _____ _____    ______ ____
ROOT
ATOM      1  C   UNL     1       3.379   4.982  -8.195  0.00  0.00    +0.050 A 
ATOM      2  C   UNL     1       2.891   5.095  -9.486  0.00  0.00    +0.074 A 
ATOM      3 CL   UNL     1       1.295   4.501  -9.928  0.00  0.00    -0.081 Cl
ATOM      4  C   UNL     1       3.758   5.471 -10.502  0.00  0.00    +0.102 A 
ATOM      5 CL   UNL     1       3.116   6.121 -11.984  0.00  0.00    -0.078 Cl
ATOM      6  C   UNL     1       5.115   5.409 -10.223  0.00  0.00    +0.151 A 
ATOM      7  C   UNL     1       5.566   5.414  -8.923  0.00  0.00    +0.038 A 
ATOM      8  C   UNL     1       4.641   5.467  -7.888  0.00  0.00    +0.007 A 
ENDROOT
BRANCH   1   9
ATOM      9  C   UNL     1       2.414   4.668  -7.133  0.00  0.00    +0.192 C 
ATOM     10  O   UNL     1       2.278   3.432  -6.879  0.00  0.00    -0.287 OA
BRANCH   9  12
ATOM     11  C   UNL     1       0.136   5.111  -6.498  0.00  0.00    -0.001 C 
ATOM     12  C   UNL     1       1.304   5.596  -6.887  0.00  0.00    +0.017 C 
BRANCH  12  13
ATOM     13  C   UNL     1       1.648   6.963  -6.385  0.00  0.00    +0.030 C 
ATOM     14  C   UNL     1       2.496   6.739  -5.138  0.00  0.00    +0.005 C 
ENDBRANCH  12  13
ENDBRANCH   9  12
ENDBRANCH   1   9
BRANCH   6  15
ATOM     15  O   UNL     1       5.998   5.738 -11.256  0.00  0.00    -0.463 OA
BRANCH  15  16
ATOM     16  C   UNL     1       7.368   5.862 -10.893  0.00  0.00    +0.319 C 
BRANCH  16  17
ATOM     17  C   UNL     1       8.269   5.292 -11.939  0.00  0.00    +0.408 C 
ATOM     18  O   UNL     1       7.638   4.621 -12.992  0.00  0.00    -0.241 OA
ATOM     19  O   UNL     1       9.377   5.884 -12.109  0.00  0.00    -0.241 OA
ENDBRANCH  16  17
ENDBRANCH  15  16
ENDBRANCH   6  15
TORSDOF 6
ENDMDL
MODEL 8
REMARK VINA RESULT:      -6.1      3.684      4.745
REMARK  Name = 
REMARK  6 active torsions:
REMARK  status: ('A' for Active; 'I' for Inactive)
REMARK    1  A    between atoms: C_2  and  C_3
REMARK    2  A    between atoms: C_2  and  C_5
REMARK    3  A    between atoms: C_5  and  C_7
REMARK    4  A    between atoms: C_10  and  O_11
REMARK    5  A    between atoms: O_11  and  C_12
REMARK    6  A    between atoms: C_12  and  C_13
REMARK                            x       y       z     vdW  Elec       q    Type
REMARK                         _______ _______ _______ _____ _____    ______ ____
ROOT
ATOM      1  C   UNL     1       0.627   5.773  -8.007  0.00  0.00    +0.050 A 
ATOM      2  C   UNL     1       1.840   6.394  -8.252  0.00  0.00    +0.074 A 
ATOM      3 CL   UNL     1       2.711   7.257  -6.990  0.00  0.00    -0.081 Cl
ATOM      4  C   UNL     1       2.269   6.537  -9.565  0.00  0.00    +0.102 A 
ATOM      5 CL   UNL     1       3.956   6.815  -9.893  0.00  0.00    -0.078 Cl
ATOM      6  C   UNL     1       1.323   6.334 -10.559  0.00  0.00    +0.151 A 
ATOM      7  C   UNL     1       0.180   5.613 -10.304  0.00  0.00    +0.038 A 
ATOM      8  C   UNL     1      -0.024   5.100  -9.029  0.00  0.00    +0.007 A 
ENDROOT
BRANCH   1   9
ATOM      9  C   UNL     1       0.248   5.561  -6.604  0.00  0.00    +0.192 C 
ATOM     10  O   UNL     1       0.556   4.425  -6.130  0.00  0.00    -0.287 OA
BRANCH   9  12
ATOM     11  C   UNL     1      -2.086   5.715  -6.042  0.00  0.00    -0.001 C 
ATOM     12  C   UNL     1      -0.899   6.298  -6.060  0.00  0.00    +0.017 C 
BRANCH  12  13
ATOM     13  C   UNL     1      -0.630   7.277  -4.960  0.00  0.00    +0.030 C 
ATOM     14  C   UNL     1      -1.972   7.936  -4.663  0.00  0.00    +0.005 C 
ENDBRANCH  12  13
ENDBRANCH   9  12
ENDBRANCH   1   9
BRANCH   6  15
ATOM     15  O   UNL     1       1.733   6.527 -11.882  0.00  0.00    -0.463 OA
BRANCH  15  16
ATOM     16  C   UNL     1       1.171   5.643 -12.845  0.00  0.00    +0.319 C 
BRANCH  16  17
ATOM     17  C   UNL     1       1.928   5.678 -14.132  0.00  0.00    +0.408 C 
ATOM     18  O   UNL     1       2.832   4.630 -14.340  0.00  0.00    -0.241 OA
ATOM     19  O   UNL     1       1.355   6.253 -15.106  0.00  0.00    -0.241 OA
ENDBRANCH  16  17
ENDBRANCH  15  16
ENDBRANCH   6  15
TORSDOF 6
ENDMDL
MODEL 9
REMARK VINA RESULT:      -6.0      2.733      6.682
REMARK  Name = 
REMARK  6 active torsions:
REMARK  status: ('A' for Active; 'I' for Inactive)
REMARK    1  A    between atoms: C_2  and  C_3
REMARK    2  A    between atoms: C_2  and  C_5
REMARK    3  A    between atoms: C_5  and  C_7
REMARK    4  A    between atoms: C_10  and  O_11
REMARK    5  A    between atoms: O_11  and  C_12
REMARK    6  A    between atoms: C_12  and  C_13
REMARK                            x       y       z     vdW  Elec       q    Type
REMARK                         _______ _______ _______ _____ _____    ______ ____
ROOT
ATOM      1  C   UNL     1       4.624   5.861 -10.471  0.00  0.00    +0.050 A 
ATOM      2  C   UNL     1       3.261   5.942 -10.702  0.00  0.00    +0.074 A 
ATOM      3 CL   UNL     1       2.614   6.431 -12.263  0.00  0.00    -0.081 Cl
ATOM      4  C   UNL     1       2.390   5.862  -9.623  0.00  0.00    +0.102 A 
ATOM      5 CL   UNL     1       0.724   5.439  -9.894  0.00  0.00    -0.078 Cl
ATOM      6  C   UNL     1       2.942   6.017  -8.360  0.00  0.00    +0.151 A 
ATOM      7  C   UNL     1       4.286   5.815  -8.150  0.00  0.00    +0.038 A 
ATOM      8  C   UNL     1       5.092   5.466  -9.227  0.00  0.00    +0.007 A 
ENDROOT
BRANCH   1   9
ATOM      9  C   UNL     1       5.509   5.861 -11.643  0.00  0.00    +0.192 C 
ATOM     10  O   UNL     1       5.538   4.773 -12.296  0.00  0.00    -0.287 OA
BRANCH   9  12
ATOM     11  C   UNL     1       6.492   8.049 -11.448  0.00  0.00    -0.001 C 
ATOM     12  C   UNL     1       6.674   6.754 -11.651  0.00  0.00    +0.017 C 
BRANCH  12  13
ATOM     13  C   UNL     1       7.977   6.191 -11.177  0.00  0.00    +0.030 C 
ATOM     14  C   UNL     1       8.787   5.919 -12.440  0.00  0.00    +0.005 C 
ENDBRANCH  12  13
ENDBRANCH   9  12
ENDBRANCH   1   9
BRANCH   6  15
ATOM     15  O   UNL     1       2.065   5.988  -7.271  0.00  0.00    -0.463 OA
BRANCH  15  16
ATOM     16  C   UNL     1       2.071   4.795  -6.495  0.00  0.00    +0.319 C 
BRANCH  16  17
ATOM     17  C   UNL     1       0.806   4.639  -5.716  0.00  0.00    +0.408 C 
ATOM     18  O   UNL     1       0.891   4.917  -4.348  0.00  0.00    -0.241 OA
ATOM     19  O   UNL     1      -0.274   4.817  -6.356  0.00  0.00    -0.241 OA
ENDBRANCH  16  17
ENDBRANCH  15  16
ENDBRANCH   6  15
TORSDOF 6
ENDMDL
