MODEL 1
REMARK VINA RESULT:      -6.5      0.000      0.000
REMARK  Name = 
REMARK  12 active torsions:
REMARK  status: ('A' for Active; 'I' for Inactive)
REMARK    1  A    between atoms: N_4  and  C_5
REMARK    2  A    between atoms: N_4  and  C_10
REMARK    3  A    between atoms: C_5  and  C_6
REMARK    4  A    between atoms: C_6  and  C_8
REMARK    5  A    between atoms: C_13  and  C_14
REMARK    6  A    between atoms: N_16  and  C_17
REMARK    7  A    between atoms: C_17  and  C_18
REMARK    8  A    between atoms: C_18  and  C_20
REMARK    9  A    between atoms: C_24  and  C_25
REMARK   10  A    between atoms: N_27  and  C_28
REMARK   11  A    between atoms: C_28  and  C_29
REMARK   12  A    between atoms: C_29  and  C_31
REMARK                            x       y       z     vdW  Elec       q    Type
REMARK                         _______ _______ _______ _____ _____    ______ ____
ROOT
ATOM      1  C   UNL     1      -0.362   6.321  -3.180  0.00  0.00    +0.065 A 
ATOM      2  C   UNL     1      -0.557   6.739  -4.490  0.00  0.00    +0.049 A 
ATOM      3  I   UNL     1      -2.315   7.729  -5.014  0.00  0.00    -0.041 I 
ATOM      4  C   UNL     1       0.244   6.280  -5.530  0.00  0.00    +0.067 A 
ATOM      5  C   UNL     1       1.518   5.889  -5.153  0.00  0.00    +0.040 A 
ATOM      6  I   UNL     1       2.823   4.943  -6.521  0.00  0.00    -0.042 I 
ATOM      7  C   UNL     1       1.883   5.798  -3.815  0.00  0.00    +0.067 A 
ATOM      8  C   UNL     1       0.882   5.844  -2.855  0.00  0.00    +0.049 A 
ATOM      9  I   UNL     1       1.221   4.751  -1.093  0.00  0.00    -0.041 I 
ENDROOT
BRANCH   1  12
ATOM     10  C   UNL     1      -2.677   5.800  -2.189  0.00  0.00    +0.095 C 
ATOM     11  C   UNL     1      -2.487   5.740  -2.241  0.00  0.00    +0.230 C 
ATOM     12  N   UNL     1      -1.342   6.493  -2.156  0.00  0.00    -0.255 N 
ATOM     13  O   UNL     1      -2.712   4.583  -2.167  0.00  0.00    -0.275 OA
BRANCH  12  14
ATOM     14  C   UNL     1      -0.824   6.774  -0.867  0.00  0.00    +0.134 C 
BRANCH  14  15
ATOM     15  C   UNL     1      -1.591   8.101  -0.258  0.00  0.00    +0.205 C 
ATOM     16  O   UNL     1      -2.270   7.381   0.903  0.00  0.00    -0.218 OA
BRANCH  15  17
ATOM     17  C   UNL     1      -0.279   8.518   0.658  0.00  0.00    +0.217 C 
ATOM     18  O   UNL     1      -0.591   9.806   1.092  0.00  0.00    -0.218 OA
ENDBRANCH  15  17
ENDBRANCH  14  15
ENDBRANCH  12  14
ENDBRANCH   1  12
BRANCH   4  19
ATOM     19  C   UNL     1      -0.328   5.821  -6.787  0.00  0.00    +0.266 C 
ATOM     20  N   UNL     1       0.301   6.232  -7.984  0.00  0.00    -0.199 NA
ATOM     21  O   UNL     1      -0.851   4.676  -6.804  0.00  0.00    -0.268 OA
BRANCH  20  22
ATOM     22  C   UNL     1       0.349   5.588  -9.224  0.00  0.00    +0.151 C 
BRANCH  22  23
ATOM     23  C   UNL     1       0.979   6.635 -10.338  0.00  0.00    +0.206 C 
ATOM     24  O   UNL     1       1.533   5.559 -11.268  0.00  0.00    -0.218 OA
BRANCH  23  25
ATOM     25  C   UNL     1      -0.447   6.741 -11.171  0.00  0.00    +0.217 C 
ATOM     26  O   UNL     1      -0.542   8.082 -11.510  0.00  0.00    -0.218 OA
ENDBRANCH  23  25
ENDBRANCH  22  23
ENDBRANCH  20  22
ENDBRANCH   4  19
BRANCH   7  27
ATOM     27  C   UNL     1       3.287   5.880  -3.400  0.00  0.00    +0.266 C 
ATOM     28  N   UNL     1       3.714   7.206  -3.049  0.00  0.00    -0.199 NA
ATOM     29  O   UNL     1       4.190   5.163  -3.890  0.00  0.00    -0.268 OA
BRANCH  28  30
ATOM     30  C   UNL     1       4.936   7.395  -2.270  0.00  0.00    +0.151 C 
BRANCH  30  31
ATOM     31  C   UNL     1       4.431   6.821  -0.804  0.00  0.00    +0.206 C 
ATOM     32  O   UNL     1       5.613   7.454  -0.085  0.00  0.00    -0.218 OA
BRANCH  31  33
ATOM     33  C   UNL     1       3.453   8.118  -0.507  0.00  0.00    +0.217 C 
ATOM     34  O   UNL     1       3.457   8.260   0.863  0.00  0.00    -0.218 OA
ENDBRANCH  31  33
ENDBRANCH  30  31
ENDBRANCH  28  30
ENDBRANCH   7  27
TORSDOF 12
ENDMDL
MODEL 2
REMARK VINA RESULT:      -6.5      0.673      6.714
REMARK  Name = 
REMARK  12 active torsions:
REMARK  status: ('A' for Active; 'I' for Inactive)
REMARK    1  A    between atoms: N_4  and  C_5
REMARK    2  A    between atoms: N_4  and  C_10
REMARK    3  A    between atoms: C_5  and  C_6
REMARK    4  A    between atoms: C_6  and  C_8
REMARK    5  A    between atoms: C_13  and  C_14
REMARK    6  A    between atoms: N_16  and  C_17
REMARK    7  A    between atoms: C_17  and  C_18
REMARK    8  A    between atoms: C_18  and  C_20
REMARK    9  A    between atoms: C_24  and  C_25
REMARK   10  A    between atoms: N_27  and  C_28
REMARK   11  A    between atoms: C_28  and  C_29
REMARK   12  A    between atoms: C_29  and  C_31
REMARK                            x       y       z     vdW  Elec       q    Type
REMARK                         _______ _______ _______ _____ _____    ______ ____
ROOT
ATOM      1  C   UNL     1      -0.255   6.048  -3.184  0.00  0.00    +0.065 A 
ATOM      2  C   UNL     1       0.939   5.404  -2.885  0.00  0.00    +0.049 A 
ATOM      3  I   UNL     1       1.370   4.878  -0.915  0.00  0.00    -0.041 I 
ATOM      4  C   UNL     1       1.986   5.347  -3.798  0.00  0.00    +0.067 A 
ATOM      5  C   UNL     1       1.603   5.427  -5.127  0.00  0.00    +0.040 A 
ATOM      6  I   UNL     1       3.036   5.594  -6.671  0.00  0.00    -0.042 I 
ATOM      7  C   UNL     1       0.295   5.724  -5.488  0.00  0.00    +0.067 A 
ATOM      8  C   UNL     1      -0.566   6.203  -4.510  0.00  0.00    +0.049 A 
ATOM      9  I   UNL     1      -2.060   7.537  -5.147  0.00  0.00    -0.041 I 
ENDROOT
BRANCH   1  12
ATOM     10  C   UNL     1      -2.590   5.827  -2.129  0.00  0.00    +0.095 C 
ATOM     11  C   UNL     1      -2.405   5.748  -2.174  0.00  0.00    +0.230 C 
ATOM     12  N   UNL     1      -1.208   6.420  -2.188  0.00  0.00    -0.255 N 
ATOM     13  O   UNL     1      -2.712   4.629  -1.953  0.00  0.00    -0.275 OA
BRANCH  12  14
ATOM     14  C   UNL     1      -0.656   6.823  -0.946  0.00  0.00    +0.134 C 
BRANCH  14  15
ATOM     15  C   UNL     1      -1.678   7.900  -0.228  0.00  0.00    +0.205 C 
ATOM     16  O   UNL     1      -2.051   7.010   0.954  0.00  0.00    -0.218 OA
BRANCH  15  17
ATOM     17  C   UNL     1      -0.441   8.623   0.596  0.00  0.00    +0.217 C 
ATOM     18  O   UNL     1      -1.045   9.749   1.152  0.00  0.00    -0.218 OA
ENDBRANCH  15  17
ENDBRANCH  14  15
ENDBRANCH  12  14
ENDBRANCH   1  12
BRANCH   4  19
ATOM     19  C   UNL     1       3.357   5.639  -3.406  0.00  0.00    +0.266 C 
ATOM     20  N   UNL     1       3.594   6.832  -2.686  0.00  0.00    -0.199 NA
ATOM     21  O   UNL     1       4.101   4.664  -3.119  0.00  0.00    -0.268 OA
BRANCH  20  22
ATOM     22  C   UNL     1       4.601   7.120  -1.760  0.00  0.00    +0.151 C 
BRANCH  22  23
ATOM     23  C   UNL     1       4.106   8.388  -0.821  0.00  0.00    +0.206 C 
ATOM     24  O   UNL     1       2.694   7.863  -0.579  0.00  0.00    -0.218 OA
BRANCH  23  25
ATOM     25  C   UNL     1       4.691   7.700   0.566  0.00  0.00    +0.217 C 
ATOM     26  O   UNL     1       4.444   6.345   0.401  0.00  0.00    -0.218 OA
ENDBRANCH  23  25
ENDBRANCH  22  23
ENDBRANCH  20  22
ENDBRANCH   4  19
BRANCH   7  27
ATOM     27  C   UNL     1      -0.243   5.336  -6.796  0.00  0.00    +0.266 C 
ATOM     28  N   UNL     1       0.207   6.166  -7.880  0.00  0.00    -0.199 NA
ATOM     29  O   UNL     1      -1.394   4.867  -6.953  0.00  0.00    -0.268 OA
BRANCH  28  30
ATOM     30  C   UNL     1       0.076   5.698  -9.258  0.00  0.00    +0.151 C 
BRANCH  30  31
ATOM     31  C   UNL     1       1.064   6.780 -10.022  0.00  0.00    +0.206 C 
ATOM     32  O   UNL     1       1.993   5.676 -10.508  0.00  0.00    -0.218 OA
BRANCH  31  33
ATOM     33  C   UNL     1       0.186   6.766 -11.421  0.00  0.00    +0.217 C 
ATOM     34  O   UNL     1      -0.538   7.937 -11.399  0.00  0.00    -0.218 OA
ENDBRANCH  31  33
ENDBRANCH  30  31
ENDBRANCH  28  30
ENDBRANCH   7  27
TORSDOF 12
ENDMDL
MODEL 3
REMARK VINA RESULT:      -6.0      3.316      7.840
REMARK  Name = 
REMARK  12 active torsions:
REMARK  status: ('A' for Active; 'I' for Inactive)
REMARK    1  A    between atoms: N_4  and  C_5
REMARK    2  A    between atoms: N_4  and  C_10
REMARK    3  A    between atoms: C_5  and  C_6
REMARK    4  A    between atoms: C_6  and  C_8
REMARK    5  A    between atoms: C_13  and  C_14
REMARK    6  A    between atoms: N_16  and  C_17
REMARK    7  A    between atoms: C_17  and  C_18
REMARK    8  A    between atoms: C_18  and  C_20
REMARK    9  A    between atoms: C_24  and  C_25
REMARK   10  A    between atoms: N_27  and  C_28
REMARK   11  A    between atoms: C_28  and  C_29
REMARK   12  A    between atoms: C_29  and  C_31
REMARK                            x       y       z     vdW  Elec       q    Type
REMARK                         _______ _______ _______ _____ _____    ______ ____
ROOT
ATOM      1  C   UNL     1       0.038   7.651   1.315  0.00  0.00    +0.065 A 
ATOM      2  C   UNL     1       1.335   7.827   1.780  0.00  0.00    +0.049 A 
ATOM      3  I   UNL     1       1.661   8.423   3.750  0.00  0.00    -0.041 I 
ATOM      4  C   UNL     1       2.418   7.898   0.911  0.00  0.00    +0.067 A 
ATOM      5  C   UNL     1       2.240   7.237  -0.294  0.00  0.00    +0.040 A 
ATOM      6  I   UNL     1       3.657   7.405  -1.854  0.00  0.00    -0.042 I 
ATOM      7  C   UNL     1       1.007   6.710  -0.657  0.00  0.00    +0.067 A 
ATOM      8  C   UNL     1      -0.111   7.083   0.076  0.00  0.00    +0.049 A 
ATOM      9  I   UNL     1      -1.931   7.169  -0.969  0.00  0.00    -0.041 I 
ENDROOT
BRANCH   1  12
ATOM     10  C   UNL     1      -1.681   9.286   2.307  0.00  0.00    +0.095 C 
ATOM     11  C   UNL     1      -1.598   9.189   2.145  0.00  0.00    +0.230 C 
ATOM     12  N   UNL     1      -1.116   7.904   2.118  0.00  0.00    -0.255 N 
ATOM     13  O   UNL     1      -2.089   9.896   1.336  0.00  0.00    -0.275 OA
BRANCH  12  14
ATOM     14  C   UNL     1      -2.050   6.841   2.184  0.00  0.00    +0.134 C 
BRANCH  14  15
ATOM     15  C   UNL     1      -2.544   6.656   3.747  0.00  0.00    +0.205 C 
ATOM     16  O   UNL     1      -4.013   6.983   3.495  0.00  0.00    -0.218 OA
BRANCH  15  17
ATOM     17  C   UNL     1      -2.783   5.033   3.548  0.00  0.00    +0.217 C 
ATOM     18  O   UNL     1      -4.166   4.899   3.656  0.00  0.00    -0.218 OA
ENDBRANCH  15  17
ENDBRANCH  14  15
ENDBRANCH  12  14
ENDBRANCH   1  12
BRANCH   4  19
ATOM     19  C   UNL     1       3.437   8.928   1.044  0.00  0.00    +0.266 C 
ATOM     20  N   UNL     1       3.010  10.275   1.062  0.00  0.00    -0.199 NA
ATOM     21  O   UNL     1       4.448   8.660   1.746  0.00  0.00    -0.268 OA
BRANCH  20  22
ATOM     22  C   UNL     1       3.604  11.382   1.676  0.00  0.00    +0.151 C 
BRANCH  22  23
ATOM     23  C   UNL     1       4.805  11.951   0.692  0.00  0.00    +0.206 C 
ATOM     24  O   UNL     1       3.895  12.286  -0.487  0.00  0.00    -0.218 OA
BRANCH  23  25
ATOM     25  C   UNL     1       4.706  13.482   1.313  0.00  0.00    +0.217 C 
ATOM     26  O   UNL     1       4.515  13.283   2.672  0.00  0.00    -0.218 OA
ENDBRANCH  23  25
ENDBRANCH  22  23
ENDBRANCH  20  22
ENDBRANCH   4  19
BRANCH   7  27
ATOM     27  C   UNL     1       0.901   5.619  -1.632  0.00  0.00    +0.266 C 
ATOM     28  N   UNL     1       0.520   6.049  -2.948  0.00  0.00    -0.199 NA
ATOM     29  O   UNL     1       0.503   4.469  -1.333  0.00  0.00    -0.268 OA
BRANCH  28  30
ATOM     30  C   UNL     1       0.736   5.167  -4.093  0.00  0.00    +0.151 C 
BRANCH  30  31
ATOM     31  C   UNL     1       0.594   6.258  -5.326  0.00  0.00    +0.206 C 
ATOM     32  O   UNL     1       2.104   6.392  -5.459  0.00  0.00    -0.218 OA
BRANCH  31  33
ATOM     33  C   UNL     1       0.514   5.096  -6.497  0.00  0.00    +0.217 C 
ATOM     34  O   UNL     1       1.235   4.035  -5.996  0.00  0.00    -0.218 OA
ENDBRANCH  31  33
ENDBRANCH  30  31
ENDBRANCH  28  30
ENDBRANCH   7  27
TORSDOF 12
ENDMDL
MODEL 4
REMARK VINA RESULT:      -5.9      2.407      6.663
REMARK  Name = 
REMARK  12 active torsions:
REMARK  status: ('A' for Active; 'I' for Inactive)
REMARK    1  A    between atoms: N_4  and  C_5
REMARK    2  A    between atoms: N_4  and  C_10
REMARK    3  A    between atoms: C_5  and  C_6
REMARK    4  A    between atoms: C_6  and  C_8
REMARK    5  A    between atoms: C_13  and  C_14
REMARK    6  A    between atoms: N_16  and  C_17
REMARK    7  A    between atoms: C_17  and  C_18
REMARK    8  A    between atoms: C_18  and  C_20
REMARK    9  A    between atoms: C_24  and  C_25
REMARK   10  A    between atoms: N_27  and  C_28
REMARK   11  A    between atoms: C_28  and  C_29
REMARK   12  A    between atoms: C_29  and  C_31
REMARK                            x       y       z     vdW  Elec       q    Type
REMARK                         _______ _______ _______ _____ _____    ______ ____
ROOT
ATOM      1  C   UNL     1       2.065   5.919  -6.082  0.00  0.00    +0.065 A 
ATOM      2  C   UNL     1       0.817   5.376  -5.800  0.00  0.00    +0.049 A 
ATOM      3  I   UNL     1      -0.506   4.952  -7.353  0.00  0.00    -0.041 I 
ATOM      4  C   UNL     1       0.301   5.364  -4.509  0.00  0.00    +0.067 A 
ATOM      5  C   UNL     1       1.253   5.370  -3.503  0.00  0.00    +0.040 A 
ATOM      6  I   UNL     1       0.700   5.588  -1.474  0.00  0.00    -0.042 I 
ATOM      7  C   UNL     1       2.601   5.556  -3.781  0.00  0.00    +0.067 A 
ATOM      8  C   UNL     1       2.958   6.004  -5.045  0.00  0.00    +0.049 A 
ATOM      9  I   UNL     1       4.680   7.201  -5.165  0.00  0.00    -0.041 I 
ENDROOT
BRANCH   1  12
ATOM     10  C   UNL     1       1.968   7.463  -8.136  0.00  0.00    +0.095 C 
ATOM     11  C   UNL     1       2.019   7.429  -7.939  0.00  0.00    +0.230 C 
ATOM     12  N   UNL     1       2.485   6.254  -7.405  0.00  0.00    -0.255 N 
ATOM     13  O   UNL     1       2.180   8.569  -7.673  0.00  0.00    -0.275 OA
BRANCH  12  14
ATOM     14  C   UNL     1       3.799   5.843  -7.742  0.00  0.00    +0.134 C 
BRANCH  14  15
ATOM     15  C   UNL     1       3.727   4.377  -8.493  0.00  0.00    +0.205 C 
ATOM     16  O   UNL     1       2.536   4.708  -9.387  0.00  0.00    -0.218 OA
BRANCH  15  17
ATOM     17  C   UNL     1       4.824   4.839  -9.640  0.00  0.00    +0.217 C 
ATOM     18  O   UNL     1       5.843   5.422  -8.889  0.00  0.00    -0.218 OA
ENDBRANCH  15  17
ENDBRANCH  14  15
ENDBRANCH  12  14
ENDBRANCH   1  12
BRANCH   4  19
ATOM     19  C   UNL     1      -1.069   5.770  -4.232  0.00  0.00    +0.266 C 
ATOM     20  N   UNL     1      -1.849   4.929  -3.408  0.00  0.00    -0.199 NA
ATOM     21  O   UNL     1      -1.302   7.005  -4.139  0.00  0.00    -0.268 OA
BRANCH  20  22
ATOM     22  C   UNL     1      -2.915   5.259  -2.565  0.00  0.00    +0.151 C 
BRANCH  22  23
ATOM     23  C   UNL     1      -3.092   6.903  -2.556  0.00  0.00    +0.206 C 
ATOM     24  O   UNL     1      -4.589   6.898  -2.262  0.00  0.00    -0.218 OA
BRANCH  23  25
ATOM     25  C   UNL     1      -2.692   7.022  -0.954  0.00  0.00    +0.217 C 
ATOM     26  O   UNL     1      -1.872   8.139  -0.893  0.00  0.00    -0.218 OA
ENDBRANCH  23  25
ENDBRANCH  22  23
ENDBRANCH  20  22
ENDBRANCH   4  19
BRANCH   7  27
ATOM     27  C   UNL     1       3.642   5.085  -2.862  0.00  0.00    +0.266 C 
ATOM     28  N   UNL     1       4.015   6.046  -1.861  0.00  0.00    -0.199 NA
ATOM     29  O   UNL     1       4.573   4.323  -3.213  0.00  0.00    -0.268 OA
BRANCH  28  30
ATOM     30  C   UNL     1       4.739   5.611  -0.668  0.00  0.00    +0.151 C 
BRANCH  30  31
ATOM     31  C   UNL     1       5.111   7.080  -0.008  0.00  0.00    +0.206 C 
ATOM     32  O   UNL     1       4.575   7.825  -1.222  0.00  0.00    -0.218 OA
BRANCH  31  33
ATOM     33  C   UNL     1       3.677   7.206   0.802  0.00  0.00    +0.217 C 
ATOM     34  O   UNL     1       4.010   7.098   2.134  0.00  0.00    -0.218 OA
ENDBRANCH  31  33
ENDBRANCH  30  31
ENDBRANCH  28  30
ENDBRANCH   7  27
TORSDOF 12
ENDMDL
MODEL 5
REMARK VINA RESULT:      -5.9      5.276     10.137
REMARK  Name = 
REMARK  12 active torsions:
REMARK  status: ('A' for Active; 'I' for Inactive)
REMARK    1  A    between atoms: N_4  and  C_5
REMARK    2  A    between atoms: N_4  and  C_10
REMARK    3  A    between atoms: C_5  and  C_6
REMARK    4  A    between atoms: C_6  and  C_8
REMARK    5  A    between atoms: C_13  and  C_14
REMARK    6  A    between atoms: N_16  and  C_17
REMARK    7  A    between atoms: C_17  and  C_18
REMARK    8  A    between atoms: C_18  and  C_20
REMARK    9  A    between atoms: C_24  and  C_25
REMARK   10  A    between atoms: N_27  and  C_28
REMARK   11  A    between atoms: C_28  and  C_29
REMARK   12  A    between atoms: C_29  and  C_31
REMARK                            x       y       z     vdW  Elec       q    Type
REMARK                         _______ _______ _______ _____ _____    ______ ____
ROOT
ATOM      1  C   UNL     1       2.439   5.951  -9.879  0.00  0.00    +0.065 A 
ATOM      2  C   UNL     1       3.749   5.567 -10.132  0.00  0.00    +0.049 A 
ATOM      3  I   UNL     1       5.027   5.126  -8.546  0.00  0.00    -0.041 I 
ATOM      4  C   UNL     1       4.331   5.734 -11.384  0.00  0.00    +0.067 A 
ATOM      5  C   UNL     1       3.438   5.743 -12.443  0.00  0.00    +0.040 A 
ATOM      6  I   UNL     1       4.070   6.214 -14.404  0.00  0.00    -0.042 I 
ATOM      7  C   UNL     1       2.064   5.765 -12.233  0.00  0.00    +0.067 A 
ATOM      8  C   UNL     1       1.597   6.048 -10.958  0.00  0.00    +0.049 A 
ATOM      9  I   UNL     1      -0.246   7.049 -10.835  0.00  0.00    -0.041 I 
ENDROOT
BRANCH   1  12
ATOM     10  C   UNL     1       2.264   7.286  -7.689  0.00  0.00    +0.095 C 
ATOM     11  C   UNL     1       2.227   7.268  -7.891  0.00  0.00    +0.230 C 
ATOM     12  N   UNL     1       1.916   6.110  -8.560  0.00  0.00    -0.255 N 
ATOM     13  O   UNL     1       1.962   8.406  -8.060  0.00  0.00    -0.275 OA
BRANCH  12  14
ATOM     14  C   UNL     1       0.637   5.540  -8.345  0.00  0.00    +0.134 C 
BRANCH  14  15
ATOM     15  C   UNL     1       0.269   5.635  -6.740  0.00  0.00    +0.205 C 
ATOM     16  O   UNL     1      -1.136   5.052  -6.858  0.00  0.00    -0.218 OA
BRANCH  15  17
ATOM     17  C   UNL     1       0.948   4.160  -6.431  0.00  0.00    +0.217 C 
ATOM     18  O   UNL     1       1.957   4.459  -5.517  0.00  0.00    -0.218 OA
ENDBRANCH  15  17
ENDBRANCH  14  15
ENDBRANCH  12  14
ENDBRANCH   1  12
BRANCH   4  19
ATOM     19  C   UNL     1       5.663   6.300 -11.537  0.00  0.00    +0.266 C 
ATOM     20  N   UNL     1       6.609   5.562 -12.282  0.00  0.00    -0.199 NA
ATOM     21  O   UNL     1       5.756   7.554 -11.613  0.00  0.00    -0.268 OA
BRANCH  20  22
ATOM     22  C   UNL     1       7.701   6.021 -13.026  0.00  0.00    +0.151 C 
BRANCH  22  23
ATOM     23  C   UNL     1       9.072   5.831 -12.121  0.00  0.00    +0.206 C 
ATOM     24  O   UNL     1       8.787   6.984 -11.163  0.00  0.00    -0.218 OA
BRANCH  23  25
ATOM     25  C   UNL     1       8.361   4.716 -11.124  0.00  0.00    +0.217 C 
ATOM     26  O   UNL     1       8.549   5.233  -9.851  0.00  0.00    -0.218 OA
ENDBRANCH  23  25
ENDBRANCH  22  23
ENDBRANCH  20  22
ENDBRANCH   4  19
BRANCH   7  27
ATOM     27  C   UNL     1       1.129   5.285 -13.255  0.00  0.00    +0.266 C 
ATOM     28  N   UNL     1       0.568   6.328 -14.068  0.00  0.00    -0.199 NA
ATOM     29  O   UNL     1       0.367   4.305 -13.081  0.00  0.00    -0.268 OA
BRANCH  28  30
ATOM     30  C   UNL     1      -0.066   5.995 -15.343  0.00  0.00    +0.151 C 
BRANCH  30  31
ATOM     31  C   UNL     1      -0.069   7.486 -16.057  0.00  0.00    +0.206 C 
ATOM     32  O   UNL     1       0.954   7.054 -17.097  0.00  0.00    -0.218 OA
BRANCH  31  33
ATOM     33  C   UNL     1      -1.343   7.133 -17.048  0.00  0.00    +0.217 C 
ATOM     34  O   UNL     1      -0.770   6.735 -18.236  0.00  0.00    -0.218 OA
ENDBRANCH  31  33
ENDBRANCH  30  31
ENDBRANCH  28  30
ENDBRANCH   7  27
TORSDOF 12
ENDMDL
MODEL 6
REMARK VINA RESULT:      -5.8      1.983      5.260
REMARK  Name = 
REMARK  12 active torsions:
REMARK  status: ('A' for Active; 'I' for Inactive)
REMARK    1  A    between atoms: N_4  and  C_5
REMARK    2  A    between atoms: N_4  and  C_10
REMARK    3  A    between atoms: C_5  and  C_6
REMARK    4  A    between atoms: C_6  and  C_8
REMARK    5  A    between atoms: C_13  and  C_14
REMARK    6  A    between atoms: N_16  and  C_17
REMARK    7  A    between atoms: C_17  and  C_18
REMARK    8  A    between atoms: C_18  and  C_20
REMARK    9  A    between atoms: C_24  and  C_25
REMARK   10  A    between atoms: N_27  and  C_28
REMARK   11  A    between atoms: C_28  and  C_29
REMARK   12  A    between atoms: C_29  and  C_31
REMARK                            x       y       z     vdW  Elec       q    Type
REMARK                         _______ _______ _______ _____ _____    ______ ____
ROOT
ATOM      1  C   UNL     1       2.696   6.127  -3.069  0.00  0.00    +0.065 A 
ATOM      2  C   UNL     1       2.425   5.616  -4.333  0.00  0.00    +0.049 A 
ATOM      3  I   UNL     1       3.975   4.853  -5.498  0.00  0.00    -0.041 I 
ATOM      4  C   UNL     1       1.210   5.847  -4.969  0.00  0.00    +0.067 A 
ATOM      5  C   UNL     1       0.143   6.080  -4.116  0.00  0.00    +0.040 A 
ATOM      6  I   UNL     1      -1.741   6.682  -4.861  0.00  0.00    -0.042 I 
ATOM      7  C   UNL     1       0.329   6.246  -2.750  0.00  0.00    +0.067 A 
ATOM      8  C   UNL     1       1.620   6.442  -2.279  0.00  0.00    +0.049 A 
ATOM      9  I   UNL     1       1.821   7.640  -0.564  0.00  0.00    -0.041 I 
ENDROOT
BRANCH   1  12
ATOM     10  C   UNL     1       4.929   7.370  -2.787  0.00  0.00    +0.095 C 
ATOM     11  C   UNL     1       4.726   7.356  -2.753  0.00  0.00    +0.230 C 
ATOM     12  N   UNL     1       4.015   6.203  -2.528  0.00  0.00    -0.255 N 
ATOM     13  O   UNL     1       4.594   8.478  -2.410  0.00  0.00    -0.275 OA
BRANCH  12  14
ATOM     14  C   UNL     1       4.198   5.538  -1.291  0.00  0.00    +0.134 C 
BRANCH  14  15
ATOM     15  C   UNL     1       4.376   3.922  -1.571  0.00  0.00    +0.205 C 
ATOM     16  O   UNL     1       5.230   3.635  -0.340  0.00  0.00    -0.218 OA
BRANCH  15  17
ATOM     17  C   UNL     1       2.968   3.565  -0.782  0.00  0.00    +0.217 C 
ATOM     18  O   UNL     1       3.113   2.215  -0.468  0.00  0.00    -0.218 OA
ENDBRANCH  15  17
ENDBRANCH  14  15
ENDBRANCH  12  14
ENDBRANCH   1  12
BRANCH   4  19
ATOM     19  C   UNL     1       1.146   6.262  -6.362  0.00  0.00    +0.266 C 
ATOM     20  N   UNL     1       0.577   5.361  -7.290  0.00  0.00    -0.199 NA
ATOM     21  O   UNL     1       0.963   7.486  -6.597  0.00  0.00    -0.268 OA
BRANCH  20  22
ATOM     22  C   UNL     1      -0.087   5.630  -8.491  0.00  0.00    +0.151 C 
BRANCH  22  23
ATOM     23  C   UNL     1       1.038   5.783  -9.693  0.00  0.00    +0.206 C 
ATOM     24  O   UNL     1       1.685   4.418  -9.476  0.00  0.00    -0.218 OA
BRANCH  23  25
ATOM     25  C   UNL     1       0.005   5.203 -10.849  0.00  0.00    +0.217 C 
ATOM     26  O   UNL     1       0.837   4.860 -11.904  0.00  0.00    -0.218 OA
ENDBRANCH  23  25
ENDBRANCH  22  23
ENDBRANCH  20  22
ENDBRANCH   4  19
BRANCH   7  27
ATOM     27  C   UNL     1      -0.757   5.996  -1.796  0.00  0.00    +0.266 C 
ATOM     28  N   UNL     1      -1.104   7.139  -0.997  0.00  0.00    -0.199 NA
ATOM     29  O   UNL     1      -0.924   4.897  -1.219  0.00  0.00    -0.268 OA
BRANCH  28  30
ATOM     30  C   UNL     1      -2.382   7.170  -0.289  0.00  0.00    +0.151 C 
BRANCH  30  31
ATOM     31  C   UNL     1      -1.980   8.144   0.984  0.00  0.00    +0.206 C 
ATOM     32  O   UNL     1      -3.333   7.935   1.647  0.00  0.00    -0.218 OA
BRANCH  31  33
ATOM     33  C   UNL     1      -1.279   6.921   1.845  0.00  0.00    +0.217 C 
ATOM     34  O   UNL     1      -0.320   7.534   2.619  0.00  0.00    -0.218 OA
ENDBRANCH  31  33
ENDBRANCH  30  31
ENDBRANCH  28  30
ENDBRANCH   7  27
TORSDOF 12
ENDMDL
MODEL 7
REMARK VINA RESULT:      -5.8      2.839      7.505
REMARK  Name = 
REMARK  12 active torsions:
REMARK  status: ('A' for Active; 'I' for Inactive)
REMARK    1  A    between atoms: N_4  and  C_5
REMARK    2  A    between atoms: N_4  and  C_10
REMARK    3  A    between atoms: C_5  and  C_6
REMARK    4  A    between atoms: C_6  and  C_8
REMARK    5  A    between atoms: C_13  and  C_14
REMARK    6  A    between atoms: N_16  and  C_17
REMARK    7  A    between atoms: C_17  and  C_18
REMARK    8  A    between atoms: C_18  and  C_20
REMARK    9  A    between atoms: C_24  and  C_25
REMARK   10  A    between atoms: N_27  and  C_28
REMARK   11  A    between atoms: C_28  and  C_29
REMARK   12  A    between atoms: C_29  and  C_31
REMARK                            x       y       z     vdW  Elec       q    Type
REMARK                         _______ _______ _______ _____ _____    ______ ____
ROOT
ATOM      1  C   UNL     1       0.626   6.393  -3.651  0.00  0.00    +0.065 A 
ATOM      2  C   UNL     1       1.302   6.374  -2.437  0.00  0.00    +0.049 A 
ATOM      3  I   UNL     1       0.231   6.414  -0.650  0.00  0.00    -0.041 I 
ATOM      4  C   UNL     1       2.670   6.613  -2.360  0.00  0.00    +0.067 A 
ATOM      5  C   UNL     1       3.379   6.301  -3.508  0.00  0.00    +0.040 A 
ATOM      6  I   UNL     1       5.425   6.798  -3.699  0.00  0.00    -0.042 I 
ATOM      7  C   UNL     1       2.734   5.953  -4.688  0.00  0.00    +0.067 A 
ATOM      8  C   UNL     1       1.368   6.179  -4.784  0.00  0.00    +0.049 A 
ATOM      9  I   UNL     1       0.623   6.632  -6.696  0.00  0.00    -0.041 I 
ENDROOT
BRANCH   1  12
ATOM     10  C   UNL     1      -1.519   7.807  -3.764  0.00  0.00    +0.095 C 
ATOM     11  C   UNL     1      -1.342   7.743  -3.848  0.00  0.00    +0.230 C 
ATOM     12  N   UNL     1      -0.796   6.488  -3.746  0.00  0.00    -0.255 N 
ATOM     13  O   UNL     1      -1.298   8.590  -4.670  0.00  0.00    -0.275 OA
BRANCH  12  14
ATOM     14  C   UNL     1      -1.425   5.429  -4.447  0.00  0.00    +0.134 C 
BRANCH  14  15
ATOM     15  C   UNL     1      -2.908   5.934  -4.965  0.00  0.00    +0.205 C 
ATOM     16  O   UNL     1      -2.930   5.098  -6.241  0.00  0.00    -0.218 OA
BRANCH  15  17
ATOM     17  C   UNL     1      -3.683   4.768  -4.085  0.00  0.00    +0.217 C 
ATOM     18  O   UNL     1      -2.904   4.669  -2.933  0.00  0.00    -0.218 OA
ENDBRANCH  15  17
ENDBRANCH  14  15
ENDBRANCH  12  14
ENDBRANCH   1  12
BRANCH   4  19
ATOM     19  C   UNL     1       3.231   7.517  -1.368  0.00  0.00    +0.266 C 
ATOM     20  N   UNL     1       3.921   6.946  -0.275  0.00  0.00    -0.199 NA
ATOM     21  O   UNL     1       3.661   8.630  -1.772  0.00  0.00    -0.268 OA
BRANCH  20  22
ATOM     22  C   UNL     1       4.962   7.481   0.490  0.00  0.00    +0.151 C 
BRANCH  22  23
ATOM     23  C   UNL     1       4.309   8.407   1.695  0.00  0.00    +0.206 C 
ATOM     24  O   UNL     1       3.189   7.434   2.050  0.00  0.00    -0.218 OA
BRANCH  23  25
ATOM     25  C   UNL     1       5.329   7.786   2.841  0.00  0.00    +0.217 C 
ATOM     26  O   UNL     1       4.624   6.718   3.377  0.00  0.00    -0.218 OA
ENDBRANCH  23  25
ENDBRANCH  22  23
ENDBRANCH  20  22
ENDBRANCH   4  19
BRANCH   7  27
ATOM     27  C   UNL     1       3.409   5.164  -5.723  0.00  0.00    +0.266 C 
ATOM     28  N   UNL     1       3.904   5.945  -6.822  0.00  0.00    -0.199 NA
ATOM     29  O   UNL     1       3.059   4.002  -6.037  0.00  0.00    -0.268 OA
BRANCH  28  30
ATOM     30  C   UNL     1       4.908   5.381  -7.723  0.00  0.00    +0.151 C 
BRANCH  30  31
ATOM     31  C   UNL     1       4.053   5.379  -9.137  0.00  0.00    +0.206 C 
ATOM     32  O   UNL     1       3.639   6.832  -8.957  0.00  0.00    -0.218 OA
BRANCH  31  33
ATOM     33  C   UNL     1       5.361   5.782 -10.061  0.00  0.00    +0.217 C 
ATOM     34  O   UNL     1       6.450   5.587  -9.240  0.00  0.00    -0.218 OA
ENDBRANCH  31  33
ENDBRANCH  30  31
ENDBRANCH  28  30
ENDBRANCH   7  27
TORSDOF 12
ENDMDL
MODEL 8
REMARK VINA RESULT:      -5.8      2.472      8.439
REMARK  Name = 
REMARK  12 active torsions:
REMARK  status: ('A' for Active; 'I' for Inactive)
REMARK    1  A    between atoms: N_4  and  C_5
REMARK    2  A    between atoms: N_4  and  C_10
REMARK    3  A    between atoms: C_5  and  C_6
REMARK    4  A    between atoms: C_6  and  C_8
REMARK    5  A    between atoms: C_13  and  C_14
REMARK    6  A    between atoms: N_16  and  C_17
REMARK    7  A    between atoms: C_17  and  C_18
REMARK    8  A    between atoms: C_18  and  C_20
REMARK    9  A    between atoms: C_24  and  C_25
REMARK   10  A    between atoms: N_27  and  C_28
REMARK   11  A    between atoms: C_28  and  C_29
REMARK   12  A    between atoms: C_29  and  C_31
REMARK                            x       y       z     vdW  Elec       q    Type
REMARK                         _______ _______ _______ _____ _____    ______ ____
ROOT
ATOM      1  C   UNL     1       2.300   6.338  -5.658  0.00  0.00    +0.065 A 
ATOM      2  C   UNL     1       3.071   6.756  -4.581  0.00  0.00    +0.049 A 
ATOM      3  I   UNL     1       4.987   7.510  -4.904  0.00  0.00    -0.041 I 
ATOM      4  C   UNL     1       2.731   6.434  -3.271  0.00  0.00    +0.067 A 
ATOM      5  C   UNL     1       1.380   6.210  -3.060  0.00  0.00    +0.040 A 
ATOM      6  I   UNL     1       0.668   5.483  -1.208  0.00  0.00    -0.042 I 
ATOM      7  C   UNL     1       0.483   6.139  -4.118  0.00  0.00    +0.067 A 
ATOM      8  C   UNL     1       0.989   6.027  -5.406  0.00  0.00    +0.049 A 
ATOM      9  I   UNL     1      -0.177   4.949  -6.782  0.00  0.00    -0.041 I 
ENDROOT
BRANCH   1  12
ATOM     10  C   UNL     1       2.298   7.354  -8.020  0.00  0.00    +0.095 C 
ATOM     11  C   UNL     1       2.341   7.368  -7.819  0.00  0.00    +0.230 C 
ATOM     12  N   UNL     1       2.775   6.352  -7.005  0.00  0.00    -0.255 N 
ATOM     13  O   UNL     1       2.501   8.538  -7.822  0.00  0.00    -0.275 OA
BRANCH  12  14
ATOM     14  C   UNL     1       4.098   5.874  -7.183  0.00  0.00    +0.134 C 
BRANCH  14  15
ATOM     15  C   UNL     1       4.321   5.490  -8.771  0.00  0.00    +0.205 C 
ATOM     16  O   UNL     1       5.709   4.881  -8.600  0.00  0.00    -0.218 OA
BRANCH  15  17
ATOM     17  C   UNL     1       3.565   4.031  -8.590  0.00  0.00    +0.217 C 
ATOM     18  O   UNL     1       2.460   4.138  -9.432  0.00  0.00    -0.218 OA
ENDBRANCH  15  17
ENDBRANCH  14  15
ENDBRANCH  12  14
ENDBRANCH   1  12
BRANCH   4  19
ATOM     19  C   UNL     1       3.719   5.931  -2.329  0.00  0.00    +0.266 C 
ATOM     20  N   UNL     1       4.201   6.822  -1.344  0.00  0.00    -0.199 NA
ATOM     21  O   UNL     1       3.632   4.722  -1.985  0.00  0.00    -0.268 OA
BRANCH  20  22
ATOM     22  C   UNL     1       4.687   6.544  -0.063  0.00  0.00    +0.151 C 
BRANCH  22  23
ATOM     23  C   UNL     1       4.375   7.843   0.912  0.00  0.00    +0.206 C 
ATOM     24  O   UNL     1       3.102   7.273   1.530  0.00  0.00    -0.218 OA
BRANCH  23  25
ATOM     25  C   UNL     1       5.329   7.262   2.134  0.00  0.00    +0.217 C 
ATOM     26  O   UNL     1       4.426   6.886   3.118  0.00  0.00    -0.218 OA
ENDBRANCH  23  25
ENDBRANCH  22  23
ENDBRANCH  20  22
ENDBRANCH   4  19
BRANCH   7  27
ATOM     27  C   UNL     1      -0.947   6.401  -3.925  0.00  0.00    +0.266 C 
ATOM     28  N   UNL     1      -1.730   5.219  -3.691  0.00  0.00    -0.199 NA
ATOM     29  O   UNL     1      -1.564   7.314  -4.522  0.00  0.00    -0.268 OA
BRANCH  28  30
ATOM     30  C   UNL     1      -3.068   5.335  -3.114  0.00  0.00    +0.151 C 
BRANCH  30  31
ATOM     31  C   UNL     1      -2.955   6.835  -2.430  0.00  0.00    +0.206 C 
ATOM     32  O   UNL     1      -4.463   6.936  -2.261  0.00  0.00    -0.218 OA
BRANCH  31  33
ATOM     33  C   UNL     1      -2.743   6.246  -0.901  0.00  0.00    +0.217 C 
ATOM     34  O   UNL     1      -2.432   7.347  -0.135  0.00  0.00    -0.218 OA
ENDBRANCH  31  33
ENDBRANCH  30  31
ENDBRANCH  28  30
ENDBRANCH   7  27
TORSDOF 12
ENDMDL
MODEL 9
REMARK VINA RESULT:      -5.7      5.099     11.963
REMARK  Name = 
REMARK  12 active torsions:
REMARK  status: ('A' for Active; 'I' for Inactive)
REMARK    1  A    between atoms: N_4  and  C_5
REMARK    2  A    between atoms: N_4  and  C_10
REMARK    3  A    between atoms: C_5  and  C_6
REMARK    4  A    between atoms: C_6  and  C_8
REMARK    5  A    between atoms: C_13  and  C_14
REMARK    6  A    between atoms: N_16  and  C_17
REMARK    7  A    between atoms: C_17  and  C_18
REMARK    8  A    between atoms: C_18  and  C_20
REMARK    9  A    between atoms: C_24  and  C_25
REMARK   10  A    between atoms: N_27  and  C_28
REMARK   11  A    between atoms: C_28  and  C_29
REMARK   12  A    between atoms: C_29  and  C_31
REMARK                            x       y       z     vdW  Elec       q    Type
REMARK                         _______ _______ _______ _____ _____    ______ ____
ROOT
ATOM      1  C   UNL     1       5.274   6.131 -12.150  0.00  0.00    +0.065 A 
ATOM      2  C   UNL     1       5.453   6.573 -10.846  0.00  0.00    +0.049 A 
ATOM      3  I   UNL     1       7.254   7.463 -10.289  0.00  0.00    -0.041 I 
ATOM      4  C   UNL     1       4.591   6.196  -9.822  0.00  0.00    +0.067 A 
ATOM      5  C   UNL     1       3.308   5.876 -10.232  0.00  0.00    +0.040 A 
ATOM      6  I   UNL     1       1.901   5.055  -8.884  0.00  0.00    -0.042 I 
ATOM      7  C   UNL     1       2.981   5.770 -11.578  0.00  0.00    +0.067 A 
ATOM      8  C   UNL     1       4.013   5.725 -12.505  0.00  0.00    +0.049 A 
ATOM      9  I   UNL     1       3.661   4.605 -14.247  0.00  0.00    -0.041 I 
ENDROOT
BRANCH   1  12
ATOM     10  C   UNL     1       7.646   5.570 -12.971  0.00  0.00    +0.095 C 
ATOM     11  C   UNL     1       7.455   5.511 -12.920  0.00  0.00    +0.230 C 
ATOM     12  N   UNL     1       6.295   6.211 -13.145  0.00  0.00    -0.255 N 
ATOM     13  O   UNL     1       7.714   4.361 -12.843  0.00  0.00    -0.275 OA
BRANCH  12  14
ATOM     14  C   UNL     1       5.830   6.318 -14.479  0.00  0.00    +0.134 C 
BRANCH  14  15
ATOM     15  C   UNL     1       6.433   7.700 -15.148  0.00  0.00    +0.205 C 
ATOM     16  O   UNL     1       7.346   7.010 -16.158  0.00  0.00    -0.218 OA
BRANCH  15  17
ATOM     17  C   UNL     1       5.181   7.803 -16.222  0.00  0.00    +0.217 C 
ATOM     18  O   UNL     1       5.097   9.170 -16.483  0.00  0.00    -0.218 OA
ENDBRANCH  15  17
ENDBRANCH  14  15
ENDBRANCH  12  14
ENDBRANCH   1  12
BRANCH   4  19
ATOM     19  C   UNL     1       5.091   5.738  -8.534  0.00  0.00    +0.266 C 
ATOM     20  N   UNL     1       4.531   6.311  -7.371  0.00  0.00    -0.199 NA
ATOM     21  O   UNL     1       5.441   4.531  -8.442  0.00  0.00    -0.268 OA
BRANCH  20  22
ATOM     22  C   UNL     1       4.392   5.760  -6.093  0.00  0.00    +0.151 C 
BRANCH  22  23
ATOM     23  C   UNL     1       3.600   6.848  -5.133  0.00  0.00    +0.206 C 
ATOM     24  O   UNL     1       2.921   7.599  -6.274  0.00  0.00    -0.218 OA
BRANCH  23  25
ATOM     25  C   UNL     1       2.305   5.841  -4.912  0.00  0.00    +0.217 C 
ATOM     26  O   UNL     1       1.204   6.646  -5.161  0.00  0.00    -0.218 OA
ENDBRANCH  23  25
ENDBRANCH  22  23
ENDBRANCH  20  22
ENDBRANCH   4  19
BRANCH   7  27
ATOM     27  C   UNL     1       1.599   5.929 -12.043  0.00  0.00    +0.266 C 
ATOM     28  N   UNL     1       1.386   7.102 -12.845  0.00  0.00    -0.199 NA
ATOM     29  O   UNL     1       0.604   5.584 -11.365  0.00  0.00    -0.268 OA
BRANCH  28  30
ATOM     30  C   UNL     1       0.192   7.204 -13.681  0.00  0.00    +0.151 C 
BRANCH  30  31
ATOM     31  C   UNL     1       0.867   6.966 -15.172  0.00  0.00    +0.206 C 
ATOM     32  O   UNL     1       0.345   5.538 -15.243  0.00  0.00    -0.218 OA
BRANCH  31  33
ATOM     33  C   UNL     1      -0.439   7.569 -15.984  0.00  0.00    +0.217 C 
ATOM     34  O   UNL     1      -0.834   6.553 -16.827  0.00  0.00    -0.218 OA
ENDBRANCH  31  33
ENDBRANCH  30  31
ENDBRANCH  28  30
ENDBRANCH   7  27
TORSDOF 12
ENDMDL
