MODEL 1
REMARK VINA RESULT:      -6.2      0.000      0.000
REMARK  Name = 
REMARK  0 active torsions:
REMARK  status: ('A' for Active; 'I' for Inactive)
REMARK                            x       y       z     vdW  Elec       q    Type
REMARK                         _______ _______ _______ _____ _____    ______ ____
ROOT
ATOM      1  C   UNL     1       2.690   6.888  -5.205  0.00  0.00    +0.006 C 
ATOM      2  C   UNL     1       2.141   6.919  -6.750  0.00  0.00    +0.039 C 
ATOM      3  C   UNL     1       0.806   6.110  -6.361  0.00  0.00    -0.024 A 
ATOM      4  C   UNL     1       0.009   5.659  -7.406  0.00  0.00    -0.025 A 
ATOM      5  C   UNL     1      -1.292   5.318  -7.054  0.00  0.00    -0.004 A 
ATOM      6  C   UNL     1      -1.872   5.930  -5.955  0.00  0.00    +0.011 A 
ATOM      7  C   UNL     1      -1.127   6.782  -5.178  0.00  0.00    +0.057 A 
ATOM      8 CL   UNL     1      -1.977   7.915  -4.140  0.00  0.00    -0.082 Cl
ATOM      9  C   UNL     1       0.308   5.484  -8.857  0.00  0.00    +0.045 C 
ATOM     10  C   UNL     1       1.585   4.816  -9.050  0.00  0.00    +0.093 C 
ATOM     11  N   UNL     1       2.773   5.302  -8.522  0.00  0.00    -0.217 NA
ATOM     12  C   UNL     1       0.217   6.900  -5.418  0.00  0.00    +0.007 A 
ATOM     13  C   UNL     1       2.916   5.527  -7.133  0.00  0.00    +0.093 C 
ENDROOT
TORSDOF 0
ENDMDL
MODEL 2
REMARK VINA RESULT:      -6.1      5.484      6.976
REMARK  Name = 
REMARK  0 active torsions:
REMARK  status: ('A' for Active; 'I' for Inactive)
REMARK                            x       y       z     vdW  Elec       q    Type
REMARK                         _______ _______ _______ _____ _____    ______ ____
ROOT
ATOM      1  C   UNL     1       7.485   5.738  -9.423  0.00  0.00    +0.006 C 
ATOM      2  C   UNL     1       7.300   6.441 -10.894  0.00  0.00    +0.039 C 
ATOM      3  C   UNL     1       5.820   5.834 -11.070  0.00  0.00    -0.024 A 
ATOM      4  C   UNL     1       5.224   5.967 -12.318  0.00  0.00    -0.025 A 
ATOM      5  C   UNL     1       3.845   5.792 -12.336  0.00  0.00    -0.004 A 
ATOM      6  C   UNL     1       3.119   6.065 -11.189  0.00  0.00    +0.011 A 
ATOM      7  C   UNL     1       3.775   6.404 -10.033  0.00  0.00    +0.057 A 
ATOM      8 CL   UNL     1       2.867   7.228  -8.775  0.00  0.00    -0.082 Cl
ATOM      9  C   UNL     1       5.812   6.277 -13.654  0.00  0.00    +0.045 C 
ATOM     10  C   UNL     1       7.005   5.482 -13.896  0.00  0.00    +0.093 C 
ATOM     11  N   UNL     1       8.098   5.490 -13.041  0.00  0.00    -0.217 NA
ATOM     12  C   UNL     1       5.142   6.327  -9.994  0.00  0.00    +0.007 A 
ATOM     13  C   UNL     1       7.958   5.159 -11.673  0.00  0.00    +0.093 C 
ENDROOT
TORSDOF 0
ENDMDL
MODEL 3
REMARK VINA RESULT:      -6.0      2.433      3.343
REMARK  Name = 
REMARK  0 active torsions:
REMARK  status: ('A' for Active; 'I' for Inactive)
REMARK                            x       y       z     vdW  Elec       q    Type
REMARK                         _______ _______ _______ _____ _____    ______ ____
ROOT
ATOM      1  C   UNL     1       1.500   5.740  -3.372  0.00  0.00    +0.006 C 
ATOM      2  C   UNL     1       0.511   6.327  -4.541  0.00  0.00    +0.039 C 
ATOM      3  C   UNL     1      -0.796   5.700  -3.841  0.00  0.00    -0.024 A 
ATOM      4  C   UNL     1      -1.982   5.734  -4.564  0.00  0.00    -0.025 A 
ATOM      5  C   UNL     1      -3.138   5.550  -3.813  0.00  0.00    -0.004 A 
ATOM      6  C   UNL     1      -3.132   5.906  -2.476  0.00  0.00    +0.011 A 
ATOM      7  C   UNL     1      -1.968   6.337  -1.890  0.00  0.00    +0.057 A 
ATOM      8 CL   UNL     1      -2.080   7.250  -0.394  0.00  0.00    -0.082 Cl
ATOM      9  C   UNL     1      -2.233   5.943  -6.020  0.00  0.00    +0.045 C 
ATOM     10  C   UNL     1      -1.330   5.138  -6.826  0.00  0.00    +0.093 C 
ATOM     11  N   UNL     1       0.051   5.217  -6.712  0.00  0.00    -0.217 NA
ATOM     12  C   UNL     1      -0.800   6.270  -2.602  0.00  0.00    +0.007 A 
ATOM     13  C   UNL     1       0.696   4.992  -5.473  0.00  0.00    +0.093 C 
ENDROOT
TORSDOF 0
ENDMDL
MODEL 4
REMARK VINA RESULT:      -5.9      3.289      5.354
REMARK  Name = 
REMARK  0 active torsions:
REMARK  status: ('A' for Active; 'I' for Inactive)
REMARK                            x       y       z     vdW  Elec       q    Type
REMARK                         _______ _______ _______ _____ _____    ______ ____
ROOT
ATOM      1  C   UNL     1      -2.509   5.759  -6.250  0.00  0.00    +0.006 C 
ATOM      2  C   UNL     1      -2.355   6.479  -4.784  0.00  0.00    +0.039 C 
ATOM      3  C   UNL     1      -0.858   5.922  -4.595  0.00  0.00    -0.024 A 
ATOM      4  C   UNL     1      -0.273   6.084  -3.345  0.00  0.00    -0.025 A 
ATOM      5  C   UNL     1       1.111   5.953  -3.318  0.00  0.00    -0.004 A 
ATOM      6  C   UNL     1       1.834   6.241  -4.463  0.00  0.00    +0.011 A 
ATOM      7  C   UNL     1       1.174   6.549  -5.626  0.00  0.00    +0.057 A 
ATOM      8 CL   UNL     1       2.063   7.392  -6.886  0.00  0.00    -0.082 Cl
ATOM      9  C   UNL     1      -0.878   6.386  -2.015  0.00  0.00    +0.045 C 
ATOM     10  C   UNL     1      -2.046   5.554  -1.773  0.00  0.00    +0.093 C 
ATOM     11  N   UNL     1      -3.134   5.520  -2.633  0.00  0.00    -0.217 NA
ATOM     12  C   UNL     1      -0.189   6.428  -5.671  0.00  0.00    +0.007 A 
ATOM     13  C   UNL     1      -2.976   5.183  -3.998  0.00  0.00    +0.093 C 
ENDROOT
TORSDOF 0
ENDMDL
MODEL 5
REMARK VINA RESULT:      -5.9      4.033      6.022
REMARK  Name = 
REMARK  0 active torsions:
REMARK  status: ('A' for Active; 'I' for Inactive)
REMARK                            x       y       z     vdW  Elec       q    Type
REMARK                         _______ _______ _______ _____ _____    ______ ____
ROOT
ATOM      1  C   UNL     1       1.685   6.538 -10.459  0.00  0.00    +0.006 C 
ATOM      2  C   UNL     1       2.230   6.698  -8.920  0.00  0.00    +0.039 C 
ATOM      3  C   UNL     1       3.605   5.935  -9.259  0.00  0.00    -0.024 A 
ATOM      4  C   UNL     1       4.423   5.595  -8.189  0.00  0.00    -0.025 A 
ATOM      5  C   UNL     1       5.741   5.299  -8.522  0.00  0.00    -0.004 A 
ATOM      6  C   UNL     1       6.289   5.868  -9.659  0.00  0.00    +0.011 A 
ATOM      7  C   UNL     1       5.501   6.627 -10.488  0.00  0.00    +0.057 A 
ATOM      8 CL   UNL     1       6.293   7.734 -11.599  0.00  0.00    -0.082 Cl
ATOM      9  C   UNL     1       4.133   5.499  -6.729  0.00  0.00    +0.045 C 
ATOM     10  C   UNL     1       2.892   4.780  -6.490  0.00  0.00    +0.093 C 
ATOM     11  N   UNL     1       1.681   5.169  -7.046  0.00  0.00    -0.217 NA
ATOM     12  C   UNL     1       4.154   6.691 -10.253  0.00  0.00    +0.007 A 
ATOM     13  C   UNL     1       1.527   5.295  -8.446  0.00  0.00    +0.093 C 
ENDROOT
TORSDOF 0
ENDMDL
MODEL 6
REMARK VINA RESULT:      -5.8      2.961      4.137
REMARK  Name = 
REMARK  0 active torsions:
REMARK  status: ('A' for Active; 'I' for Inactive)
REMARK                            x       y       z     vdW  Elec       q    Type
REMARK                         _______ _______ _______ _____ _____    ______ ____
ROOT
ATOM      1  C   UNL     1       2.324   5.646  -4.512  0.00  0.00    +0.006 C 
ATOM      2  C   UNL     1       0.872   4.997  -4.914  0.00  0.00    +0.039 C 
ATOM      3  C   UNL     1       0.960   5.569  -6.416  0.00  0.00    -0.024 A 
ATOM      4  C   UNL     1      -0.183   5.470  -7.201  0.00  0.00    -0.025 A 
ATOM      5  C   UNL     1       0.026   5.607  -8.569  0.00  0.00    -0.004 A 
ATOM      6  C   UNL     1       1.261   5.267  -9.096  0.00  0.00    +0.011 A 
ATOM      7  C   UNL     1       2.282   4.900  -8.256  0.00  0.00    +0.057 A 
ATOM      8 CL   UNL     1       3.631   4.001  -8.934  0.00  0.00    -0.082 Cl
ATOM      9  C   UNL     1      -1.607   5.231  -6.828  0.00  0.00    +0.045 C 
ATOM     10  C   UNL     1      -2.000   6.069  -5.706  0.00  0.00    +0.093 C 
ATOM     11  N   UNL     1      -1.331   6.057  -4.490  0.00  0.00    -0.217 NA
ATOM     12  C   UNL     1       2.106   5.014  -6.903  0.00  0.00    +0.007 A 
ATOM     13  C   UNL     1       0.055   6.328  -4.417  0.00  0.00    +0.093 C 
ENDROOT
TORSDOF 0
ENDMDL
MODEL 7
REMARK VINA RESULT:      -5.8      3.072      4.772
REMARK  Name = 
REMARK  0 active torsions:
REMARK  status: ('A' for Active; 'I' for Inactive)
REMARK                            x       y       z     vdW  Elec       q    Type
REMARK                         _______ _______ _______ _____ _____    ______ ____
ROOT
ATOM      1  C   UNL     1      -2.633   6.005  -6.355  0.00  0.00    +0.006 C 
ATOM      2  C   UNL     1      -1.483   6.492  -5.292  0.00  0.00    +0.039 C 
ATOM      3  C   UNL     1      -0.449   5.366  -5.794  0.00  0.00    -0.024 A 
ATOM      4  C   UNL     1       0.707   5.186  -5.045  0.00  0.00    -0.025 A 
ATOM      5  C   UNL     1       1.733   4.507  -5.694  0.00  0.00    -0.004 A 
ATOM      6  C   UNL     1       1.804   4.563  -7.076  0.00  0.00    +0.011 A 
ATOM      7  C   UNL     1       0.813   5.196  -7.784  0.00  0.00    +0.057 A 
ATOM      8 CL   UNL     1       1.163   5.700  -9.431  0.00  0.00    -0.082 Cl
ATOM      9  C   UNL     1       1.046   5.607  -3.655  0.00  0.00    +0.045 C 
ATOM     10  C   UNL     1      -0.041   5.301  -2.738  0.00  0.00    +0.093 C 
ATOM     11  N   UNL     1      -1.333   5.772  -2.923  0.00  0.00    -0.217 NA
ATOM     12  C   UNL     1      -0.301   5.638  -7.123  0.00  0.00    +0.007 A 
ATOM     13  C   UNL     1      -2.046   5.501  -4.114  0.00  0.00    +0.093 C 
ENDROOT
TORSDOF 0
ENDMDL
MODEL 8
REMARK VINA RESULT:      -5.8      4.314      5.727
REMARK  Name = 
REMARK  0 active torsions:
REMARK  status: ('A' for Active; 'I' for Inactive)
REMARK                            x       y       z     vdW  Elec       q    Type
REMARK                         _______ _______ _______ _____ _____    ______ ____
ROOT
ATOM      1  C   UNL     1       7.637   5.783  -9.718  0.00  0.00    +0.006 C 
ATOM      2  C   UNL     1       6.373   6.455 -10.519  0.00  0.00    +0.039 C 
ATOM      3  C   UNL     1       5.325   5.425  -9.863  0.00  0.00    -0.024 A 
ATOM      4  C   UNL     1       4.034   5.419 -10.377  0.00  0.00    -0.025 A 
ATOM      5  C   UNL     1       3.076   4.823  -9.564  0.00  0.00    -0.004 A 
ATOM      6  C   UNL     1       3.276   4.808  -8.194  0.00  0.00    +0.011 A 
ATOM      7  C   UNL     1       4.452   5.286  -7.671  0.00  0.00    +0.057 A 
ATOM      8 CL   UNL     1       4.485   5.732  -5.973  0.00  0.00    -0.082 Cl
ATOM      9  C   UNL     1       3.491   5.953 -11.660  0.00  0.00    +0.045 C 
ATOM     10  C   UNL     1       4.338   5.579 -12.781  0.00  0.00    +0.093 C 
ATOM     11  N   UNL     1       5.689   5.892 -12.836  0.00  0.00    -0.217 NA
ATOM     12  C   UNL     1       5.466   5.636  -8.523  0.00  0.00    +0.007 A 
ATOM     13  C   UNL     1       6.577   5.476 -11.817  0.00  0.00    +0.093 C 
ENDROOT
TORSDOF 0
ENDMDL
MODEL 9
REMARK VINA RESULT:      -5.7      3.601      5.058
REMARK  Name = 
REMARK  0 active torsions:
REMARK  status: ('A' for Active; 'I' for Inactive)
REMARK                            x       y       z     vdW  Elec       q    Type
REMARK                         _______ _______ _______ _____ _____    ______ ____
ROOT
ATOM      1  C   UNL     1       1.832   5.823  -3.494  0.00  0.00    +0.006 C 
ATOM      2  C   UNL     1       0.505   5.150  -2.803  0.00  0.00    +0.039 C 
ATOM      3  C   UNL     1      -0.492   6.049  -3.690  0.00  0.00    -0.024 A 
ATOM      4  C   UNL     1      -1.840   6.022  -3.353  0.00  0.00    -0.025 A 
ATOM      5  C   UNL     1      -2.706   6.480  -4.341  0.00  0.00    -0.004 A 
ATOM      6  C   UNL     1      -2.321   6.382  -5.667  0.00  0.00    +0.011 A 
ATOM      7  C   UNL     1      -1.063   5.932  -5.980  0.00  0.00    +0.057 A 
ATOM      8 CL   UNL     1      -0.777   5.336  -7.608  0.00  0.00    -0.082 Cl
ATOM      9  C   UNL     1      -2.527   5.576  -2.107  0.00  0.00    +0.045 C 
ATOM     10  C   UNL     1      -1.860   6.102  -0.926  0.00  0.00    +0.093 C 
ATOM     11  N   UNL     1      -0.516   5.880  -0.663  0.00  0.00    -0.217 NA
ATOM     12  C   UNL     1      -0.159   5.725  -4.972  0.00  0.00    +0.007 A 
ATOM     13  C   UNL     1       0.482   6.255  -1.593  0.00  0.00    +0.093 C 
ENDROOT
TORSDOF 0
ENDMDL
