MODEL 1
REMARK VINA RESULT:      -7.5      0.000      0.000
REMARK  Name = 
REMARK  6 active torsions:
REMARK  status: ('A' for Active; 'I' for Inactive)
REMARK    1  A    between atoms: C_5  and  C_6
REMARK    2  A    between atoms: C_6  and  O_7
REMARK    3  A    between atoms: O_7  and  N_8
REMARK    4  A    between atoms: C_9  and  C_10
REMARK    5  A    between atoms: C_9  and  C_16
REMARK    6  A    between atoms: C_10  and  N_11
REMARK                            x       y       z     vdW  Elec       q    Type
REMARK                         _______ _______ _______ _____ _____    ______ ____
ROOT
ATOM      1  N   UNL     1       4.036   6.211  -5.582  0.00  0.00    -0.085 NA
ATOM      2  C   UNL     1       3.430   5.449  -4.750  0.00  0.00    +0.121 C 
ENDROOT
BRANCH   2   3
ATOM      3  C   UNL     1       1.962   5.424  -4.789  0.00  0.00    +0.029 A 
ATOM      4  C   UNL     1       1.264   4.629  -5.687  0.00  0.00    +0.060 A 
ATOM      5 CL   UNL     1       2.236   3.514  -6.638  0.00  0.00    -0.082 Cl
ATOM      6  C   UNL     1      -0.106   4.749  -5.872  0.00  0.00    +0.023 A 
ATOM      7  C   UNL     1      -0.739   5.892  -5.443  0.00  0.00    +0.059 A 
ATOM      8 CL   UNL     1      -2.228   6.486  -6.124  0.00  0.00    -0.082 Cl
ATOM      9  C   UNL     1      -0.105   6.597  -4.428  0.00  0.00    +0.011 A 
ATOM     10  C   UNL     1       1.250   6.435  -4.166  0.00  0.00    +0.003 A 
ENDBRANCH   2   3
BRANCH   1  11
ATOM     11  O   UNL     1       3.431   6.876  -6.617  0.00  0.00    -0.373 OA
BRANCH  11  12
ATOM     12  C   UNL     1       3.811   6.526  -7.923  0.00  0.00    +0.266 C 
BRANCH  12  18
ATOM     13 CL   UNL     1      -0.061   4.088 -10.949  0.00  0.00    -0.082 Cl
ATOM     14  C   UNL     1       0.754   5.592 -10.527  0.00  0.00    +0.058 A 
ATOM     15  C   UNL     1       2.000   5.907 -11.059  0.00  0.00    +0.023 A 
ATOM     16  C   UNL     1       2.963   6.516 -10.262  0.00  0.00    +0.058 A 
ATOM     17 CL   UNL     1       4.578   6.864 -10.871  0.00  0.00    -0.082 Cl
ATOM     18  C   UNL     1       2.732   6.805  -8.922  0.00  0.00    +0.035 A 
ATOM     19  C   UNL     1       1.395   6.840  -8.547  0.00  0.00    +0.001 A 
ATOM     20  C   UNL     1       0.420   6.301  -9.378  0.00  0.00    +0.011 A 
ENDBRANCH  12  18
ENDBRANCH  11  12
ENDBRANCH   1  11
BRANCH   2  21
ATOM     21  C   UNL     1       4.165   4.660  -3.723  0.00  0.00    +0.157 C 
BRANCH  21  22
ATOM     22  N   UNL     1       4.205   5.326  -2.449  0.00  0.00    -0.302 N 
ATOM     23  C   UNL     1       3.650   4.849  -1.315  0.00  0.00    +0.179 A 
ATOM     24  N   UNL     1       3.783   5.749  -0.315  0.00  0.00    -0.222 NA
ATOM     25  C   UNL     1       4.173   6.901  -0.893  0.00  0.00    +0.119 A 
ATOM     26  C   UNL     1       4.354   6.637  -2.244  0.00  0.00    +0.098 A 
ENDBRANCH  21  22
ENDBRANCH   2  21
TORSDOF 6
ENDMDL
MODEL 2
REMARK VINA RESULT:      -7.4      2.650      4.556
REMARK  Name = 
REMARK  6 active torsions:
REMARK  status: ('A' for Active; 'I' for Inactive)
REMARK    1  A    between atoms: C_5  and  C_6
REMARK    2  A    between atoms: C_6  and  O_7
REMARK    3  A    between atoms: O_7  and  N_8
REMARK    4  A    between atoms: C_9  and  C_10
REMARK    5  A    between atoms: C_9  and  C_16
REMARK    6  A    between atoms: C_10  and  N_11
REMARK                            x       y       z     vdW  Elec       q    Type
REMARK                         _______ _______ _______ _____ _____    ______ ____
ROOT
ATOM      1  N   UNL     1       0.873   6.637  -7.180  0.00  0.00    -0.085 NA
ATOM      2  C   UNL     1       0.706   6.070  -6.044  0.00  0.00    +0.121 C 
ENDROOT
BRANCH   2   3
ATOM      3  C   UNL     1       1.879   5.925  -5.173  0.00  0.00    +0.029 A 
ATOM      4  C   UNL     1       2.635   4.763  -5.146  0.00  0.00    +0.060 A 
ATOM      5 CL   UNL     1       2.223   3.552  -6.353  0.00  0.00    -0.082 Cl
ATOM      6  C   UNL     1       3.614   4.537  -4.188  0.00  0.00    +0.023 A 
ATOM      7  C   UNL     1       3.606   5.292  -3.038  0.00  0.00    +0.059 A 
ATOM      8 CL   UNL     1       4.292   4.760  -1.528  0.00  0.00    -0.082 Cl
ATOM      9  C   UNL     1       2.980   6.529  -3.122  0.00  0.00    +0.011 A 
ATOM     10  C   UNL     1       2.057   6.810  -4.122  0.00  0.00    +0.003 A 
ENDBRANCH   2   3
BRANCH   1  11
ATOM     11  O   UNL     1       2.022   7.269  -7.576  0.00  0.00    -0.373 OA
BRANCH  11  12
ATOM     12  C   UNL     1       2.356   7.214  -8.939  0.00  0.00    +0.266 C 
BRANCH  12  18
ATOM     13 CL   UNL     1       7.665   6.472 -10.106  0.00  0.00    -0.082 Cl
ATOM     14  C   UNL     1       6.086   5.725  -9.873  0.00  0.00    +0.058 A 
ATOM     15  C   UNL     1       5.121   5.760 -10.873  0.00  0.00    +0.023 A 
ATOM     16  C   UNL     1       3.785   5.960 -10.545  0.00  0.00    +0.058 A 
ATOM     17 CL   UNL     1       2.539   6.087 -11.784  0.00  0.00    -0.082 Cl
ATOM     18  C   UNL     1       3.372   6.154  -9.232  0.00  0.00    +0.035 A 
ATOM     19  C   UNL     1       4.272   5.731  -8.262  0.00  0.00    +0.001 A 
ATOM     20  C   UNL     1       5.592   5.455  -8.602  0.00  0.00    +0.011 A 
ENDBRANCH  12  18
ENDBRANCH  11  12
ENDBRANCH   1  11
BRANCH   2  21
ATOM     21  C   UNL     1      -0.609   5.507  -5.629  0.00  0.00    +0.157 C 
BRANCH  21  22
ATOM     22  N   UNL     1      -1.285   6.346  -4.676  0.00  0.00    -0.302 N 
ATOM     23  C   UNL     1      -1.437   7.682  -4.801  0.00  0.00    +0.179 A 
ATOM     24  N   UNL     1      -2.035   8.189  -3.700  0.00  0.00    -0.222 NA
ATOM     25  C   UNL     1      -2.005   7.215  -2.771  0.00  0.00    +0.119 A 
ATOM     26  C   UNL     1      -1.457   6.093  -3.377  0.00  0.00    +0.098 A 
ENDBRANCH  21  22
ENDBRANCH   2  21
TORSDOF 6
ENDMDL
MODEL 3
REMARK VINA RESULT:      -7.4      2.862      7.098
REMARK  Name = 
REMARK  6 active torsions:
REMARK  status: ('A' for Active; 'I' for Inactive)
REMARK    1  A    between atoms: C_5  and  C_6
REMARK    2  A    between atoms: C_6  and  O_7
REMARK    3  A    between atoms: O_7  and  N_8
REMARK    4  A    between atoms: C_9  and  C_10
REMARK    5  A    between atoms: C_9  and  C_16
REMARK    6  A    between atoms: C_10  and  N_11
REMARK                            x       y       z     vdW  Elec       q    Type
REMARK                         _______ _______ _______ _____ _____    ______ ____
ROOT
ATOM      1  N   UNL     1       2.988   6.693  -5.305  0.00  0.00    -0.085 NA
ATOM      2  C   UNL     1       2.891   5.868  -6.281  0.00  0.00    +0.121 C 
ENDROOT
BRANCH   2   3
ATOM      3  C   UNL     1       3.761   6.081  -7.445  0.00  0.00    +0.029 A 
ATOM      4  C   UNL     1       3.332   6.775  -8.566  0.00  0.00    +0.060 A 
ATOM      5 CL   UNL     1       1.758   7.547  -8.432  0.00  0.00    -0.082 Cl
ATOM      6  C   UNL     1       4.065   6.806  -9.744  0.00  0.00    +0.023 A 
ATOM      7  C   UNL     1       5.044   5.860  -9.944  0.00  0.00    +0.059 A 
ATOM      8 CL   UNL     1       5.589   5.351 -11.518  0.00  0.00    -0.082 Cl
ATOM      9  C   UNL     1       5.581   5.285  -8.799  0.00  0.00    +0.011 A 
ATOM     10  C   UNL     1       4.905   5.312  -7.586  0.00  0.00    +0.003 A 
ENDBRANCH   2   3
BRANCH   1  11
ATOM     11  O   UNL     1       3.955   7.656  -5.190  0.00  0.00    -0.373 OA
BRANCH  11  12
ATOM     12  C   UNL     1       4.826   7.573  -4.091  0.00  0.00    +0.266 C 
BRANCH  12  18
ATOM     13 CL   UNL     1       5.523   7.657   1.350  0.00  0.00    -0.082 Cl
ATOM     14  C   UNL     1       4.408   7.407   0.008  0.00  0.00    +0.058 A 
ATOM     15  C   UNL     1       4.399   6.213  -0.705  0.00  0.00    +0.023 A 
ATOM     16  C   UNL     1       4.230   6.227  -2.085  0.00  0.00    +0.058 A 
ATOM     17 CL   UNL     1       4.288   4.746  -3.036  0.00  0.00    -0.082 Cl
ATOM     18  C   UNL     1       4.092   7.413  -2.796  0.00  0.00    +0.035 A 
ATOM     19  C   UNL     1       3.720   8.516  -2.038  0.00  0.00    +0.001 A 
ATOM     20  C   UNL     1       3.815   8.478  -0.651  0.00  0.00    +0.011 A 
ENDBRANCH  12  18
ENDBRANCH  11  12
ENDBRANCH   1  11
BRANCH   2  21
ATOM     21  C   UNL     1       1.890   4.766  -6.285  0.00  0.00    +0.157 C 
BRANCH  21  22
ATOM     22  N   UNL     1       0.552   5.243  -6.060  0.00  0.00    -0.302 N 
ATOM     23  C   UNL     1      -0.046   5.310  -4.852  0.00  0.00    +0.179 A 
ATOM     24  N   UNL     1      -1.329   5.715  -4.987  0.00  0.00    -0.222 NA
ATOM     25  C   UNL     1      -1.614   5.633  -6.300  0.00  0.00    +0.119 A 
ATOM     26  C   UNL     1      -0.445   5.257  -6.947  0.00  0.00    +0.098 A 
ENDBRANCH  21  22
ENDBRANCH   2  21
TORSDOF 6
ENDMDL
MODEL 4
REMARK VINA RESULT:      -7.4      2.902      5.548
REMARK  Name = 
REMARK  6 active torsions:
REMARK  status: ('A' for Active; 'I' for Inactive)
REMARK    1  A    between atoms: C_5  and  C_6
REMARK    2  A    between atoms: C_6  and  O_7
REMARK    3  A    between atoms: O_7  and  N_8
REMARK    4  A    between atoms: C_9  and  C_10
REMARK    5  A    between atoms: C_9  and  C_16
REMARK    6  A    between atoms: C_10  and  N_11
REMARK                            x       y       z     vdW  Elec       q    Type
REMARK                         _______ _______ _______ _____ _____    ______ ____
ROOT
ATOM      1  N   UNL     1       1.325   5.681  -8.937  0.00  0.00    -0.085 NA
ATOM      2  C   UNL     1       2.296   6.478  -8.689  0.00  0.00    +0.121 C 
ENDROOT
BRANCH   2   3
ATOM      3  C   UNL     1       3.561   6.258  -9.402  0.00  0.00    +0.029 A 
ATOM      4  C   UNL     1       4.616   5.563  -8.830  0.00  0.00    +0.060 A 
ATOM      5 CL   UNL     1       4.280   4.798  -7.283  0.00  0.00    -0.082 Cl
ATOM      6  C   UNL     1       5.877   5.525  -9.407  0.00  0.00    +0.023 A 
ATOM      7  C   UNL     1       6.204   6.466 -10.357  0.00  0.00    +0.059 A 
ATOM      8 CL   UNL     1       7.836   6.968 -10.698  0.00  0.00    -0.082 Cl
ATOM      9  C   UNL     1       5.139   7.042 -11.038  0.00  0.00    +0.011 A 
ATOM     10  C   UNL     1       3.849   7.021 -10.522  0.00  0.00    +0.003 A 
ENDBRANCH   2   3
BRANCH   1  11
ATOM     11  O   UNL     1       1.319   4.744  -9.938  0.00  0.00    -0.373 OA
BRANCH  11  12
ATOM     12  C   UNL     1       0.130   4.582 -10.667  0.00  0.00    +0.266 C 
BRANCH  12  18
ATOM     13 CL   UNL     1       3.836   6.074 -14.427  0.00  0.00    -0.082 Cl
ATOM     14  C   UNL     1       2.130   5.857 -14.040  0.00  0.00    +0.058 A 
ATOM     15  C   UNL     1       1.440   6.800 -13.287  0.00  0.00    +0.023 A 
ATOM     16  C   UNL     1       0.514   6.388 -12.335  0.00  0.00    +0.058 A 
ATOM     17 CL   UNL     1      -0.328   7.545 -11.308  0.00  0.00    -0.082 Cl
ATOM     18  C   UNL     1       0.266   5.044 -12.085  0.00  0.00    +0.035 A 
ATOM     19  C   UNL     1       0.663   4.173 -13.091  0.00  0.00    +0.001 A 
ATOM     20  C   UNL     1       1.529   4.604 -14.090  0.00  0.00    +0.011 A 
ENDBRANCH  12  18
ENDBRANCH  11  12
ENDBRANCH   1  11
BRANCH   2  21
ATOM     21  C   UNL     1       2.191   7.555  -7.666  0.00  0.00    +0.157 C 
BRANCH  21  22
ATOM     22  N   UNL     1       1.871   7.039  -6.363  0.00  0.00    -0.302 N 
ATOM     23  C   UNL     1       0.623   6.965  -5.850  0.00  0.00    +0.179 A 
ATOM     24  N   UNL     1       0.667   6.520  -4.575  0.00  0.00    -0.222 NA
ATOM     25  C   UNL     1       1.958   6.580  -4.198  0.00  0.00    +0.119 A 
ATOM     26  C   UNL     1       2.687   6.985  -5.308  0.00  0.00    +0.098 A 
ENDBRANCH  21  22
ENDBRANCH   2  21
TORSDOF 6
ENDMDL
MODEL 5
REMARK VINA RESULT:      -7.3      3.034      6.029
REMARK  Name = 
REMARK  6 active torsions:
REMARK  status: ('A' for Active; 'I' for Inactive)
REMARK    1  A    between atoms: C_5  and  C_6
REMARK    2  A    between atoms: C_6  and  O_7
REMARK    3  A    between atoms: O_7  and  N_8
REMARK    4  A    between atoms: C_9  and  C_10
REMARK    5  A    between atoms: C_9  and  C_16
REMARK    6  A    between atoms: C_10  and  N_11
REMARK                            x       y       z     vdW  Elec       q    Type
REMARK                         _______ _______ _______ _____ _____    ______ ____
ROOT
ATOM      1  N   UNL     1       1.759   5.527  -4.343  0.00  0.00    -0.085 NA
ATOM      2  C   UNL     1       0.805   6.044  -5.024  0.00  0.00    +0.121 C 
ENDROOT
BRANCH   2   3
ATOM      3  C   UNL     1       0.803   5.822  -6.476  0.00  0.00    +0.029 A 
ATOM      4  C   UNL     1       1.656   6.510  -7.326  0.00  0.00    +0.060 A 
ATOM      5 CL   UNL     1       2.868   7.517  -6.545  0.00  0.00    -0.082 Cl
ATOM      6  C   UNL     1       1.524   6.462  -8.706  0.00  0.00    +0.023 A 
ATOM      7  C   UNL     1       0.335   6.029  -9.247  0.00  0.00    +0.059 A 
ATOM      8 CL   UNL     1      -0.229   6.486 -10.830  0.00  0.00    -0.082 Cl
ATOM      9  C   UNL     1      -0.440   5.206  -8.440  0.00  0.00    +0.011 A 
ATOM     10  C   UNL     1      -0.272   5.173  -7.061  0.00  0.00    +0.003 A 
ENDBRANCH   2   3
BRANCH   1  11
ATOM     11  O   UNL     1       2.682   4.643  -4.838  0.00  0.00    -0.373 OA
BRANCH  11  12
ATOM     12  C   UNL     1       4.038   4.990  -4.722  0.00  0.00    +0.266 C 
BRANCH  12  18
ATOM     13 CL   UNL     1       2.009   7.290  -0.174  0.00  0.00    -0.082 Cl
ATOM     14  C   UNL     1       3.418   6.603  -0.978  0.00  0.00    +0.058 A 
ATOM     15  C   UNL     1       4.148   7.343  -1.902  0.00  0.00    +0.023 A 
ATOM     16  C   UNL     1       4.640   6.732  -3.050  0.00  0.00    +0.058 A 
ATOM     17 CL   UNL     1       5.505   7.646  -4.283  0.00  0.00    -0.082 Cl
ATOM     18  C   UNL     1       4.405   5.391  -3.327  0.00  0.00    +0.035 A 
ATOM     19  C   UNL     1       4.030   4.619  -2.234  0.00  0.00    +0.001 A 
ATOM     20  C   UNL     1       3.610   5.228  -1.057  0.00  0.00    +0.011 A 
ENDBRANCH  12  18
ENDBRANCH  11  12
ENDBRANCH   1  11
BRANCH   2  21
ATOM     21  C   UNL     1      -0.237   6.902  -4.396  0.00  0.00    +0.157 C 
BRANCH  21  22
ATOM     22  N   UNL     1      -0.990   6.199  -3.392  0.00  0.00    -0.302 N 
ATOM     23  C   UNL     1      -2.078   5.439  -3.640  0.00  0.00    +0.179 A 
ATOM     24  N   UNL     1      -2.608   4.990  -2.480  0.00  0.00    -0.222 NA
ATOM     25  C   UNL     1      -2.019   5.697  -1.497  0.00  0.00    +0.119 A 
ATOM     26  C   UNL     1      -1.064   6.508  -2.096  0.00  0.00    +0.098 A 
ENDBRANCH  21  22
ENDBRANCH   2  21
TORSDOF 6
ENDMDL
MODEL 6
REMARK VINA RESULT:      -7.3      2.139      2.741
REMARK  Name = 
REMARK  6 active torsions:
REMARK  status: ('A' for Active; 'I' for Inactive)
REMARK    1  A    between atoms: C_5  and  C_6
REMARK    2  A    between atoms: C_6  and  O_7
REMARK    3  A    between atoms: O_7  and  N_8
REMARK    4  A    between atoms: C_9  and  C_10
REMARK    5  A    between atoms: C_9  and  C_16
REMARK    6  A    between atoms: C_10  and  N_11
REMARK                            x       y       z     vdW  Elec       q    Type
REMARK                         _______ _______ _______ _____ _____    ______ ____
ROOT
ATOM      1  N   UNL     1       4.711   5.919  -6.550  0.00  0.00    -0.085 NA
ATOM      2  C   UNL     1       3.670   6.254  -5.883  0.00  0.00    +0.121 C 
ENDROOT
BRANCH   2   3
ATOM      3  C   UNL     1       2.367   5.777  -6.362  0.00  0.00    +0.029 A 
ATOM      4  C   UNL     1       1.579   6.529  -7.221  0.00  0.00    +0.060 A 
ATOM      5 CL   UNL     1       2.316   7.995  -7.850  0.00  0.00    -0.082 Cl
ATOM      6  C   UNL     1       0.267   6.184  -7.515  0.00  0.00    +0.023 A 
ATOM      7  C   UNL     1      -0.392   5.303  -6.689  0.00  0.00    +0.059 A 
ATOM      8 CL   UNL     1      -2.124   5.253  -6.514  0.00  0.00    -0.082 Cl
ATOM      9  C   UNL     1       0.410   4.442  -5.950  0.00  0.00    +0.011 A 
ATOM     10  C   UNL     1       1.749   4.723  -5.709  0.00  0.00    +0.003 A 
ENDBRANCH   2   3
BRANCH   1  11
ATOM     11  O   UNL     1       4.721   5.012  -7.578  0.00  0.00    -0.373 OA
BRANCH  11  12
ATOM     12  C   UNL     1       5.656   5.209  -8.607  0.00  0.00    +0.266 C 
BRANCH  12  18
ATOM     13 CL   UNL     1       4.081   4.810 -13.847  0.00  0.00    -0.082 Cl
ATOM     14  C   UNL     1       4.306   5.859 -12.449  0.00  0.00    +0.058 A 
ATOM     15  C   UNL     1       5.566   6.334 -12.103  0.00  0.00    +0.023 A 
ATOM     16  C   UNL     1       5.938   6.413 -10.766  0.00  0.00    +0.058 A 
ATOM     17 CL   UNL     1       7.550   6.938 -10.287  0.00  0.00    -0.082 Cl
ATOM     18  C   UNL     1       5.092   6.004  -9.743  0.00  0.00    +0.035 A 
ATOM     19  C   UNL     1       3.749   5.914 -10.087  0.00  0.00    +0.001 A 
ATOM     20  C   UNL     1       3.367   5.913 -11.424  0.00  0.00    +0.011 A 
ENDBRANCH  12  18
ENDBRANCH  11  12
ENDBRANCH   1  11
BRANCH   2  21
ATOM     21  C   UNL     1       3.749   7.154  -4.699  0.00  0.00    +0.157 C 
BRANCH  21  22
ATOM     22  N   UNL     1       3.667   6.430  -3.458  0.00  0.00    -0.302 N 
ATOM     23  C   UNL     1       4.367   5.311  -3.174  0.00  0.00    +0.179 A 
ATOM     24  N   UNL     1       4.001   4.825  -1.968  0.00  0.00    -0.222 NA
ATOM     25  C   UNL     1       2.876   5.480  -1.621  0.00  0.00    +0.119 A 
ATOM     26  C   UNL     1       2.638   6.427  -2.608  0.00  0.00    +0.098 A 
ENDBRANCH  21  22
ENDBRANCH   2  21
TORSDOF 6
ENDMDL
MODEL 7
REMARK VINA RESULT:      -7.3      2.854      5.022
REMARK  Name = 
REMARK  6 active torsions:
REMARK  status: ('A' for Active; 'I' for Inactive)
REMARK    1  A    between atoms: C_5  and  C_6
REMARK    2  A    between atoms: C_6  and  O_7
REMARK    3  A    between atoms: O_7  and  N_8
REMARK    4  A    between atoms: C_9  and  C_10
REMARK    5  A    between atoms: C_9  and  C_16
REMARK    6  A    between atoms: C_10  and  N_11
REMARK                            x       y       z     vdW  Elec       q    Type
REMARK                         _______ _______ _______ _____ _____    ______ ____
ROOT
ATOM      1  N   UNL     1       3.338   6.933  -8.366  0.00  0.00    -0.085 NA
ATOM      2  C   UNL     1       2.150   6.535  -8.100  0.00  0.00    +0.121 C 
ENDROOT
BRANCH   2   3
ATOM      3  C   UNL     1       1.358   5.963  -9.196  0.00  0.00    +0.029 A 
ATOM      4  C   UNL     1       1.488   4.637  -9.582  0.00  0.00    +0.060 A 
ATOM      5 CL   UNL     1       2.511   3.638  -8.559  0.00  0.00    -0.082 Cl
ATOM      6  C   UNL     1       0.903   4.142 -10.739  0.00  0.00    +0.023 A 
ATOM      7  C   UNL     1       0.489   5.027 -11.708  0.00  0.00    +0.059 A 
ATOM      8 CL   UNL     1       0.347   4.616 -13.395  0.00  0.00    -0.082 Cl
ATOM      9  C   UNL     1       0.208   6.317 -11.278  0.00  0.00    +0.011 A 
ATOM     10  C   UNL     1       0.714   6.811 -10.082  0.00  0.00    +0.003 A 
ENDBRANCH   2   3
BRANCH   1  11
ATOM     11  O   UNL     1       3.988   6.712  -9.551  0.00  0.00    -0.373 OA
BRANCH  11  12
ATOM     12  C   UNL     1       5.206   6.014  -9.503  0.00  0.00    +0.266 C 
BRANCH  12  18
ATOM     13 CL   UNL     1       7.052   5.753 -14.662  0.00  0.00    -0.082 Cl
ATOM     14  C   UNL     1       7.240   6.465 -13.061  0.00  0.00    +0.058 A 
ATOM     15  C   UNL     1       7.859   5.765 -12.032  0.00  0.00    +0.023 A 
ATOM     16  C   UNL     1       7.360   5.845 -10.737  0.00  0.00    +0.058 A 
ATOM     17 CL   UNL     1       8.066   4.915  -9.418  0.00  0.00    -0.082 Cl
ATOM     18  C   UNL     1       6.229   6.592 -10.430  0.00  0.00    +0.035 A 
ATOM     19  C   UNL     1       5.887   7.558 -11.368  0.00  0.00    +0.001 A 
ATOM     20  C   UNL     1       6.445   7.526 -12.642  0.00  0.00    +0.011 A 
ENDBRANCH  12  18
ENDBRANCH  11  12
ENDBRANCH   1  11
BRANCH   2  21
ATOM     21  C   UNL     1       1.547   6.701  -6.749  0.00  0.00    +0.157 C 
BRANCH  21  22
ATOM     22  N   UNL     1       2.426   6.258  -5.701  0.00  0.00    -0.302 N 
ATOM     23  C   UNL     1       2.649   4.966  -5.378  0.00  0.00    +0.179 A 
ATOM     24  N   UNL     1       3.453   4.885  -4.295  0.00  0.00    -0.222 NA
ATOM     25  C   UNL     1       3.508   6.125  -3.772  0.00  0.00    +0.119 A 
ATOM     26  C   UNL     1       2.791   6.956  -4.623  0.00  0.00    +0.098 A 
ENDBRANCH  21  22
ENDBRANCH   2  21
TORSDOF 6
ENDMDL
MODEL 8
REMARK VINA RESULT:      -7.3      2.051      2.405
REMARK  Name = 
REMARK  6 active torsions:
REMARK  status: ('A' for Active; 'I' for Inactive)
REMARK    1  A    between atoms: C_5  and  C_6
REMARK    2  A    between atoms: C_6  and  O_7
REMARK    3  A    between atoms: O_7  and  N_8
REMARK    4  A    between atoms: C_9  and  C_10
REMARK    5  A    between atoms: C_9  and  C_16
REMARK    6  A    between atoms: C_10  and  N_11
REMARK                            x       y       z     vdW  Elec       q    Type
REMARK                         _______ _______ _______ _____ _____    ______ ____
ROOT
ATOM      1  N   UNL     1       2.879   4.194  -6.482  0.00  0.00    -0.085 NA
ATOM      2  C   UNL     1       2.564   4.773  -5.384  0.00  0.00    +0.121 C 
ENDROOT
BRANCH   2   3
ATOM      3  C   UNL     1       1.249   5.423  -5.307  0.00  0.00    +0.029 A 
ATOM      4  C   UNL     1       1.006   6.660  -5.886  0.00  0.00    +0.060 A 
ATOM      5 CL   UNL     1       2.304   7.310  -6.878  0.00  0.00    -0.082 Cl
ATOM      6  C   UNL     1      -0.161   7.373  -5.647  0.00  0.00    +0.023 A 
ATOM      7  C   UNL     1      -0.933   7.041  -4.557  0.00  0.00    +0.059 A 
ATOM      8 CL   UNL     1      -2.006   8.156  -3.759  0.00  0.00    -0.082 Cl
ATOM      9  C   UNL     1      -0.796   5.743  -4.083  0.00  0.00    +0.011 A 
ATOM     10  C   UNL     1       0.326   4.976  -4.377  0.00  0.00    +0.003 A 
ENDBRANCH   2   3
BRANCH   1  11
ATOM     11  O   UNL     1       2.022   3.987  -7.531  0.00  0.00    -0.373 OA
BRANCH  11  12
ATOM     12  C   UNL     1       2.551   4.074  -8.829  0.00  0.00    +0.266 C 
BRANCH  12  18
ATOM     13 CL   UNL     1       0.782   4.702 -13.984  0.00  0.00    -0.082 Cl
ATOM     14  C   UNL     1       0.850   5.371 -12.355  0.00  0.00    +0.058 A 
ATOM     15  C   UNL     1       1.989   6.022 -11.893  0.00  0.00    +0.023 A 
ATOM     16  C   UNL     1       2.416   5.833 -10.584  0.00  0.00    +0.058 A 
ATOM     17 CL   UNL     1       3.894   6.578  -9.980  0.00  0.00    -0.082 Cl
ATOM     18  C   UNL     1       1.751   4.984  -9.709  0.00  0.00    +0.035 A 
ATOM     19  C   UNL     1       0.444   4.674 -10.066  0.00  0.00    +0.001 A 
ATOM     20  C   UNL     1      -0.010   4.933 -11.354  0.00  0.00    +0.011 A 
ENDBRANCH  12  18
ENDBRANCH  11  12
ENDBRANCH   1  11
BRANCH   2  21
ATOM     21  C   UNL     1       3.509   4.857  -4.237  0.00  0.00    +0.157 C 
BRANCH  21  22
ATOM     22  N   UNL     1       3.889   6.212  -3.941  0.00  0.00    -0.302 N 
ATOM     23  C   UNL     1       4.930   6.859  -4.508  0.00  0.00    +0.179 A 
ATOM     24  N   UNL     1       5.077   8.083  -3.953  0.00  0.00    -0.222 NA
ATOM     25  C   UNL     1       4.305   8.093  -2.850  0.00  0.00    +0.119 A 
ATOM     26  C   UNL     1       3.630   6.881  -2.815  0.00  0.00    +0.098 A 
ENDBRANCH  21  22
ENDBRANCH   2  21
TORSDOF 6
ENDMDL
MODEL 9
REMARK VINA RESULT:      -7.2      3.427      7.762
REMARK  Name = 
REMARK  6 active torsions:
REMARK  status: ('A' for Active; 'I' for Inactive)
REMARK    1  A    between atoms: C_5  and  C_6
REMARK    2  A    between atoms: C_6  and  O_7
REMARK    3  A    between atoms: O_7  and  N_8
REMARK    4  A    between atoms: C_9  and  C_10
REMARK    5  A    between atoms: C_9  and  C_16
REMARK    6  A    between atoms: C_10  and  N_11
REMARK                            x       y       z     vdW  Elec       q    Type
REMARK                         _______ _______ _______ _____ _____    ______ ____
ROOT
ATOM      1  N   UNL     1       1.446   6.919  -9.453  0.00  0.00    -0.085 NA
ATOM      2  C   UNL     1       1.891   6.030 -10.261  0.00  0.00    +0.121 C 
ENDROOT
BRANCH   2   3
ATOM      3  C   UNL     1       3.347   5.881 -10.379  0.00  0.00    +0.029 A 
ATOM      4  C   UNL     1       4.058   4.972  -9.608  0.00  0.00    +0.060 A 
ATOM      5 CL   UNL     1       3.091   3.881  -8.625  0.00  0.00    -0.082 Cl
ATOM      6  C   UNL     1       5.445   4.965  -9.563  0.00  0.00    +0.023 A 
ATOM      7  C   UNL     1       6.131   6.078  -9.990  0.00  0.00    +0.059 A 
ATOM      8 CL   UNL     1       7.729   6.499  -9.438  0.00  0.00    -0.082 Cl
ATOM      9  C   UNL     1       5.464   6.899 -10.890  0.00  0.00    +0.011 A 
ATOM     10  C   UNL     1       4.081   6.868 -11.016  0.00  0.00    +0.003 A 
ENDBRANCH   2   3
BRANCH   1  11
ATOM     11  O   UNL     1       2.217   7.625  -8.567  0.00  0.00    -0.373 OA
BRANCH  11  12
ATOM     12  C   UNL     1       1.749   7.738  -7.247  0.00  0.00    +0.266 C 
BRANCH  12  18
ATOM     13 CL   UNL     1       0.311   5.365  -2.515  0.00  0.00    -0.082 Cl
ATOM     14  C   UNL     1       0.854   5.137  -4.176  0.00  0.00    +0.058 A 
ATOM     15  C   UNL     1       2.189   5.310  -4.525  0.00  0.00    +0.023 A 
ATOM     16  C   UNL     1       2.519   5.925  -5.728  0.00  0.00    +0.058 A 
ATOM     17 CL   UNL     1       4.195   6.233  -6.175  0.00  0.00    -0.082 Cl
ATOM     18  C   UNL     1       1.549   6.404  -6.599  0.00  0.00    +0.035 A 
ATOM     19  C   UNL     1       0.277   5.877  -6.414  0.00  0.00    +0.001 A 
ATOM     20  C   UNL     1      -0.035   5.194  -5.244  0.00  0.00    +0.011 A 
ENDBRANCH  12  18
ENDBRANCH  11  12
ENDBRANCH   1  11
BRANCH   2  21
ATOM     21  C   UNL     1       0.983   5.213 -11.112  0.00  0.00    +0.157 C 
BRANCH  21  22
ATOM     22  N   UNL     1       0.970   5.658 -12.480  0.00  0.00    -0.302 N 
ATOM     23  C   UNL     1       1.632   5.054 -13.490  0.00  0.00    +0.179 A 
ATOM     24  N   UNL     1       1.492   5.764 -14.631  0.00  0.00    -0.222 NA
ATOM     25  C   UNL     1       0.977   6.956 -14.274  0.00  0.00    +0.119 A 
ATOM     26  C   UNL     1       0.732   6.899 -12.908  0.00  0.00    +0.098 A 
ENDBRANCH  21  22
ENDBRANCH   2  21
TORSDOF 6
ENDMDL
