MODEL 1
REMARK VINA RESULT:      -2.6      0.000      0.000
REMARK  Name = 
REMARK  0 active torsions:
REMARK  status: ('A' for Active; 'I' for Inactive)
REMARK                            x       y       z     vdW  Elec       q    Type
REMARK                         _______ _______ _______ _____ _____    ______ ____
ROOT
ATOM      1  N   UNL     1       9.469   5.924 -12.283  0.00  0.00    +0.139 NA
ATOM      2  C   UNL     1       8.246   5.555 -12.067  0.00  0.00    +0.574 C 
ATOM      3  N   UNL     1       7.738   5.592 -10.729  0.00  0.00    +0.139 NA
ATOM      4  N   UNL     1       7.568   4.752 -13.010  0.00  0.00    +0.139 NA
ENDROOT
TORSDOF 0
ENDMDL
MODEL 2
REMARK VINA RESULT:      -2.6      0.180      1.731
REMARK  Name = 
REMARK  0 active torsions:
REMARK  status: ('A' for Active; 'I' for Inactive)
REMARK                            x       y       z     vdW  Elec       q    Type
REMARK                         _______ _______ _______ _____ _____    ______ ____
ROOT
ATOM      1  N   UNL     1       9.344   5.939 -12.238  0.00  0.00    +0.139 NA
ATOM      2  C   UNL     1       8.216   5.348 -11.991  0.00  0.00    +0.574 C 
ATOM      3  N   UNL     1       7.479   4.784 -13.081  0.00  0.00    +0.139 NA
ATOM      4  N   UNL     1       7.526   5.607 -10.788  0.00  0.00    +0.139 NA
ENDROOT
TORSDOF 0
ENDMDL
MODEL 3
REMARK VINA RESULT:      -2.5      1.749      2.487
REMARK  Name = 
REMARK  0 active torsions:
REMARK  status: ('A' for Active; 'I' for Inactive)
REMARK                            x       y       z     vdW  Elec       q    Type
REMARK                         _______ _______ _______ _____ _____    ______ ____
ROOT
ATOM      1  N   UNL     1       7.813   4.712 -12.753  0.00  0.00    +0.139 NA
ATOM      2  C   UNL     1       6.751   5.452 -12.811  0.00  0.00    +0.574 C 
ATOM      3  N   UNL     1       5.576   4.926 -13.438  0.00  0.00    +0.139 NA
ATOM      4  N   UNL     1       6.849   6.852 -12.658  0.00  0.00    +0.139 NA
ENDROOT
TORSDOF 0
ENDMDL
MODEL 4
REMARK VINA RESULT:      -2.5      1.776      2.145
REMARK  Name = 
REMARK  0 active torsions:
REMARK  status: ('A' for Active; 'I' for Inactive)
REMARK                            x       y       z     vdW  Elec       q    Type
REMARK                         _______ _______ _______ _____ _____    ______ ____
ROOT
ATOM      1  N   UNL     1       7.793   4.715 -12.746  0.00  0.00    +0.139 NA
ATOM      2  C   UNL     1       6.794   5.464 -13.094  0.00  0.00    +0.574 C 
ATOM      3  N   UNL     1       6.815   6.852 -12.743  0.00  0.00    +0.139 NA
ATOM      4  N   UNL     1       5.551   4.883 -13.424  0.00  0.00    +0.139 NA
ENDROOT
TORSDOF 0
ENDMDL
MODEL 5
REMARK VINA RESULT:      -2.5      1.835      2.587
REMARK  Name = 
REMARK  0 active torsions:
REMARK  status: ('A' for Active; 'I' for Inactive)
REMARK                            x       y       z     vdW  Elec       q    Type
REMARK                         _______ _______ _______ _____ _____    ______ ____
ROOT
ATOM      1  N   UNL     1       5.552   4.993 -13.443  0.00  0.00    +0.139 NA
ATOM      2  C   UNL     1       6.559   5.452 -12.768  0.00  0.00    +0.574 C 
ATOM      3  N   UNL     1       6.582   6.841 -12.418  0.00  0.00    +0.139 NA
ATOM      4  N   UNL     1       7.778   4.742 -12.737  0.00  0.00    +0.139 NA
ENDROOT
TORSDOF 0
ENDMDL
MODEL 6
REMARK VINA RESULT:      -2.4     14.160     14.431
REMARK  Name = 
REMARK  0 active torsions:
REMARK  status: ('A' for Active; 'I' for Inactive)
REMARK                            x       y       z     vdW  Elec       q    Type
REMARK                         _______ _______ _______ _____ _____    ______ ____
ROOT
ATOM      1  N   UNL     1      -2.420   6.934  -1.985  0.00  0.00    +0.139 NA
ATOM      2  C   UNL     1      -2.162   5.664  -1.971  0.00  0.00    +0.574 C 
ATOM      3  N   UNL     1      -0.903   5.220  -1.454  0.00  0.00    +0.139 NA
ATOM      4  N   UNL     1      -2.884   4.782  -2.805  0.00  0.00    +0.139 NA
ENDROOT
TORSDOF 0
ENDMDL
MODEL 7
REMARK VINA RESULT:      -2.4     12.741     13.476
REMARK  Name = 
REMARK  0 active torsions:
REMARK  status: ('A' for Active; 'I' for Inactive)
REMARK                            x       y       z     vdW  Elec       q    Type
REMARK                         _______ _______ _______ _____ _____    ______ ____
ROOT
ATOM      1  N   UNL     1      -0.440   4.927  -1.830  0.00  0.00    +0.139 NA
ATOM      2  C   UNL     1      -1.350   5.421  -2.609  0.00  0.00    +0.574 C 
ATOM      3  N   UNL     1      -2.674   4.878  -2.559  0.00  0.00    +0.139 NA
ATOM      4  N   UNL     1      -0.981   6.161  -3.754  0.00  0.00    +0.139 NA
ENDROOT
TORSDOF 0
ENDMDL
MODEL 8
REMARK VINA RESULT:      -2.2      7.984      8.104
REMARK  Name = 
REMARK  0 active torsions:
REMARK  status: ('A' for Active; 'I' for Inactive)
REMARK                            x       y       z     vdW  Elec       q    Type
REMARK                         _______ _______ _______ _____ _____    ______ ____
ROOT
ATOM      1  N   UNL     1       2.144   8.206  -7.934  0.00  0.00    +0.139 NA
ATOM      2  C   UNL     1       2.169   7.307  -7.000  0.00  0.00    +0.574 C 
ATOM      3  N   UNL     1       3.272   7.290  -6.087  0.00  0.00    +0.139 NA
ATOM      4  N   UNL     1       1.388   6.137  -7.116  0.00  0.00    +0.139 NA
ENDROOT
TORSDOF 0
ENDMDL
MODEL 9
REMARK VINA RESULT:      -2.2      7.970      8.079
REMARK  Name = 
REMARK  0 active torsions:
REMARK  status: ('A' for Active; 'I' for Inactive)
REMARK                            x       y       z     vdW  Elec       q    Type
REMARK                         _______ _______ _______ _____ _____    ______ ____
ROOT
ATOM      1  N   UNL     1       3.310   7.277  -6.098  0.00  0.00    +0.139 NA
ATOM      2  C   UNL     1       2.304   7.229  -6.915  0.00  0.00    +0.574 C 
ATOM      3  N   UNL     1       1.618   5.985  -7.093  0.00  0.00    +0.139 NA
ATOM      4  N   UNL     1       2.144   8.222  -7.905  0.00  0.00    +0.139 NA
ENDROOT
TORSDOF 0
ENDMDL
