MODEL 1
REMARK VINA RESULT:     -10.6      0.000      0.000
REMARK  Name = 
REMARK  8 active torsions:
REMARK  status: ('A' for Active; 'I' for Inactive)
REMARK    1  A    between atoms: C_2  and  O_3
REMARK    2  A    between atoms: C_2  and  C_24
REMARK    3  A    between atoms: O_3  and  C_4
REMARK    4  A    between atoms: N_8  and  C_9
REMARK    5  A    between atoms: C_9  and  C_10
REMARK    6  A    between atoms: C_16  and  C_17
REMARK    7  A    between atoms: C_26  and  C_27
REMARK    8  A    between atoms: C_32  and  C_33
REMARK                            x       y       z     vdW  Elec       q    Type
REMARK                         _______ _______ _______ _____ _____    ______ ____
ROOT
ATOM      1  C   UNL     1       2.504   5.673  -7.844  0.00  0.00    +0.255 C 
ATOM      2  C   UNL     1       2.664   6.839  -9.129  0.00  0.00    +0.138 C 
ATOM      3  N   UNL     1       4.030   6.197  -9.538  0.00  0.00    -0.258 NA
ATOM      4  C   UNL     1       3.991   4.871  -9.776  0.00  0.00    +0.105 C 
ATOM      5  C   UNL     1       3.456   3.923  -8.742  0.00  0.00    +0.162 C 
ATOM      6  O   UNL     1       2.142   4.468  -8.700  0.00  0.00    -0.328 OA
ENDROOT
BRANCH   2   7
ATOM      7  C   UNL     1       1.759   6.201 -10.256  0.00  0.00    -0.003 A 
ATOM      8  C   UNL     1       1.906   5.696 -11.406  0.00  0.00    -0.001 A 
ATOM      9  C   UNL     1       1.269   5.828 -12.591  0.00  0.00    +0.029 A 
ATOM     10  C   UNL     1       0.296   6.828 -12.609  0.00  0.00    +0.140 A 
ATOM     11  F   UNL     1       0.277   7.679 -13.683  0.00  0.00    -0.204 F 
ATOM     12  C   UNL     1      -0.173   7.192 -11.350  0.00  0.00    +0.029 A 
ATOM     13  C   UNL     1       0.540   6.897 -10.184  0.00  0.00    -0.001 A 
ENDBRANCH   2   7
BRANCH   3  14
ATOM     14  C   UNL     1       4.671   6.970 -10.479  0.00  0.00    +0.141 C 
BRANCH  14  15
ATOM     15  C   UNL     1       6.133   6.703 -10.617  0.00  0.00    +0.182 A 
ATOM     16  N   UNL     1       6.628   6.492 -11.863  0.00  0.00    -0.171 NA
ATOM     17  C   UNL     1       7.443   5.407 -11.805  0.00  0.00    +0.388 A 
ATOM     18  O   UNL     1       7.729   4.586 -12.727  0.00  0.00    -0.241 OA
ATOM     19  N   UNL     1       7.890   5.432 -10.527  0.00  0.00    -0.087 NA
ATOM     20  N   UNL     1       7.062   6.178  -9.823  0.00  0.00    -0.127 NA
ENDBRANCH  14  15
ENDBRANCH   3  14
BRANCH   1  21
ATOM     21  O   UNL     1       1.112   6.131  -7.438  0.00  0.00    -0.327 OA
BRANCH  21  23
ATOM     22  C   UNL     1      -0.916   5.305  -7.110  0.00  0.00    +0.037 C 
ATOM     23  C   UNL     1       0.600   5.097  -6.467  0.00  0.00    +0.140 C 
BRANCH  23  24
ATOM     24  C   UNL     1       0.400   6.123  -5.217  0.00  0.00    +0.005 A 
ATOM     25  C   UNL     1       1.216   5.745  -4.148  0.00  0.00    +0.002 A 
ATOM     26  C   UNL     1       0.836   5.465  -2.888  0.00  0.00    +0.071 A 
ATOM     27  C   UNL     1      -0.505   5.666  -2.581  0.00  0.00    +0.008 A 
ATOM     28  C   UNL     1      -1.247   6.461  -3.447  0.00  0.00    +0.071 A 
ATOM     29  C   UNL     1      -0.850   6.410  -4.785  0.00  0.00    +0.002 A 
BRANCH  26  30
ATOM     30  C   UNL     1       1.871   5.237  -1.830  0.00  0.00    +0.419 C 
ATOM     31  F   UNL     1       1.494   4.270  -0.933  0.00  0.00    -0.166 F 
ATOM     32  F   UNL     1       1.986   6.422  -1.109  0.00  0.00    -0.166 F 
ATOM     33  F   UNL     1       3.072   4.942  -2.427  0.00  0.00    -0.166 F 
ENDBRANCH  26  30
BRANCH  28  34
ATOM     34  C   UNL     1      -2.228   7.474  -2.963  0.00  0.00    +0.419 C 
ATOM     35  F   UNL     1      -2.105   8.641  -3.710  0.00  0.00    -0.166 F 
ATOM     36  F   UNL     1      -1.825   7.828  -1.677  0.00  0.00    -0.166 F 
ATOM     37  F   UNL     1      -3.514   7.030  -3.002  0.00  0.00    -0.166 F 
ENDBRANCH  28  34
ENDBRANCH  23  24
ENDBRANCH  21  23
ENDBRANCH   1  21
TORSDOF 8
ENDMDL
MODEL 2
REMARK VINA RESULT:     -10.3      4.395      9.486
REMARK  Name = 
REMARK  8 active torsions:
REMARK  status: ('A' for Active; 'I' for Inactive)
REMARK    1  A    between atoms: C_2  and  O_3
REMARK    2  A    between atoms: C_2  and  C_24
REMARK    3  A    between atoms: O_3  and  C_4
REMARK    4  A    between atoms: N_8  and  C_9
REMARK    5  A    between atoms: C_9  and  C_10
REMARK    6  A    between atoms: C_16  and  C_17
REMARK    7  A    between atoms: C_26  and  C_27
REMARK    8  A    between atoms: C_32  and  C_33
REMARK                            x       y       z     vdW  Elec       q    Type
REMARK                         _______ _______ _______ _____ _____    ______ ____
ROOT
ATOM      1  C   UNL     1       2.186   5.883  -7.140  0.00  0.00    +0.255 C 
ATOM      2  C   UNL     1       2.025   6.868  -5.711  0.00  0.00    +0.138 C 
ATOM      3  N   UNL     1       0.898   5.920  -5.188  0.00  0.00    -0.258 NA
ATOM      4  C   UNL     1       1.230   4.615  -5.124  0.00  0.00    +0.105 C 
ATOM      5  C   UNL     1       1.754   3.898  -6.335  0.00  0.00    +0.162 C 
ATOM      6  O   UNL     1       2.912   4.708  -6.504  0.00  0.00    -0.328 OA
ENDROOT
BRANCH   2   7
ATOM      7  C   UNL     1       3.214   6.334  -4.819  0.00  0.00    -0.003 A 
ATOM      8  C   UNL     1       3.365   5.673  -3.751  0.00  0.00    -0.001 A 
ATOM      9  C   UNL     1       4.136   5.810  -2.649  0.00  0.00    +0.029 A 
ATOM     10  C   UNL     1       4.857   7.003  -2.600  0.00  0.00    +0.140 A 
ATOM     11  F   UNL     1       4.859   7.698  -1.419  0.00  0.00    -0.204 F 
ATOM     12  C   UNL     1       5.030   7.618  -3.837  0.00  0.00    +0.029 A 
ATOM     13  C   UNL     1       4.224   7.304  -4.936  0.00  0.00    -0.001 A 
ENDBRANCH   2   7
BRANCH   3  14
ATOM     14  C   UNL     1       0.290   6.453  -4.073  0.00  0.00    +0.141 C 
BRANCH  14  15
ATOM     15  C   UNL     1      -0.759   5.586  -3.459  0.00  0.00    +0.182 A 
ATOM     16  N   UNL     1      -2.029   5.694  -3.926  0.00  0.00    -0.171 NA
ATOM     17  C   UNL     1      -2.859   5.759  -2.854  0.00  0.00    +0.388 A 
ATOM     18  O   UNL     1      -3.996   6.312  -2.770  0.00  0.00    -0.241 OA
ATOM     19  N   UNL     1      -2.183   5.069  -1.904  0.00  0.00    -0.087 NA
ATOM     20  N   UNL     1      -0.916   5.019  -2.267  0.00  0.00    -0.127 NA
ENDBRANCH  14  15
ENDBRANCH   3  14
BRANCH   1  21
ATOM     21  O   UNL     1       3.374   6.657  -7.688  0.00  0.00    -0.327 OA
BRANCH  21  23
ATOM     22  C   UNL     1       1.467   6.476  -8.798  0.00  0.00    +0.037 C 
ATOM     23  C   UNL     1       2.902   7.292  -8.972  0.00  0.00    +0.140 C 
BRANCH  23  24
ATOM     24  C   UNL     1       3.600   6.206  -9.966  0.00  0.00    +0.005 A 
ATOM     25  C   UNL     1       4.972   6.138  -9.717  0.00  0.00    +0.002 A 
ATOM     26  C   UNL     1       5.973   6.329 -10.595  0.00  0.00    +0.071 A 
ATOM     27  C   UNL     1       5.611   6.521 -11.923  0.00  0.00    +0.008 A 
ATOM     28  C   UNL     1       4.325   6.145 -12.296  0.00  0.00    +0.071 A 
ATOM     29  C   UNL     1       3.358   6.270 -11.295  0.00  0.00    +0.002 A 
BRANCH  26  30
ATOM     30  C   UNL     1       7.387   6.052 -10.187  0.00  0.00    +0.419 C 
ATOM     31  F   UNL     1       8.073   5.337 -11.136  0.00  0.00    -0.166 F 
ATOM     32  F   UNL     1       7.335   5.251  -9.050  0.00  0.00    -0.166 F 
ATOM     33  F   UNL     1       8.013   7.238  -9.887  0.00  0.00    -0.166 F 
ENDBRANCH  26  30
BRANCH  28  34
ATOM     34  C   UNL     1       4.037   5.437 -13.575  0.00  0.00    +0.419 C 
ATOM     35  F   UNL     1       2.697   5.060 -13.612  0.00  0.00    -0.166 F 
ATOM     36  F   UNL     1       4.744   4.237 -13.528  0.00  0.00    -0.166 F 
ATOM     37  F   UNL     1       4.341   6.178 -14.675  0.00  0.00    -0.166 F 
ENDBRANCH  28  34
ENDBRANCH  23  24
ENDBRANCH  21  23
ENDBRANCH   1  21
TORSDOF 8
ENDMDL
MODEL 3
REMARK VINA RESULT:     -10.3      3.911      9.819
REMARK  Name = 
REMARK  8 active torsions:
REMARK  status: ('A' for Active; 'I' for Inactive)
REMARK    1  A    between atoms: C_2  and  O_3
REMARK    2  A    between atoms: C_2  and  C_24
REMARK    3  A    between atoms: O_3  and  C_4
REMARK    4  A    between atoms: N_8  and  C_9
REMARK    5  A    between atoms: C_9  and  C_10
REMARK    6  A    between atoms: C_16  and  C_17
REMARK    7  A    between atoms: C_26  and  C_27
REMARK    8  A    between atoms: C_32  and  C_33
REMARK                            x       y       z     vdW  Elec       q    Type
REMARK                         _______ _______ _______ _____ _____    ______ ____
ROOT
ATOM      1  C   UNL     1       2.419   5.574  -7.448  0.00  0.00    +0.255 C 
ATOM      2  C   UNL     1       2.310   6.817  -6.231  0.00  0.00    +0.138 C 
ATOM      3  N   UNL     1       1.041   6.122  -5.639  0.00  0.00    -0.258 NA
ATOM      4  C   UNL     1       1.194   4.821  -5.322  0.00  0.00    +0.105 C 
ATOM      5  C   UNL     1       1.687   3.837  -6.344  0.00  0.00    +0.162 C 
ATOM      6  O   UNL     1       2.948   4.458  -6.560  0.00  0.00    -0.328 OA
ENDROOT
BRANCH   2   7
ATOM      7  C   UNL     1       3.366   6.318  -5.168  0.00  0.00    -0.003 A 
ATOM      8  C   UNL     1       3.367   5.754  -4.037  0.00  0.00    -0.001 A 
ATOM      9  C   UNL     1       4.021   5.959  -2.872  0.00  0.00    +0.029 A 
ATOM     10  C   UNL     1       4.794   7.121  -2.846  0.00  0.00    +0.140 A 
ATOM     11  F   UNL     1       4.703   7.921  -1.737  0.00  0.00    -0.204 F 
ATOM     12  C   UNL     1       5.130   7.611  -4.104  0.00  0.00    +0.029 A 
ATOM     13  C   UNL     1       4.432   7.231  -5.255  0.00  0.00    -0.001 A 
ENDBRANCH   2   7
BRANCH   3  14
ATOM     14  C   UNL     1       0.446   6.919  -4.687  0.00  0.00    +0.141 C 
BRANCH  14  15
ATOM     15  C   UNL     1      -1.024   6.711  -4.527  0.00  0.00    +0.182 A 
ATOM     16  N   UNL     1      -1.509   6.536  -3.271  0.00  0.00    -0.171 NA
ATOM     17  C   UNL     1      -2.366   5.483  -3.303  0.00  0.00    +0.388 A 
ATOM     18  O   UNL     1      -2.671   4.687  -2.366  0.00  0.00    -0.241 OA
ATOM     19  N   UNL     1      -2.830   5.508  -4.575  0.00  0.00    -0.087 NA
ATOM     20  N   UNL     1      -1.982   6.212  -5.301  0.00  0.00    -0.127 NA
ENDBRANCH  14  15
ENDBRANCH   3  14
BRANCH   1  21
ATOM     21  O   UNL     1       3.727   6.088  -8.028  0.00  0.00    -0.327 OA
BRANCH  21  23
ATOM     22  C   UNL     1       5.724   5.148  -8.204  0.00  0.00    +0.037 C 
ATOM     23  C   UNL     1       4.240   4.995  -8.931  0.00  0.00    +0.140 C 
BRANCH  23  24
ATOM     24  C   UNL     1       4.569   5.963 -10.200  0.00  0.00    +0.005 A 
ATOM     25  C   UNL     1       3.467   6.025 -11.056  0.00  0.00    +0.002 A 
ATOM     26  C   UNL     1       3.432   5.727 -12.367  0.00  0.00    +0.071 A 
ATOM     27  C   UNL     1       4.645   5.413 -12.969  0.00  0.00    +0.008 A 
ATOM     28  C   UNL     1       5.805   5.778 -12.296  0.00  0.00    +0.071 A 
ATOM     29  C   UNL     1       5.709   5.773 -10.903  0.00  0.00    +0.002 A 
BRANCH  26  30
ATOM     30  C   UNL     1       2.197   6.012 -13.164  0.00  0.00    +0.419 C 
ATOM     31  F   UNL     1       1.471   7.055 -12.646  0.00  0.00    -0.166 F 
ATOM     32  F   UNL     1       1.385   4.884 -13.077  0.00  0.00    -0.166 F 
ATOM     33  F   UNL     1       2.543   6.230 -14.475  0.00  0.00    -0.166 F 
ENDBRANCH  26  30
BRANCH  28  34
ATOM     34  C   UNL     1       6.985   6.364 -12.995  0.00  0.00    +0.419 C 
ATOM     35  F   UNL     1       7.848   6.933 -12.063  0.00  0.00    -0.166 F 
ATOM     36  F   UNL     1       6.507   7.438 -13.742  0.00  0.00    -0.166 F 
ATOM     37  F   UNL     1       7.657   5.458 -13.756  0.00  0.00    -0.166 F 
ENDBRANCH  28  34
ENDBRANCH  23  24
ENDBRANCH  21  23
ENDBRANCH   1  21
TORSDOF 8
ENDMDL
MODEL 4
REMARK VINA RESULT:     -10.2      1.454      2.904
REMARK  Name = 
REMARK  8 active torsions:
REMARK  status: ('A' for Active; 'I' for Inactive)
REMARK    1  A    between atoms: C_2  and  O_3
REMARK    2  A    between atoms: C_2  and  C_24
REMARK    3  A    between atoms: O_3  and  C_4
REMARK    4  A    between atoms: N_8  and  C_9
REMARK    5  A    between atoms: C_9  and  C_10
REMARK    6  A    between atoms: C_16  and  C_17
REMARK    7  A    between atoms: C_26  and  C_27
REMARK    8  A    between atoms: C_32  and  C_33
REMARK                            x       y       z     vdW  Elec       q    Type
REMARK                         _______ _______ _______ _____ _____    ______ ____
ROOT
ATOM      1  C   UNL     1       3.411   5.837  -7.820  0.00  0.00    +0.255 C 
ATOM      2  C   UNL     1       3.210   6.987  -9.114  0.00  0.00    +0.138 C 
ATOM      3  N   UNL     1       4.535   6.477  -9.769  0.00  0.00    -0.258 NA
ATOM      4  C   UNL     1       4.590   5.150  -9.994  0.00  0.00    +0.105 C 
ATOM      5  C   UNL     1       4.356   4.174  -8.876  0.00  0.00    +0.162 C 
ATOM      6  O   UNL     1       3.024   4.584  -8.591  0.00  0.00    -0.328 OA
ENDROOT
BRANCH   2   7
ATOM      7  C   UNL     1       2.182   6.238 -10.051  0.00  0.00    -0.003 A 
ATOM      8  C   UNL     1       2.166   5.721 -11.205  0.00  0.00    -0.001 A 
ATOM      9  C   UNL     1       1.315   5.762 -12.254  0.00  0.00    +0.029 A 
ATOM     10  C   UNL     1       0.260   6.663 -12.100  0.00  0.00    +0.140 A 
ATOM     11  F   UNL     1      -0.038   7.482 -13.158  0.00  0.00    -0.204 F 
ATOM     12  C   UNL     1      -0.005   7.012 -10.779  0.00  0.00    +0.029 A 
ATOM     13  C   UNL     1       0.934   6.816  -9.761  0.00  0.00    -0.001 A 
ENDBRANCH   2   7
BRANCH   3  14
ATOM     14  C   UNL     1       4.908   7.291 -10.815  0.00  0.00    +0.141 C 
BRANCH  14  15
ATOM     15  C   UNL     1       6.330   7.147 -11.244  0.00  0.00    +0.182 A 
ATOM     16  N   UNL     1       6.575   6.622 -12.472  0.00  0.00    -0.171 NA
ATOM     17  C   UNL     1       7.557   5.694 -12.336  0.00  0.00    +0.388 A 
ATOM     18  O   UNL     1       7.775   4.668 -13.046  0.00  0.00    -0.241 OA
ATOM     19  N   UNL     1       8.257   6.148 -11.269  0.00  0.00    -0.087 NA
ATOM     20  N   UNL     1       7.483   6.982 -10.602  0.00  0.00    -0.127 NA
ENDBRANCH  14  15
ENDBRANCH   3  14
BRANCH   1  21
ATOM     21  O   UNL     1       2.080   6.161  -7.162  0.00  0.00    -0.327 OA
BRANCH  21  23
ATOM     22  C   UNL     1       3.706   5.737  -5.720  0.00  0.00    +0.037 C 
ATOM     23  C   UNL     1       2.413   6.773  -5.825  0.00  0.00    +0.140 C 
BRANCH  23  24
ATOM     24  C   UNL     1       1.385   5.855  -4.956  0.00  0.00    +0.005 A 
ATOM     25  C   UNL     1       0.136   5.812  -5.578  0.00  0.00    +0.002 A 
ATOM     26  C   UNL     1      -1.053   6.156  -5.051  0.00  0.00    +0.071 A 
ATOM     27  C   UNL     1      -1.062   6.505  -3.705  0.00  0.00    +0.008 A 
ATOM     28  C   UNL     1       0.036   6.128  -2.940  0.00  0.00    +0.071 A 
ATOM     29  C   UNL     1       1.250   6.082  -3.629  0.00  0.00    +0.002 A 
BRANCH  26  30
ATOM     30  C   UNL     1      -2.313   5.887  -5.813  0.00  0.00    +0.419 C 
ATOM     31  F   UNL     1      -2.067   5.421  -7.081  0.00  0.00    -0.166 F 
ATOM     32  F   UNL     1      -2.970   7.105  -5.961  0.00  0.00    -0.166 F 
ATOM     33  F   UNL     1      -3.102   5.022  -5.094  0.00  0.00    -0.166 F 
ENDBRANCH  26  30
BRANCH  28  34
ATOM     34  C   UNL     1      -0.099   5.581  -1.560  0.00  0.00    +0.419 C 
ATOM     35  F   UNL     1       0.631   4.402  -1.449  0.00  0.00    -0.166 F 
ATOM     36  F   UNL     1      -1.430   5.192  -1.420  0.00  0.00    -0.166 F 
ATOM     37  F   UNL     1       0.290   6.461  -0.598  0.00  0.00    -0.166 F 
ENDBRANCH  28  34
ENDBRANCH  23  24
ENDBRANCH  21  23
ENDBRANCH   1  21
TORSDOF 8
ENDMDL
MODEL 5
REMARK VINA RESULT:     -10.0      4.412      9.679
REMARK  Name = 
REMARK  8 active torsions:
REMARK  status: ('A' for Active; 'I' for Inactive)
REMARK    1  A    between atoms: C_2  and  O_3
REMARK    2  A    between atoms: C_2  and  C_24
REMARK    3  A    between atoms: O_3  and  C_4
REMARK    4  A    between atoms: N_8  and  C_9
REMARK    5  A    between atoms: C_9  and  C_10
REMARK    6  A    between atoms: C_16  and  C_17
REMARK    7  A    between atoms: C_26  and  C_27
REMARK    8  A    between atoms: C_32  and  C_33
REMARK                            x       y       z     vdW  Elec       q    Type
REMARK                         _______ _______ _______ _____ _____    ______ ____
ROOT
ATOM      1  C   UNL     1       2.116   5.610  -7.360  0.00  0.00    +0.255 C 
ATOM      2  C   UNL     1       2.016   6.694  -5.999  0.00  0.00    +0.138 C 
ATOM      3  N   UNL     1       0.970   5.746  -5.325  0.00  0.00    -0.258 NA
ATOM      4  C   UNL     1       1.361   4.464  -5.192  0.00  0.00    +0.105 C 
ATOM      5  C   UNL     1       1.827   3.677  -6.383  0.00  0.00    +0.162 C 
ATOM      6  O   UNL     1       2.935   4.513  -6.695  0.00  0.00    -0.328 OA
ENDROOT
BRANCH   2   7
ATOM      7  C   UNL     1       3.287   6.272  -5.161  0.00  0.00    -0.003 A 
ATOM      8  C   UNL     1       3.545   5.625  -4.106  0.00  0.00    -0.001 A 
ATOM      9  C   UNL     1       4.344   5.830  -3.035  0.00  0.00    +0.029 A 
ATOM     10  C   UNL     1       4.949   7.087  -3.005  0.00  0.00    +0.140 A 
ATOM     11  F   UNL     1       4.932   7.774  -1.819  0.00  0.00    -0.204 F 
ATOM     12  C   UNL     1       5.010   7.722  -4.243  0.00  0.00    +0.029 A 
ATOM     13  C   UNL     1       4.193   7.337  -5.311  0.00  0.00    -0.001 A 
ENDBRANCH   2   7
BRANCH   3  14
ATOM     14  C   UNL     1       0.421   6.339  -4.211  0.00  0.00    +0.141 C 
BRANCH  14  15
ATOM     15  C   UNL     1      -0.615   5.521  -3.513  0.00  0.00    +0.182 A 
ATOM     16  N   UNL     1      -1.894   5.597  -3.960  0.00  0.00    -0.171 NA
ATOM     17  C   UNL     1      -2.702   5.740  -2.878  0.00  0.00    +0.388 A 
ATOM     18  O   UNL     1      -3.836   6.300  -2.810  0.00  0.00    -0.241 OA
ATOM     19  N   UNL     1      -2.005   5.119  -1.896  0.00  0.00    -0.087 NA
ATOM     20  N   UNL     1      -0.746   5.041  -2.281  0.00  0.00    -0.127 NA
ENDBRANCH  14  15
ENDBRANCH   3  14
BRANCH   1  21
ATOM     21  O   UNL     1       3.228   6.384  -8.050  0.00  0.00    -0.327 OA
BRANCH  21  23
ATOM     22  C   UNL     1       2.288   5.397  -9.795  0.00  0.00    +0.037 C 
ATOM     23  C   UNL     1       2.623   6.948  -9.310  0.00  0.00    +0.140 C 
BRANCH  23  24
ATOM     24  C   UNL     1       4.027   7.086 -10.126  0.00  0.00    +0.005 A 
ATOM     25  C   UNL     1       3.849   6.706 -11.458  0.00  0.00    +0.002 A 
ATOM     26  C   UNL     1       4.521   5.757 -12.134  0.00  0.00    +0.071 A 
ATOM     27  C   UNL     1       5.579   5.146 -11.469  0.00  0.00    +0.008 A 
ATOM     28  C   UNL     1       6.084   5.790 -10.345  0.00  0.00    +0.071 A 
ATOM     29  C   UNL     1       5.150   6.529  -9.616  0.00  0.00    +0.002 A 
BRANCH  26  30
ATOM     30  C   UNL     1       4.308   5.599 -13.608  0.00  0.00    +0.419 C 
ATOM     31  F   UNL     1       3.164   6.222 -14.039  0.00  0.00    -0.166 F 
ATOM     32  F   UNL     1       4.134   4.240 -13.852  0.00  0.00    -0.166 F 
ATOM     33  F   UNL     1       5.420   6.049 -14.277  0.00  0.00    -0.166 F 
ENDBRANCH  26  30
BRANCH  28  34
ATOM     34  C   UNL     1       7.545   5.890 -10.069  0.00  0.00    +0.419 C 
ATOM     35  F   UNL     1       8.262   5.354 -11.134  0.00  0.00    -0.166 F 
ATOM     36  F   UNL     1       7.803   5.036  -8.999  0.00  0.00    -0.166 F 
ATOM     37  F   UNL     1       7.956   7.165  -9.828  0.00  0.00    -0.166 F 
ENDBRANCH  28  34
ENDBRANCH  23  24
ENDBRANCH  21  23
ENDBRANCH   1  21
TORSDOF 8
ENDMDL
MODEL 6
REMARK VINA RESULT:      -9.9      4.247      8.844
REMARK  Name = 
REMARK  8 active torsions:
REMARK  status: ('A' for Active; 'I' for Inactive)
REMARK    1  A    between atoms: C_2  and  O_3
REMARK    2  A    between atoms: C_2  and  C_24
REMARK    3  A    between atoms: O_3  and  C_4
REMARK    4  A    between atoms: N_8  and  C_9
REMARK    5  A    between atoms: C_9  and  C_10
REMARK    6  A    between atoms: C_16  and  C_17
REMARK    7  A    between atoms: C_26  and  C_27
REMARK    8  A    between atoms: C_32  and  C_33
REMARK                            x       y       z     vdW  Elec       q    Type
REMARK                         _______ _______ _______ _____ _____    ______ ____
ROOT
ATOM      1  C   UNL     1       3.148   5.576  -6.272  0.00  0.00    +0.255 C 
ATOM      2  C   UNL     1       1.778   4.956  -5.390  0.00  0.00    +0.138 C 
ATOM      3  N   UNL     1       2.402   5.483  -4.057  0.00  0.00    -0.258 NA
ATOM      4  C   UNL     1       2.725   6.791  -4.052  0.00  0.00    +0.105 C 
ATOM      5  C   UNL     1       3.627   7.362  -5.107  0.00  0.00    +0.162 C 
ATOM      6  O   UNL     1       2.785   7.052  -6.212  0.00  0.00    -0.328 OA
ENDROOT
BRANCH   2   7
ATOM      7  C   UNL     1       0.710   6.098  -5.615  0.00  0.00    -0.003 A 
ATOM      8  C   UNL     1       0.267   7.107  -4.994  0.00  0.00    -0.001 A 
ATOM      9  C   UNL     1      -0.964   7.604  -4.743  0.00  0.00    +0.029 A 
ATOM     10  C   UNL     1      -2.010   6.777  -5.153  0.00  0.00    +0.140 A 
ATOM     11  F   UNL     1      -3.046   6.579  -4.277  0.00  0.00    -0.204 F 
ATOM     12  C   UNL     1      -1.654   5.844  -6.122  0.00  0.00    +0.029 A 
ATOM     13  C   UNL     1      -0.320   5.495  -6.356  0.00  0.00    -0.001 A 
ENDBRANCH   2   7
BRANCH   3  14
ATOM     14  C   UNL     1       1.693   5.021  -2.970  0.00  0.00    +0.141 C 
BRANCH  14  15
ATOM     15  C   UNL     1       2.456   5.005  -1.687  0.00  0.00    +0.182 A 
ATOM     16  N   UNL     1       2.127   5.918  -0.738  0.00  0.00    -0.171 NA
ATOM     17  C   UNL     1       3.280   6.460  -0.269  0.00  0.00    +0.388 A 
ATOM     18  O   UNL     1       3.464   7.609   0.232  0.00  0.00    -0.241 OA
ATOM     19  N   UNL     1       4.179   5.463  -0.448  0.00  0.00    -0.087 NA
ATOM     20  N   UNL     1       3.682   4.626  -1.339  0.00  0.00    -0.127 NA
ENDBRANCH  14  15
ENDBRANCH   3  14
BRANCH   1  21
ATOM     21  O   UNL     1       2.582   5.224  -7.638  0.00  0.00    -0.327 OA
BRANCH  21  23
ATOM     22  C   UNL     1       1.323   6.219  -9.163  0.00  0.00    +0.037 C 
ATOM     23  C   UNL     1       2.838   6.421  -8.517  0.00  0.00    +0.140 C 
BRANCH  23  24
ATOM     24  C   UNL     1       3.634   5.609  -9.684  0.00  0.00    +0.005 A 
ATOM     25  C   UNL     1       5.013   5.734  -9.502  0.00  0.00    +0.002 A 
ATOM     26  C   UNL     1       5.915   6.203 -10.383  0.00  0.00    +0.071 A 
ATOM     27  C   UNL     1       5.445   6.512 -11.654  0.00  0.00    +0.008 A 
ATOM     28  C   UNL     1       4.213   5.985 -12.025  0.00  0.00    +0.071 A 
ATOM     29  C   UNL     1       3.303   5.813 -10.980  0.00  0.00    +0.002 A 
BRANCH  26  30
ATOM     30  C   UNL     1       7.377   6.109 -10.075  0.00  0.00    +0.419 C 
ATOM     31  F   UNL     1       7.946   7.340  -9.862  0.00  0.00    -0.166 F 
ATOM     32  F   UNL     1       7.999   5.577 -11.202  0.00  0.00    -0.166 F 
ATOM     33  F   UNL     1       7.562   5.267  -9.006  0.00  0.00    -0.166 F 
ENDBRANCH  26  30
BRANCH  28  34
ATOM     34  C   UNL     1       3.960   5.419 -13.381  0.00  0.00    +0.419 C 
ATOM     35  F   UNL     1       2.629   5.027 -13.485  0.00  0.00    -0.166 F 
ATOM     36  F   UNL     1       4.688   4.233 -13.454  0.00  0.00    -0.166 F 
ATOM     37  F   UNL     1       4.269   6.283 -14.386  0.00  0.00    -0.166 F 
ENDBRANCH  28  34
ENDBRANCH  23  24
ENDBRANCH  21  23
ENDBRANCH   1  21
TORSDOF 8
ENDMDL
MODEL 7
REMARK VINA RESULT:      -9.8      4.360      9.750
REMARK  Name = 
REMARK  8 active torsions:
REMARK  status: ('A' for Active; 'I' for Inactive)
REMARK    1  A    between atoms: C_2  and  O_3
REMARK    2  A    between atoms: C_2  and  C_24
REMARK    3  A    between atoms: O_3  and  C_4
REMARK    4  A    between atoms: N_8  and  C_9
REMARK    5  A    between atoms: C_9  and  C_10
REMARK    6  A    between atoms: C_16  and  C_17
REMARK    7  A    between atoms: C_26  and  C_27
REMARK    8  A    between atoms: C_32  and  C_33
REMARK                            x       y       z     vdW  Elec       q    Type
REMARK                         _______ _______ _______ _____ _____    ______ ____
ROOT
ATOM      1  C   UNL     1       1.696   5.566  -7.363  0.00  0.00    +0.255 C 
ATOM      2  C   UNL     1       1.871   6.849  -6.197  0.00  0.00    +0.138 C 
ATOM      3  N   UNL     1       0.662   6.276  -5.388  0.00  0.00    -0.258 NA
ATOM      4  C   UNL     1       0.765   4.978  -5.044  0.00  0.00    +0.105 C 
ATOM      5  C   UNL     1       1.017   3.927  -6.087  0.00  0.00    +0.162 C 
ATOM      6  O   UNL     1       2.272   4.438  -6.520  0.00  0.00    -0.328 OA
ENDROOT
BRANCH   2   7
ATOM      7  C   UNL     1       3.041   6.299  -5.288  0.00  0.00    -0.003 A 
ATOM      8  C   UNL     1       3.171   5.725  -4.169  0.00  0.00    -0.001 A 
ATOM      9  C   UNL     1       3.985   5.894  -3.103  0.00  0.00    +0.029 A 
ATOM     10  C   UNL     1       4.801   7.023  -3.179  0.00  0.00    +0.140 A 
ATOM     11  F   UNL     1       4.895   7.817  -2.066  0.00  0.00    -0.204 F 
ATOM     12  C   UNL     1       4.983   7.511  -4.470  0.00  0.00    +0.029 A 
ATOM     13  C   UNL     1       4.121   7.169  -5.517  0.00  0.00    -0.001 A 
ENDBRANCH   2   7
BRANCH   3  14
ATOM     14  C   UNL     1       0.285   7.147  -4.391  0.00  0.00    +0.141 C 
BRANCH  14  15
ATOM     15  C   UNL     1      -1.149   7.049  -3.984  0.00  0.00    +0.182 A 
ATOM     16  N   UNL     1      -1.425   6.752  -2.689  0.00  0.00    -0.171 NA
ATOM     17  C   UNL     1      -2.385   5.792  -2.681  0.00  0.00    +0.388 A 
ATOM     18  O   UNL     1      -2.609   4.909  -1.801  0.00  0.00    -0.241 OA
ATOM     19  N   UNL     1      -3.057   6.026  -3.833  0.00  0.00    -0.087 NA
ATOM     20  N   UNL     1      -2.276   6.743  -4.619  0.00  0.00    -0.127 NA
ENDBRANCH  14  15
ENDBRANCH   3  14
BRANCH   1  21
ATOM     21  O   UNL     1       2.932   5.955  -8.157  0.00  0.00    -0.327 OA
BRANCH  21  23
ATOM     22  C   UNL     1       3.835   4.105  -8.972  0.00  0.00    +0.037 C 
ATOM     23  C   UNL     1       2.792   5.283  -9.500  0.00  0.00    +0.140 C 
BRANCH  23  24
ATOM     24  C   UNL     1       3.918   6.184 -10.259  0.00  0.00    +0.005 A 
ATOM     25  C   UNL     1       3.889   5.933 -11.633  0.00  0.00    +0.002 A 
ATOM     26  C   UNL     1       4.906   5.522 -12.410  0.00  0.00    +0.071 A 
ATOM     27  C   UNL     1       6.155   5.424 -11.806  0.00  0.00    +0.008 A 
ATOM     28  C   UNL     1       6.333   6.087 -10.597  0.00  0.00    +0.071 A 
ATOM     29  C   UNL     1       5.191   6.183  -9.800  0.00  0.00    +0.002 A 
BRANCH  26  30
ATOM     30  C   UNL     1       4.734   5.464 -13.896  0.00  0.00    +0.419 C 
ATOM     31  F   UNL     1       3.992   6.515 -14.376  0.00  0.00    -0.166 F 
ATOM     32  F   UNL     1       4.011   4.309 -14.180  0.00  0.00    -0.166 F 
ATOM     33  F   UNL     1       5.968   5.394 -14.494  0.00  0.00    -0.166 F 
ENDBRANCH  26  30
BRANCH  28  34
ATOM     34  C   UNL     1       7.575   6.848 -10.277  0.00  0.00    +0.419 C 
ATOM     35  F   UNL     1       7.368   8.203 -10.517  0.00  0.00    -0.166 F 
ATOM     36  F   UNL     1       8.527   6.460 -11.216  0.00  0.00    -0.166 F 
ATOM     37  F   UNL     1       7.998   6.663  -8.997  0.00  0.00    -0.166 F 
ENDBRANCH  28  34
ENDBRANCH  23  24
ENDBRANCH  21  23
ENDBRANCH   1  21
TORSDOF 8
ENDMDL
MODEL 8
REMARK VINA RESULT:      -9.7      3.634      8.845
REMARK  Name = 
REMARK  8 active torsions:
REMARK  status: ('A' for Active; 'I' for Inactive)
REMARK    1  A    between atoms: C_2  and  O_3
REMARK    2  A    between atoms: C_2  and  C_24
REMARK    3  A    between atoms: O_3  and  C_4
REMARK    4  A    between atoms: N_8  and  C_9
REMARK    5  A    between atoms: C_9  and  C_10
REMARK    6  A    between atoms: C_16  and  C_17
REMARK    7  A    between atoms: C_26  and  C_27
REMARK    8  A    between atoms: C_32  and  C_33
REMARK                            x       y       z     vdW  Elec       q    Type
REMARK                         _______ _______ _______ _____ _____    ______ ____
ROOT
ATOM      1  C   UNL     1       2.015   5.391  -7.254  0.00  0.00    +0.255 C 
ATOM      2  C   UNL     1       0.959   4.940  -5.944  0.00  0.00    +0.138 C 
ATOM      3  N   UNL     1       2.006   5.483  -4.917  0.00  0.00    -0.258 NA
ATOM      4  C   UNL     1       2.397   6.756  -5.115  0.00  0.00    +0.105 C 
ATOM      5  C   UNL     1       2.953   7.190  -6.441  0.00  0.00    +0.162 C 
ATOM      6  O   UNL     1       1.786   6.894  -7.200  0.00  0.00    -0.328 OA
ENDROOT
BRANCH   2   7
ATOM      7  C   UNL     1      -0.050   6.156  -5.913  0.00  0.00    -0.003 A 
ATOM      8  C   UNL     1      -0.272   7.176  -5.198  0.00  0.00    -0.001 A 
ATOM      9  C   UNL     1      -1.379   7.746  -4.674  0.00  0.00    +0.029 A 
ATOM     10  C   UNL     1      -2.545   7.001  -4.849  0.00  0.00    +0.140 A 
ATOM     11  F   UNL     1      -3.373   6.849  -3.768  0.00  0.00    -0.204 F 
ATOM     12  C   UNL     1      -2.480   6.072  -5.884  0.00  0.00    +0.029 A 
ATOM     13  C   UNL     1      -1.259   5.641  -6.413  0.00  0.00    -0.001 A 
ENDBRANCH   2   7
BRANCH   3  14
ATOM     14  C   UNL     1       1.649   5.143  -3.631  0.00  0.00    +0.141 C 
BRANCH  14  15
ATOM     15  C   UNL     1       2.548   5.686  -2.569  0.00  0.00    +0.182 A 
ATOM     16  N   UNL     1       3.774   5.122  -2.423  0.00  0.00    -0.171 NA
ATOM     17  C   UNL     1       3.975   4.910  -1.096  0.00  0.00    +0.388 A 
ATOM     18  O   UNL     1       4.698   4.032  -0.539  0.00  0.00    -0.241 OA
ATOM     19  N   UNL     1       3.230   5.882  -0.518  0.00  0.00    -0.087 NA
ATOM     20  N   UNL     1       2.349   6.300  -1.407  0.00  0.00    -0.127 NA
ENDBRANCH  14  15
ENDBRANCH   3  14
BRANCH   1  21
ATOM     21  O   UNL     1       1.024   5.016  -8.344  0.00  0.00    -0.327 OA
BRANCH  21  23
ATOM     22  C   UNL     1       2.983   3.991  -8.233  0.00  0.00    +0.037 C 
ATOM     23  C   UNL     1       1.811   4.251  -9.378  0.00  0.00    +0.140 C 
BRANCH  23  24
ATOM     24  C   UNL     1       2.516   5.556 -10.054  0.00  0.00    +0.005 A 
ATOM     25  C   UNL     1       1.955   5.811 -11.307  0.00  0.00    +0.002 A 
ATOM     26  C   UNL     1       2.595   5.900 -12.487  0.00  0.00    +0.071 A 
ATOM     27  C   UNL     1       3.983   5.826 -12.452  0.00  0.00    +0.008 A 
ATOM     28  C   UNL     1       4.603   6.034 -11.225  0.00  0.00    +0.071 A 
ATOM     29  C   UNL     1       3.866   5.627 -10.111  0.00  0.00    +0.002 A 
BRANCH  26  30
ATOM     30  C   UNL     1       1.851   6.346 -13.707  0.00  0.00    +0.419 C 
ATOM     31  F   UNL     1       0.982   5.388 -14.167  0.00  0.00    -0.166 F 
ATOM     32  F   UNL     1       2.794   6.539 -14.713  0.00  0.00    -0.166 F 
ATOM     33  F   UNL     1       1.211   7.531 -13.440  0.00  0.00    -0.166 F 
ENDBRANCH  26  30
BRANCH  28  34
ATOM     34  C   UNL     1       5.845   6.847 -11.084  0.00  0.00    +0.419 C 
ATOM     35  F   UNL     1       5.521   8.201 -11.068  0.00  0.00    -0.166 F 
ATOM     36  F   UNL     1       6.569   6.667 -12.260  0.00  0.00    -0.166 F 
ATOM     37  F   UNL     1       6.566   6.530  -9.974  0.00  0.00    -0.166 F 
ENDBRANCH  28  34
ENDBRANCH  23  24
ENDBRANCH  21  23
ENDBRANCH   1  21
TORSDOF 8
ENDMDL
MODEL 9
REMARK VINA RESULT:      -9.5      3.795      8.260
REMARK  Name = 
REMARK  8 active torsions:
REMARK  status: ('A' for Active; 'I' for Inactive)
REMARK    1  A    between atoms: C_2  and  O_3
REMARK    2  A    between atoms: C_2  and  C_24
REMARK    3  A    between atoms: O_3  and  C_4
REMARK    4  A    between atoms: N_8  and  C_9
REMARK    5  A    between atoms: C_9  and  C_10
REMARK    6  A    between atoms: C_16  and  C_17
REMARK    7  A    between atoms: C_26  and  C_27
REMARK    8  A    between atoms: C_32  and  C_33
REMARK                            x       y       z     vdW  Elec       q    Type
REMARK                         _______ _______ _______ _____ _____    ______ ____
ROOT
ATOM      1  C   UNL     1       2.500   5.393  -5.952  0.00  0.00    +0.255 C 
ATOM      2  C   UNL     1       1.213   4.977  -4.853  0.00  0.00    +0.138 C 
ATOM      3  N   UNL     1       2.008   5.635  -3.678  0.00  0.00    -0.258 NA
ATOM      4  C   UNL     1       2.388   6.910  -3.886  0.00  0.00    +0.105 C 
ATOM      5  C   UNL     1       3.188   7.284  -5.100  0.00  0.00    +0.162 C 
ATOM      6  O   UNL     1       2.213   6.884  -6.056  0.00  0.00    -0.328 OA
ENDROOT
BRANCH   2   7
ATOM      7  C   UNL     1       0.179   6.142  -5.116  0.00  0.00    -0.003 A 
ATOM      8  C   UNL     1      -0.239   7.179  -4.525  0.00  0.00    -0.001 A 
ATOM      9  C   UNL     1      -1.458   7.716  -4.295  0.00  0.00    +0.029 A 
ATOM     10  C   UNL     1      -2.524   6.908  -4.690  0.00  0.00    +0.140 A 
ATOM     11  F   UNL     1      -3.571   6.762  -3.817  0.00  0.00    -0.204 F 
ATOM     12  C   UNL     1      -2.189   5.940  -5.632  0.00  0.00    +0.029 A 
ATOM     13  C   UNL     1      -0.863   5.548  -5.848  0.00  0.00    -0.001 A 
ENDBRANCH   2   7
BRANCH   3  14
ATOM     14  C   UNL     1       1.408   5.362  -2.470  0.00  0.00    +0.141 C 
BRANCH  14  15
ATOM     15  C   UNL     1       2.352   5.205  -1.324  0.00  0.00    +0.182 A 
ATOM     16  N   UNL     1       2.453   6.228  -0.437  0.00  0.00    -0.171 NA
ATOM     17  C   UNL     1       3.774   6.448  -0.210  0.00  0.00    +0.388 A 
ATOM     18  O   UNL     1       4.345   7.525   0.133  0.00  0.00    -0.241 OA
ATOM     19  N   UNL     1       4.325   5.229  -0.418  0.00  0.00    -0.087 NA
ATOM     20  N   UNL     1       3.472   4.516  -1.129  0.00  0.00    -0.127 NA
ENDBRANCH  14  15
ENDBRANCH   3  14
BRANCH   1  21
ATOM     21  O   UNL     1       1.766   4.901  -7.189  0.00  0.00    -0.327 OA
BRANCH  21  23
ATOM     22  C   UNL     1       3.948   4.801  -7.554  0.00  0.00    +0.037 C 
ATOM     23  C   UNL     1       2.631   3.817  -7.783  0.00  0.00    +0.140 C 
BRANCH  23  24
ATOM     24  C   UNL     1       2.375   4.228  -9.339  0.00  0.00    +0.005 A 
ATOM     25  C   UNL     1       3.499   4.874  -9.857  0.00  0.00    +0.002 A 
ATOM     26  C   UNL     1       3.555   6.094 -10.420  0.00  0.00    +0.071 A 
ATOM     27  C   UNL     1       2.345   6.756 -10.599  0.00  0.00    +0.008 A 
ATOM     28  C   UNL     1       1.184   5.993 -10.533  0.00  0.00    +0.071 A 
ATOM     29  C   UNL     1       1.245   4.893  -9.674  0.00  0.00    +0.002 A 
BRANCH  26  30
ATOM     30  C   UNL     1       4.820   6.558 -11.073  0.00  0.00    +0.419 C 
ATOM     31  F   UNL     1       5.924   5.896 -10.598  0.00  0.00    -0.166 F 
ATOM     32  F   UNL     1       4.987   7.898 -10.734  0.00  0.00    -0.166 F 
ATOM     33  F   UNL     1       4.698   6.439 -12.435  0.00  0.00    -0.166 F 
ENDBRANCH  26  30
BRANCH  28  34
ATOM     34  C   UNL     1       0.047   6.181 -11.479  0.00  0.00    +0.419 C 
ATOM     35  F   UNL     1      -0.658   4.988 -11.608  0.00  0.00    -0.166 F 
ATOM     36  F   UNL     1       0.612   6.399 -12.734  0.00  0.00    -0.166 F 
ATOM     37  F   UNL     1      -0.797   7.181 -11.106  0.00  0.00    -0.166 F 
ENDBRANCH  28  34
ENDBRANCH  23  24
ENDBRANCH  21  23
ENDBRANCH   1  21
TORSDOF 8
ENDMDL
