MODEL 1
REMARK VINA RESULT:      -8.8      0.000      0.000
REMARK  Name = 
REMARK  3 active torsions:
REMARK  status: ('A' for Active; 'I' for Inactive)
REMARK    1  A    between atoms: O_2  and  C_3
REMARK    2  A    between atoms: C_12  and  C_14
REMARK    3  A    between atoms: C_26  and  O_27
REMARK                            x       y       z     vdW  Elec       q    Type
REMARK                         _______ _______ _______ _____ _____    ______ ____
ROOT
ATOM      1  C   UNL     1       6.613   6.099 -10.649  0.00  0.00    +0.174 A 
ATOM      2  C   UNL     1       5.636   6.211 -11.629  0.00  0.00    +0.173 A 
ATOM      3  C   UNL     1       4.481   5.480 -11.460  0.00  0.00    +0.044 A 
ATOM      4  C   UNL     1       4.030   5.305 -10.162  0.00  0.00    +0.056 A 
ATOM      5  C   UNL     1       4.948   5.253  -9.132  0.00  0.00    +0.090 A 
ATOM      6  N   UNL     1       4.462   5.037  -7.900  0.00  0.00    -0.213 NA
ATOM      7  C   UNL     1       3.204   4.607  -7.661  0.00  0.00    +0.221 A 
ATOM      8  N   UNL     1       2.400   4.474  -8.743  0.00  0.00    -0.195 NA
ATOM      9  N   UNL     1       2.776   4.242  -6.342  0.00  0.00    -0.275 N 
ATOM     10  C   UNL     1       3.246   4.991  -5.180  0.00  0.00    +0.115 C 
ATOM     11  C   UNL     1       2.083   5.470  -4.325  0.00  0.00    +0.115 C 
ATOM     12  N   UNL     1       1.015   5.908  -5.220  0.00  0.00    -0.270 N 
ATOM     13  C   UNL     1       0.041   6.823  -4.703  0.00  0.00    +0.284 C 
ATOM     14  O   UNL     1      -0.244   7.890  -5.324  0.00  0.00    -0.267 OA
ATOM     15  C   UNL     1       0.509   4.920  -6.167  0.00  0.00    +0.115 C 
ATOM     16  C   UNL     1       1.425   3.701  -6.226  0.00  0.00    +0.115 C 
ATOM     17  C   UNL     1       2.684   5.143  -9.862  0.00  0.00    +0.174 A 
ATOM     18  N   UNL     1       1.717   5.420 -10.854  0.00  0.00    -0.107 NA
ATOM     19  C   UNL     1       6.209   5.784  -9.368  0.00  0.00    +0.059 A 
ENDROOT
BRANCH  13  20
ATOM     20  C   UNL     1      -1.029   6.211  -3.906  0.00  0.00    +0.199 A 
ATOM     21  O   UNL     1      -0.854   5.646  -2.725  0.00  0.00    -0.446 OA
ATOM     22  C   UNL     1      -1.993   5.511  -2.106  0.00  0.00    +0.180 A 
ATOM     23  C   UNL     1      -3.005   5.775  -3.004  0.00  0.00    +0.044 A 
ATOM     24  C   UNL     1      -2.394   6.224  -4.156  0.00  0.00    +0.045 A 
ENDBRANCH  13  20
BRANCH   1  26
ATOM     25  C   UNL     1       8.844   5.858 -11.657  0.00  0.00    +0.253 C 
ATOM     26  O   UNL     1       7.865   6.596 -10.961  0.00  0.00    -0.468 OA
ENDBRANCH   1  26
BRANCH   2  27
ATOM     27  O   UNL     1       5.862   7.025 -12.743  0.00  0.00    -0.468 OA
ATOM     28  C   UNL     1       6.020   6.422 -14.021  0.00  0.00    +0.253 C 
ENDBRANCH   2  27
TORSDOF 3
ENDMDL
MODEL 2
REMARK VINA RESULT:      -8.2      3.004      9.545
REMARK  Name = 
REMARK  3 active torsions:
REMARK  status: ('A' for Active; 'I' for Inactive)
REMARK    1  A    between atoms: O_2  and  C_3
REMARK    2  A    between atoms: C_12  and  C_14
REMARK    3  A    between atoms: C_26  and  O_27
REMARK                            x       y       z     vdW  Elec       q    Type
REMARK                         _______ _______ _______ _____ _____    ______ ____
ROOT
ATOM      1  C   UNL     1      -0.964   6.830   0.159  0.00  0.00    +0.174 A 
ATOM      2  C   UNL     1       0.296   7.282   0.528  0.00  0.00    +0.173 A 
ATOM      3  C   UNL     1       1.383   6.708  -0.090  0.00  0.00    +0.044 A 
ATOM      4  C   UNL     1       1.231   6.336  -1.416  0.00  0.00    +0.056 A 
ATOM      5  C   UNL     1      -0.014   5.939  -1.865  0.00  0.00    +0.090 A 
ATOM      6  N   UNL     1      -0.097   5.546  -3.145  0.00  0.00    -0.213 NA
ATOM      7  C   UNL     1       0.981   5.264  -3.909  0.00  0.00    +0.221 A 
ATOM      8  N   UNL     1       2.192   5.476  -3.339  0.00  0.00    -0.195 NA
ATOM      9  N   UNL     1       0.841   4.701  -5.220  0.00  0.00    -0.275 N 
ATOM     10  C   UNL     1      -0.254   5.117  -6.089  0.00  0.00    +0.115 C 
ATOM     11  C   UNL     1       0.260   5.573  -7.446  0.00  0.00    +0.115 C 
ATOM     12  N   UNL     1       1.486   6.337  -7.231  0.00  0.00    -0.270 N 
ATOM     13  C   UNL     1       1.890   7.257  -8.253  0.00  0.00    +0.284 C 
ATOM     14  O   UNL     1       2.174   8.459  -7.971  0.00  0.00    -0.267 OA
ATOM     15  C   UNL     1       2.571   5.649  -6.539  0.00  0.00    +0.115 C 
ATOM     16  C   UNL     1       2.080   4.350  -5.909  0.00  0.00    +0.115 C 
ATOM     17  C   UNL     1       2.297   6.312  -2.306  0.00  0.00    +0.174 A 
ATOM     18  N   UNL     1       3.516   6.926  -1.939  0.00  0.00    -0.107 NA
ATOM     19  C   UNL     1      -1.117   6.319  -1.114  0.00  0.00    +0.059 A 
ENDROOT
BRANCH  13  20
ATOM     20  C   UNL     1       2.595   6.656  -9.391  0.00  0.00    +0.199 A 
ATOM     21  O   UNL     1       2.004   6.058 -10.409  0.00  0.00    -0.446 OA
ATOM     22  C   UNL     1       2.824   5.939 -11.414  0.00  0.00    +0.180 A 
ATOM     23  C   UNL     1       4.093   6.252 -10.974  0.00  0.00    +0.044 A 
ATOM     24  C   UNL     1       3.952   6.711  -9.680  0.00  0.00    +0.045 A 
ENDBRANCH  13  20
BRANCH   1  26
ATOM     25  C   UNL     1      -2.376   6.491   2.143  0.00  0.00    +0.253 C 
ATOM     26  O   UNL     1      -2.018   7.194   0.974  0.00  0.00    -0.468 OA
ENDBRANCH   1  26
BRANCH   2  27
ATOM     27  O   UNL     1       0.416   8.267   1.514  0.00  0.00    -0.468 OA
ATOM     28  C   UNL     1       0.750   9.595   1.129  0.00  0.00    +0.253 C 
ENDBRANCH   2  27
TORSDOF 3
ENDMDL
MODEL 3
REMARK VINA RESULT:      -7.7      3.380      5.209
REMARK  Name = 
REMARK  3 active torsions:
REMARK  status: ('A' for Active; 'I' for Inactive)
REMARK    1  A    between atoms: O_2  and  C_3
REMARK    2  A    between atoms: C_12  and  C_14
REMARK    3  A    between atoms: C_26  and  O_27
REMARK                            x       y       z     vdW  Elec       q    Type
REMARK                         _______ _______ _______ _____ _____    ______ ____
ROOT
ATOM      1  C   UNL     1       2.570   6.871  -8.093  0.00  0.00    +0.174 A 
ATOM      2  C   UNL     1       1.261   6.591  -8.461  0.00  0.00    +0.173 A 
ATOM      3  C   UNL     1       0.545   5.734  -7.655  0.00  0.00    +0.044 A 
ATOM      4  C   UNL     1       0.801   5.785  -6.295  0.00  0.00    +0.056 A 
ATOM      5  C   UNL     1       2.068   6.124  -5.861  0.00  0.00    +0.090 A 
ATOM      6  N   UNL     1       2.274   6.115  -4.535  0.00  0.00    -0.213 NA
ATOM      7  C   UNL     1       1.425   5.545  -3.653  0.00  0.00    +0.221 A 
ATOM      8  N   UNL     1       0.279   5.037  -4.167  0.00  0.00    -0.195 NA
ATOM      9  N   UNL     1       1.759   5.424  -2.265  0.00  0.00    -0.275 N 
ATOM     10  C   UNL     1       2.497   6.485  -1.587  0.00  0.00    +0.115 C 
ATOM     11  C   UNL     1       1.776   6.943  -0.329  0.00  0.00    +0.115 C 
ATOM     12  N   UNL     1       0.345   6.980  -0.617  0.00  0.00    -0.270 N 
ATOM     13  C   UNL     1      -0.482   7.811   0.206  0.00  0.00    +0.284 C 
ATOM     14  O   UNL     1      -1.285   8.645  -0.309  0.00  0.00    -0.267 OA
ATOM     15  C   UNL     1      -0.264   5.731  -1.063  0.00  0.00    +0.115 C 
ATOM     16  C   UNL     1       0.802   4.704  -1.429  0.00  0.00    +0.115 C 
ATOM     17  C   UNL     1      -0.164   5.471  -5.348  0.00  0.00    +0.174 A 
ATOM     18  N   UNL     1      -1.513   5.349  -5.751  0.00  0.00    -0.107 NA
ATOM     19  C   UNL     1       2.894   6.792  -6.753  0.00  0.00    +0.059 A 
ENDROOT
BRANCH  13  20
ATOM     20  C   UNL     1      -0.869   7.225   1.496  0.00  0.00    +0.199 A 
ATOM     21  O   UNL     1      -0.063   7.098   2.533  0.00  0.00    -0.446 OA
ATOM     22  C   UNL     1      -0.744   6.883   3.623  0.00  0.00    +0.180 A 
ATOM     23  C   UNL     1      -2.049   6.614   3.269  0.00  0.00    +0.044 A 
ATOM     24  C   UNL     1      -2.135   6.831   1.909  0.00  0.00    +0.045 A 
ENDBRANCH  13  20
BRANCH   1  26
ATOM     25  C   UNL     1       4.210   6.786  -9.923  0.00  0.00    +0.253 C 
ATOM     26  O   UNL     1       3.363   7.488  -9.041  0.00  0.00    -0.468 OA
ENDBRANCH   1  26
BRANCH   2  27
ATOM     27  O   UNL     1       0.733   7.156  -9.625  0.00  0.00    -0.468 OA
ATOM     28  C   UNL     1       0.314   6.302 -10.682  0.00  0.00    +0.253 C 
ENDBRANCH   2  27
TORSDOF 3
ENDMDL
MODEL 4
REMARK VINA RESULT:      -7.6      1.892      8.859
REMARK  Name = 
REMARK  3 active torsions:
REMARK  status: ('A' for Active; 'I' for Inactive)
REMARK    1  A    between atoms: O_2  and  C_3
REMARK    2  A    between atoms: C_12  and  C_14
REMARK    3  A    between atoms: C_26  and  O_27
REMARK                            x       y       z     vdW  Elec       q    Type
REMARK                         _______ _______ _______ _____ _____    ______ ____
ROOT
ATOM      1  C   UNL     1       0.127   6.250  -2.436  0.00  0.00    +0.174 A 
ATOM      2  C   UNL     1       1.421   6.184  -1.936  0.00  0.00    +0.173 A 
ATOM      3  C   UNL     1       2.303   5.338  -2.569  0.00  0.00    +0.044 A 
ATOM      4  C   UNL     1       2.169   5.198  -3.941  0.00  0.00    +0.056 A 
ATOM      5  C   UNL     1       0.916   5.320  -4.511  0.00  0.00    +0.090 A 
ATOM      6  N   UNL     1       0.834   5.131  -5.836  0.00  0.00    -0.213 NA
ATOM      7  C   UNL     1       1.822   4.576  -6.571  0.00  0.00    +0.221 A 
ATOM      8  N   UNL     1       2.968   4.280  -5.911  0.00  0.00    -0.195 NA
ATOM      9  N   UNL     1       1.633   4.252  -7.955  0.00  0.00    -0.275 N 
ATOM     10  C   UNL     1       0.840   5.125  -8.816  0.00  0.00    +0.115 C 
ATOM     11  C   UNL     1       1.615   5.523 -10.063  0.00  0.00    +0.115 C 
ATOM     12  N   UNL     1       2.999   5.775  -9.672  0.00  0.00    -0.270 N 
ATOM     13  C   UNL     1       3.796   6.603 -10.529  0.00  0.00    +0.284 C 
ATOM     14  O   UNL     1       4.444   7.587 -10.062  0.00  0.00    -0.267 OA
ATOM     15  C   UNL     1       3.707   4.674  -9.027  0.00  0.00    +0.115 C 
ATOM     16  C   UNL     1       2.740   3.568  -8.618  0.00  0.00    +0.115 C 
ATOM     17  C   UNL     1       3.246   4.902  -4.764  0.00  0.00    +0.174 A 
ATOM     18  N   UNL     1       4.558   5.000  -4.246  0.00  0.00    -0.107 NA
ATOM     19  C   UNL     1      -0.062   5.976  -3.775  0.00  0.00    +0.059 A 
ENDROOT
BRANCH  13  20
ATOM     20  C   UNL     1       4.365   5.926 -11.700  0.00  0.00    +0.199 A 
ATOM     21  O   UNL     1       3.667   5.526 -12.747  0.00  0.00    -0.446 OA
ATOM     22  C   UNL     1       4.452   5.288 -13.760  0.00  0.00    +0.180 A 
ATOM     23  C   UNL     1       5.754   5.295 -13.307  0.00  0.00    +0.044 A 
ATOM     24  C   UNL     1       5.704   5.703 -11.990  0.00  0.00    +0.045 A 
ENDBRANCH  13  20
BRANCH   1  26
ATOM     25  C   UNL     1      -1.784   6.163  -0.890  0.00  0.00    +0.253 C 
ATOM     26  O   UNL     1      -0.817   6.867  -1.636  0.00  0.00    -0.468 OA
ENDBRANCH   1  26
BRANCH   2  27
ATOM     27  O   UNL     1       1.770   6.943  -0.815  0.00  0.00    -0.468 OA
ATOM     28  C   UNL     1       3.114   7.383  -0.668  0.00  0.00    +0.253 C 
ENDBRANCH   2  27
TORSDOF 3
ENDMDL
MODEL 5
REMARK VINA RESULT:      -7.6      3.217      8.684
REMARK  Name = 
REMARK  3 active torsions:
REMARK  status: ('A' for Active; 'I' for Inactive)
REMARK    1  A    between atoms: O_2  and  C_3
REMARK    2  A    between atoms: C_12  and  C_14
REMARK    3  A    between atoms: C_26  and  O_27
REMARK                            x       y       z     vdW  Elec       q    Type
REMARK                         _______ _______ _______ _____ _____    ______ ____
ROOT
ATOM      1  C   UNL     1       1.543   6.541  -0.155  0.00  0.00    +0.174 A 
ATOM      2  C   UNL     1       2.917   6.737  -0.207  0.00  0.00    +0.173 A 
ATOM      3  C   UNL     1       3.628   6.005  -1.131  0.00  0.00    +0.044 A 
ATOM      4  C   UNL     1       3.002   5.734  -2.337  0.00  0.00    +0.056 A 
ATOM      5  C   UNL     1       1.628   5.594  -2.367  0.00  0.00    +0.090 A 
ATOM      6  N   UNL     1       1.078   5.288  -3.551  0.00  0.00    -0.213 NA
ATOM      7  C   UNL     1       1.790   4.852  -4.612  0.00  0.00    +0.221 A 
ATOM      8  N   UNL     1       3.135   4.810  -4.457  0.00  0.00    -0.195 NA
ATOM      9  N   UNL     1       1.145   4.390  -5.806  0.00  0.00    -0.275 N 
ATOM     10  C   UNL     1      -0.068   5.043  -6.290  0.00  0.00    +0.115 C 
ATOM     11  C   UNL     1       0.074   5.465  -7.745  0.00  0.00    +0.115 C 
ATOM     12  N   UNL     1       1.427   5.980  -7.935  0.00  0.00    -0.270 N 
ATOM     13  C   UNL     1       1.659   6.861  -9.041  0.00  0.00    +0.284 C 
ATOM     14  O   UNL     1       2.239   7.975  -8.876  0.00  0.00    -0.267 OA
ATOM     15  C   UNL     1       2.524   5.072  -7.614  0.00  0.00    +0.115 C 
ATOM     16  C   UNL     1       2.017   3.854  -6.848  0.00  0.00    +0.115 C 
ATOM     17  C   UNL     1       3.713   5.561  -3.517  0.00  0.00    +0.174 A 
ATOM     18  N   UNL     1       5.079   5.922  -3.560  0.00  0.00    -0.107 NA
ATOM     19  C   UNL     1       0.907   6.131  -1.310  0.00  0.00    +0.059 A 
ENDROOT
BRANCH  13  20
ATOM     20  C   UNL     1       1.847   6.198 -10.338  0.00  0.00    +0.199 A 
ATOM     21  O   UNL     1       0.884   5.618 -11.030  0.00  0.00    -0.446 OA
ATOM     22  C   UNL     1       1.253   5.433 -12.266  0.00  0.00    +0.180 A 
ATOM     23  C   UNL     1       2.607   5.679 -12.354  0.00  0.00    +0.044 A 
ATOM     24  C   UNL     1       2.992   6.169 -11.123  0.00  0.00    +0.045 A 
ENDBRANCH  13  20
BRANCH   1  26
ATOM     25  C   UNL     1      -0.009   8.139   0.885  0.00  0.00    +0.253 C 
ATOM     26  O   UNL     1       0.884   7.050   0.948  0.00  0.00    -0.468 OA
ENDBRANCH   1  26
BRANCH   2  27
ATOM     27  O   UNL     1       3.522   7.632   0.680  0.00  0.00    -0.468 OA
ATOM     28  C   UNL     1       3.809   8.954   0.241  0.00  0.00    +0.253 C 
ENDBRANCH   2  27
TORSDOF 3
ENDMDL
MODEL 6
REMARK VINA RESULT:      -7.5      3.008      3.549
REMARK  Name = 
REMARK  3 active torsions:
REMARK  status: ('A' for Active; 'I' for Inactive)
REMARK    1  A    between atoms: O_2  and  C_3
REMARK    2  A    between atoms: C_12  and  C_14
REMARK    3  A    between atoms: C_26  and  O_27
REMARK                            x       y       z     vdW  Elec       q    Type
REMARK                         _______ _______ _______ _____ _____    ______ ____
ROOT
ATOM      1  C   UNL     1       5.726   5.628  -9.921  0.00  0.00    +0.174 A 
ATOM      2  C   UNL     1       4.900   6.659 -10.346  0.00  0.00    +0.173 A 
ATOM      3  C   UNL     1       3.676   6.788  -9.727  0.00  0.00    +0.044 A 
ATOM      4  C   UNL     1       3.613   6.467  -8.381  0.00  0.00    +0.056 A 
ATOM      5  C   UNL     1       4.458   5.495  -7.880  0.00  0.00    +0.090 A 
ATOM      6  N   UNL     1       4.325   5.191  -6.580  0.00  0.00    -0.213 NA
ATOM      7  C   UNL     1       3.266   5.569  -5.832  0.00  0.00    +0.221 A 
ATOM      8  N   UNL     1       2.352   6.360  -6.442  0.00  0.00    -0.195 NA
ATOM      9  N   UNL     1       3.091   5.093  -4.491  0.00  0.00    -0.275 N 
ATOM     10  C   UNL     1       4.244   4.911  -3.615  0.00  0.00    +0.115 C 
ATOM     11  C   UNL     1       4.059   5.646  -2.297  0.00  0.00    +0.115 C 
ATOM     12  N   UNL     1       3.427   6.932  -2.582  0.00  0.00    -0.270 N 
ATOM     13  C   UNL     1       3.580   7.981  -1.619  0.00  0.00    +0.284 C 
ATOM     14  O   UNL     1       3.979   9.132  -1.968  0.00  0.00    -0.267 OA
ATOM     15  C   UNL     1       2.139   6.889  -3.267  0.00  0.00    +0.115 C 
ATOM     16  C   UNL     1       1.859   5.495  -3.817  0.00  0.00    +0.115 C 
ATOM     17  C   UNL     1       2.704   7.064  -7.519  0.00  0.00    +0.174 A 
ATOM     18  N   UNL     1       1.997   8.211  -7.948  0.00  0.00    -0.107 NA
ATOM     19  C   UNL     1       5.590   5.186  -8.621  0.00  0.00    +0.059 A 
ENDROOT
BRANCH  13  20
ATOM     20  C   UNL     1       2.668   7.913  -0.471  0.00  0.00    +0.199 A 
ATOM     21  O   UNL     1       1.437   7.438  -0.518  0.00  0.00    -0.446 OA
ATOM     22  C   UNL     1       0.998   7.175   0.680  0.00  0.00    +0.180 A 
ATOM     23  C   UNL     1       1.878   7.720   1.591  0.00  0.00    +0.044 A 
ATOM     24  C   UNL     1       2.948   8.193   0.860  0.00  0.00    +0.045 A 
ENDBRANCH  13  20
BRANCH   1  26
ATOM     25  C   UNL     1       8.136   5.273 -10.256  0.00  0.00    +0.253 C 
ATOM     26  O   UNL     1       6.809   5.328 -10.727  0.00  0.00    -0.468 OA
ENDBRANCH   1  26
BRANCH   2  27
ATOM     27  O   UNL     1       5.317   7.500 -11.382  0.00  0.00    -0.468 OA
ATOM     28  C   UNL     1       6.440   8.348 -11.176  0.00  0.00    +0.253 C 
ENDBRANCH   2  27
TORSDOF 3
ENDMDL
MODEL 7
REMARK VINA RESULT:      -7.3      4.243      5.779
REMARK  Name = 
REMARK  3 active torsions:
REMARK  status: ('A' for Active; 'I' for Inactive)
REMARK    1  A    between atoms: O_2  and  C_3
REMARK    2  A    between atoms: C_12  and  C_14
REMARK    3  A    between atoms: C_26  and  O_27
REMARK                            x       y       z     vdW  Elec       q    Type
REMARK                         _______ _______ _______ _____ _____    ______ ____
ROOT
ATOM      1  C   UNL     1       2.584   5.283  -8.310  0.00  0.00    +0.174 A 
ATOM      2  C   UNL     1       1.439   6.065  -8.383  0.00  0.00    +0.173 A 
ATOM      3  C   UNL     1       0.584   6.040  -7.303  0.00  0.00    +0.044 A 
ATOM      4  C   UNL     1       1.156   5.907  -6.049  0.00  0.00    +0.056 A 
ATOM      5  C   UNL     1       2.334   5.197  -5.918  0.00  0.00    +0.090 A 
ATOM      6  N   UNL     1       2.822   5.060  -4.676  0.00  0.00    -0.213 NA
ATOM      7  C   UNL     1       2.107   5.327  -3.562  0.00  0.00    +0.221 A 
ATOM      8  N   UNL     1       0.864   5.832  -3.753  0.00  0.00    -0.195 NA
ATOM      9  N   UNL     1       2.614   5.020  -2.257  0.00  0.00    -0.275 N 
ATOM     10  C   UNL     1       4.032   5.190  -1.956  0.00  0.00    +0.115 C 
ATOM     11  C   UNL     1       4.236   6.055  -0.721  0.00  0.00    +0.115 C 
ATOM     12  N   UNL     1       3.260   7.140  -0.764  0.00  0.00    -0.270 N 
ATOM     13  C   UNL     1       3.543   8.324  -0.009  0.00  0.00    +0.284 C 
ATOM     14  O   UNL     1       3.479   9.470  -0.548  0.00  0.00    -0.267 OA
ATOM     15  C   UNL     1       1.854   6.753  -0.823  0.00  0.00    +0.115 C 
ATOM     16  C   UNL     1       1.710   5.267  -1.136  0.00  0.00    +0.115 C 
ATOM     17  C   UNL     1       0.567   6.432  -4.907  0.00  0.00    +0.174 A 
ATOM     18  N   UNL     1      -0.501   7.348  -5.040  0.00  0.00    -0.107 NA
ATOM     19  C   UNL     1       3.102   5.012  -7.060  0.00  0.00    +0.059 A 
ENDROOT
BRANCH  13  20
ATOM     20  C   UNL     1       3.226   8.244   1.422  0.00  0.00    +0.199 A 
ATOM     21  O   UNL     1       3.841   7.453   2.282  0.00  0.00    -0.446 OA
ATOM     22  C   UNL     1       3.608   7.835   3.506  0.00  0.00    +0.180 A 
ATOM     23  C   UNL     1       2.600   8.775   3.480  0.00  0.00    +0.044 A 
ATOM     24  C   UNL     1       2.352   9.040   2.150  0.00  0.00    +0.045 A 
ENDBRANCH  13  20
BRANCH   1  26
ATOM     25  C   UNL     1       4.635   5.432  -9.658  0.00  0.00    +0.253 C 
ATOM     26  O   UNL     1       3.279   5.088  -9.489  0.00  0.00    -0.468 OA
ENDBRANCH   1  26
BRANCH   2  27
ATOM     27  O   UNL     1       1.184   6.816  -9.534  0.00  0.00    -0.468 OA
ATOM     28  C   UNL     1       0.149   6.402 -10.417  0.00  0.00    +0.253 C 
ENDBRANCH   2  27
TORSDOF 3
ENDMDL
MODEL 8
REMARK VINA RESULT:      -7.2      3.702      9.268
REMARK  Name = 
REMARK  3 active torsions:
REMARK  status: ('A' for Active; 'I' for Inactive)
REMARK    1  A    between atoms: O_2  and  C_3
REMARK    2  A    between atoms: C_12  and  C_14
REMARK    3  A    between atoms: C_26  and  O_27
REMARK                            x       y       z     vdW  Elec       q    Type
REMARK                         _______ _______ _______ _____ _____    ______ ____
ROOT
ATOM      1  C   UNL     1       1.044   7.694   0.928  0.00  0.00    +0.174 A 
ATOM      2  C   UNL     1       2.379   8.077   0.940  0.00  0.00    +0.173 A 
ATOM      3  C   UNL     1       3.245   7.388   0.120  0.00  0.00    +0.044 A 
ATOM      4  C   UNL     1       2.745   6.945  -1.094  0.00  0.00    +0.056 A 
ATOM      5  C   UNL     1       1.408   6.611  -1.190  0.00  0.00    +0.090 A 
ATOM      6  N   UNL     1       0.986   6.144  -2.375  0.00  0.00    -0.213 NA
ATOM      7  C   UNL     1       1.822   5.737  -3.355  0.00  0.00    +0.221 A 
ATOM      8  N   UNL     1       3.146   5.897  -3.120  0.00  0.00    -0.195 NA
ATOM      9  N   UNL     1       1.329   5.104  -4.543  0.00  0.00    -0.275 N 
ATOM     10  C   UNL     1       0.074   5.542  -5.147  0.00  0.00    +0.115 C 
ATOM     11  C   UNL     1       0.256   5.873  -6.620  0.00  0.00    +0.115 C 
ATOM     12  N   UNL     1       1.536   6.559  -6.774  0.00  0.00    -0.270 N 
ATOM     13  C   UNL     1       1.720   7.380  -7.933  0.00  0.00    +0.284 C 
ATOM     14  O   UNL     1       2.130   8.574  -7.826  0.00  0.00    -0.267 OA
ATOM     15  C   UNL     1       2.722   5.840  -6.318  0.00  0.00    +0.115 C 
ATOM     16  C   UNL     1       2.335   4.622  -5.485  0.00  0.00    +0.115 C 
ATOM     17  C   UNL     1       3.551   6.788  -2.213  0.00  0.00    +0.174 A 
ATOM     18  N   UNL     1       4.855   7.335  -2.207  0.00  0.00    -0.107 NA
ATOM     19  C   UNL     1       0.550   7.116  -0.224  0.00  0.00    +0.059 A 
ENDROOT
BRANCH  13  20
ATOM     20  C   UNL     1       2.085   6.659  -9.158  0.00  0.00    +0.199 A 
ATOM     21  O   UNL     1       3.324   6.441  -9.559  0.00  0.00    -0.446 OA
ATOM     22  C   UNL     1       3.359   5.499 -10.459  0.00  0.00    +0.180 A 
ATOM     23  C   UNL     1       2.065   5.237 -10.858  0.00  0.00    +0.044 A 
ATOM     24  C   UNL     1       1.247   5.976 -10.030  0.00  0.00    +0.045 A 
ENDBRANCH  13  20
BRANCH   1  26
ATOM     25  C   UNL     1      -1.142   7.967   2.018  0.00  0.00    +0.253 C 
ATOM     26  O   UNL     1       0.249   8.184   1.946  0.00  0.00    -0.468 OA
ENDBRANCH   1  26
BRANCH   2  27
ATOM     27  O   UNL     1       2.795   9.112   1.783  0.00  0.00    -0.468 OA
ATOM     28  C   UNL     1       3.619  10.145   1.259  0.00  0.00    +0.253 C 
ENDBRANCH   2  27
TORSDOF 3
ENDMDL
MODEL 9
REMARK VINA RESULT:      -7.1      2.574      4.145
REMARK  Name = 
REMARK  3 active torsions:
REMARK  status: ('A' for Active; 'I' for Inactive)
REMARK    1  A    between atoms: O_2  and  C_3
REMARK    2  A    between atoms: C_12  and  C_14
REMARK    3  A    between atoms: C_26  and  O_27
REMARK                            x       y       z     vdW  Elec       q    Type
REMARK                         _______ _______ _______ _____ _____    ______ ____
ROOT
ATOM      1  C   UNL     1       6.396   7.032 -15.346  0.00  0.00    +0.174 A 
ATOM      2  C   UNL     1       5.126   7.223 -15.874  0.00  0.00    +0.173 A 
ATOM      3  C   UNL     1       4.095   6.490 -15.330  0.00  0.00    +0.044 A 
ATOM      4  C   UNL     1       4.159   6.222 -13.973  0.00  0.00    +0.056 A 
ATOM      5  C   UNL     1       5.396   6.087 -13.371  0.00  0.00    +0.090 A 
ATOM      6  N   UNL     1       5.402   5.783 -12.064  0.00  0.00    -0.213 NA
ATOM      7  C   UNL     1       4.312   5.345 -11.397  0.00  0.00    +0.221 A 
ATOM      8  N   UNL     1       3.156   5.299 -12.101  0.00  0.00    -0.195 NA
ATOM      9  N   UNL     1       4.400   4.887 -10.042  0.00  0.00    -0.275 N 
ATOM     10  C   UNL     1       5.297   5.544  -9.097  0.00  0.00    +0.115 C 
ATOM     11  C   UNL     1       4.559   5.966  -7.836  0.00  0.00    +0.115 C 
ATOM     12  N   UNL     1       3.249   6.477  -8.230  0.00  0.00    -0.270 N 
ATOM     13  C   UNL     1       2.573   7.357  -7.324  0.00  0.00    +0.284 C 
ATOM     14  O   UNL     1       2.112   8.470  -7.719  0.00  0.00    -0.267 OA
ATOM     15  C   UNL     1       2.389   5.565  -8.978  0.00  0.00    +0.115 C 
ATOM     16  C   UNL     1       3.173   4.348  -9.460  0.00  0.00    +0.115 C 
ATOM     17  C   UNL     1       3.021   6.047 -13.198  0.00  0.00    +0.174 A 
ATOM     18  N   UNL     1       1.762   6.404 -13.731  0.00  0.00    -0.107 NA
ATOM     19  C   UNL     1       6.492   6.625 -14.031  0.00  0.00    +0.059 A 
ENDROOT
BRANCH  13  20
ATOM     20  C   UNL     1       1.861   6.696  -6.224  0.00  0.00    +0.199 A 
ATOM     21  O   UNL     1       2.437   5.945  -5.302  0.00  0.00    -0.446 OA
ATOM     22  C   UNL     1       1.647   5.785  -4.278  0.00  0.00    +0.180 A 
ATOM     23  C   UNL     1       0.394   6.246  -4.625  0.00  0.00    +0.044 A 
ATOM     24  C   UNL     1       0.526   6.829  -5.868  0.00  0.00    +0.045 A 
ENDBRANCH  13  20
BRANCH   1  26
ATOM     25  C   UNL     1       7.959   6.936 -17.241  0.00  0.00    +0.253 C 
ATOM     26  O   UNL     1       7.454   7.543 -16.073  0.00  0.00    -0.468 OA
ENDBRANCH   1  26
BRANCH   2  27
ATOM     27  O   UNL     1       4.944   8.116 -16.935  0.00  0.00    -0.468 OA
ATOM     28  C   UNL     1       4.364   7.646 -18.145  0.00  0.00    +0.253 C 
ENDBRANCH   2  27
TORSDOF 3
ENDMDL
