MODEL 1
REMARK VINA RESULT:      -6.5      0.000      0.000
REMARK  Name = 
REMARK  1 active torsions:
REMARK  status: ('A' for Active; 'I' for Inactive)
REMARK    1  A    between atoms: C_5  and  C_6
REMARK                            x       y       z     vdW  Elec       q    Type
REMARK                         _______ _______ _______ _____ _____    ______ ____
ROOT
ATOM      1  N   UNL     1      -2.749   4.801  -2.637  0.00  0.00    -0.085 NA
ATOM      2  C   UNL     1      -1.507   5.479  -2.432  0.00  0.00    +0.276 A 
ATOM      3  N   UNL     1      -0.550   4.989  -1.605  0.00  0.00    -0.190 NA
ATOM      4  C   UNL     1       0.759   5.040  -1.954  0.00  0.00    +0.192 A 
ATOM      5  N   UNL     1       1.803   4.816  -0.997  0.00  0.00    -0.105 NA
ATOM      6  C   UNL     1       1.087   5.810  -3.065  0.00  0.00    +0.138 A 
ATOM      7  N   UNL     1       0.168   6.680  -3.554  0.00  0.00    -0.142 NA
ATOM      8  N   UNL     1      -1.112   6.503  -3.225  0.00  0.00    -0.109 NA
ENDROOT
BRANCH   6   9
ATOM      9  C   UNL     1       2.313   5.476  -3.756  0.00  0.00    +0.034 A 
ATOM     10  C   UNL     1       3.402   6.316  -3.584  0.00  0.00    +0.070 A 
ATOM     11 CL   UNL     1       3.301   7.602  -2.384  0.00  0.00    -0.081 Cl
ATOM     12  C   UNL     1       4.377   6.475  -4.552  0.00  0.00    +0.068 A 
ATOM     13 CL   UNL     1       5.738   7.524  -4.246  0.00  0.00    -0.081 Cl
ATOM     14  C   UNL     1       4.298   5.749  -5.731  0.00  0.00    +0.012 A 
ATOM     15  C   UNL     1       3.211   4.944  -5.941  0.00  0.00    +0.001 A 
ATOM     16  C   UNL     1       2.301   4.738  -4.934  0.00  0.00    +0.003 A 
ENDBRANCH   6   9
TORSDOF 1
ENDMDL
MODEL 2
REMARK VINA RESULT:      -6.5      2.833      3.788
REMARK  Name = 
REMARK  1 active torsions:
REMARK  status: ('A' for Active; 'I' for Inactive)
REMARK    1  A    between atoms: C_5  and  C_6
REMARK                            x       y       z     vdW  Elec       q    Type
REMARK                         _______ _______ _______ _____ _____    ______ ____
ROOT
ATOM      1  N   UNL     1      -1.799   6.904  -0.145  0.00  0.00    -0.085 NA
ATOM      2  C   UNL     1      -2.340   6.607  -1.434  0.00  0.00    +0.276 A 
ATOM      3  N   UNL     1      -2.297   7.501  -2.453  0.00  0.00    -0.190 NA
ATOM      4  C   UNL     1      -2.006   7.098  -3.715  0.00  0.00    +0.192 A 
ATOM      5  N   UNL     1      -2.246   7.942  -4.849  0.00  0.00    -0.105 NA
ATOM      6  C   UNL     1      -1.984   5.728  -3.952  0.00  0.00    +0.138 A 
ATOM      7  N   UNL     1      -2.523   4.894  -3.028  0.00  0.00    -0.142 NA
ATOM      8  N   UNL     1      -2.697   5.349  -1.787  0.00  0.00    -0.109 NA
ENDROOT
BRANCH   6   9
ATOM      9  C   UNL     1      -1.193   5.269  -5.072  0.00  0.00    +0.034 A 
ATOM     10  C   UNL     1       0.187   5.284  -4.937  0.00  0.00    +0.070 A 
ATOM     11 CL   UNL     1       0.883   5.650  -3.361  0.00  0.00    -0.081 Cl
ATOM     12  C   UNL     1       1.037   5.440  -6.018  0.00  0.00    +0.068 A 
ATOM     13 CL   UNL     1       2.765   5.412  -5.772  0.00  0.00    -0.081 Cl
ATOM     14  C   UNL     1       0.509   5.552  -7.295  0.00  0.00    +0.012 A 
ATOM     15  C   UNL     1      -0.851   5.581  -7.449  0.00  0.00    +0.001 A 
ATOM     16  C   UNL     1      -1.671   5.341  -6.375  0.00  0.00    +0.003 A 
ENDBRANCH   6   9
TORSDOF 1
ENDMDL
MODEL 3
REMARK VINA RESULT:      -6.5      5.427      6.974
REMARK  Name = 
REMARK  1 active torsions:
REMARK  status: ('A' for Active; 'I' for Inactive)
REMARK    1  A    between atoms: C_5  and  C_6
REMARK                            x       y       z     vdW  Elec       q    Type
REMARK                         _______ _______ _______ _____ _____    ______ ____
ROOT
ATOM      1  N   UNL     1       1.819   3.662  -6.073  0.00  0.00    -0.085 NA
ATOM      2  C   UNL     1       2.037   4.298  -7.334  0.00  0.00    +0.276 A 
ATOM      3  N   UNL     1       1.981   5.646  -7.476  0.00  0.00    -0.190 NA
ATOM      4  C   UNL     1       2.883   6.299  -8.250  0.00  0.00    +0.192 A 
ATOM      5  N   UNL     1       2.679   7.656  -8.664  0.00  0.00    -0.105 NA
ATOM      6  C   UNL     1       3.704   5.519  -9.058  0.00  0.00    +0.138 A 
ATOM      7  N   UNL     1       3.383   4.216  -9.255  0.00  0.00    -0.142 NA
ATOM      8  N   UNL     1       2.551   3.629  -8.394  0.00  0.00    -0.109 NA
ENDROOT
BRANCH   6   9
ATOM      9  C   UNL     1       4.967   6.096  -9.461  0.00  0.00    +0.034 A 
ATOM     10  C   UNL     1       5.102   6.496 -10.782  0.00  0.00    +0.070 A 
ATOM     11 CL   UNL     1       3.682   6.478 -11.825  0.00  0.00    -0.081 Cl
ATOM     12  C   UNL     1       6.323   6.508 -11.433  0.00  0.00    +0.068 A 
ATOM     13 CL   UNL     1       6.417   7.059 -13.086  0.00  0.00    -0.081 Cl
ATOM     14  C   UNL     1       7.470   6.144 -10.744  0.00  0.00    +0.012 A 
ATOM     15  C   UNL     1       7.357   5.707  -9.452  0.00  0.00    +0.001 A 
ATOM     16  C   UNL     1       6.150   5.783  -8.803  0.00  0.00    +0.003 A 
ENDBRANCH   6   9
TORSDOF 1
ENDMDL
MODEL 4
REMARK VINA RESULT:      -6.5      3.393      4.157
REMARK  Name = 
REMARK  1 active torsions:
REMARK  status: ('A' for Active; 'I' for Inactive)
REMARK    1  A    between atoms: C_5  and  C_6
REMARK                            x       y       z     vdW  Elec       q    Type
REMARK                         _______ _______ _______ _____ _____    ______ ____
ROOT
ATOM      1  N   UNL     1      -1.949   6.346   0.255  0.00  0.00    -0.085 NA
ATOM      2  C   UNL     1      -2.220   6.286  -1.147  0.00  0.00    +0.276 A 
ATOM      3  N   UNL     1      -2.212   7.395  -1.928  0.00  0.00    -0.190 NA
ATOM      4  C   UNL     1      -1.660   7.366  -3.166  0.00  0.00    +0.192 A 
ATOM      5  N   UNL     1      -1.898   8.408  -4.121  0.00  0.00    -0.105 NA
ATOM      6  C   UNL     1      -1.322   6.118  -3.678  0.00  0.00    +0.138 A 
ATOM      7  N   UNL     1      -1.809   5.007  -3.072  0.00  0.00    -0.142 NA
ATOM      8  N   UNL     1      -2.255   5.110  -1.819  0.00  0.00    -0.109 NA
ENDROOT
BRANCH   6   9
ATOM      9  C   UNL     1      -0.296   6.083  -4.697  0.00  0.00    +0.034 A 
ATOM     10  C   UNL     1      -0.698   5.909  -6.013  0.00  0.00    +0.070 A 
ATOM     11 CL   UNL     1      -2.418   5.956  -6.389  0.00  0.00    -0.081 Cl
ATOM     12  C   UNL     1       0.106   5.301  -6.960  0.00  0.00    +0.068 A 
ATOM     13 CL   UNL     1      -0.456   5.152  -8.606  0.00  0.00    -0.081 Cl
ATOM     14  C   UNL     1       1.378   4.874  -6.608  0.00  0.00    +0.012 A 
ATOM     15  C   UNL     1       1.781   4.998  -5.306  0.00  0.00    +0.001 A 
ATOM     16  C   UNL     1       1.001   5.679  -4.405  0.00  0.00    +0.003 A 
ENDBRANCH   6   9
TORSDOF 1
ENDMDL
MODEL 5
REMARK VINA RESULT:      -6.5      3.659      5.688
REMARK  Name = 
REMARK  1 active torsions:
REMARK  status: ('A' for Active; 'I' for Inactive)
REMARK    1  A    between atoms: C_5  and  C_6
REMARK                            x       y       z     vdW  Elec       q    Type
REMARK                         _______ _______ _______ _____ _____    ______ ____
ROOT
ATOM      1  N   UNL     1       3.366   4.247  -8.900  0.00  0.00    -0.085 NA
ATOM      2  C   UNL     1       2.972   4.430  -7.538  0.00  0.00    +0.276 A 
ATOM      3  N   UNL     1       3.084   5.628  -6.914  0.00  0.00    -0.190 NA
ATOM      4  C   UNL     1       2.102   6.075  -6.091  0.00  0.00    +0.192 A 
ATOM      5  N   UNL     1       2.314   7.171  -5.192  0.00  0.00    -0.105 NA
ATOM      6  C   UNL     1       1.109   5.166  -5.741  0.00  0.00    +0.138 A 
ATOM      7  N   UNL     1       1.312   3.847  -5.984  0.00  0.00    -0.142 NA
ATOM      8  N   UNL     1       2.244   3.501  -6.873  0.00  0.00    -0.109 NA
ENDROOT
BRANCH   6   9
ATOM      9  C   UNL     1      -0.167   5.713  -5.338  0.00  0.00    +0.034 A 
ATOM     10  C   UNL     1      -0.507   5.638  -3.996  0.00  0.00    +0.070 A 
ATOM     11 CL   UNL     1       0.704   5.084  -2.842  0.00  0.00    -0.081 Cl
ATOM     12  C   UNL     1      -1.821   5.567  -3.566  0.00  0.00    +0.068 A 
ATOM     13 CL   UNL     1      -2.170   5.511  -1.857  0.00  0.00    -0.081 Cl
ATOM     14  C   UNL     1      -2.849   5.609  -4.495  0.00  0.00    +0.012 A 
ATOM     15  C   UNL     1      -2.538   5.642  -5.827  0.00  0.00    +0.001 A 
ATOM     16  C   UNL     1      -1.233   5.795  -6.226  0.00  0.00    +0.003 A 
ENDBRANCH   6   9
TORSDOF 1
ENDMDL
MODEL 6
REMARK VINA RESULT:      -6.3      4.751      6.476
REMARK  Name = 
REMARK  1 active torsions:
REMARK  status: ('A' for Active; 'I' for Inactive)
REMARK    1  A    between atoms: C_5  and  C_6
REMARK                            x       y       z     vdW  Elec       q    Type
REMARK                         _______ _______ _______ _____ _____    ______ ____
ROOT
ATOM      1  N   UNL     1       3.238   5.748 -11.064  0.00  0.00    -0.085 NA
ATOM      2  C   UNL     1       3.434   5.534  -9.664  0.00  0.00    +0.276 A 
ATOM      3  N   UNL     1       3.362   6.549  -8.767  0.00  0.00    -0.190 NA
ATOM      4  C   UNL     1       2.745   6.374  -7.572  0.00  0.00    +0.192 A 
ATOM      5  N   UNL     1       2.910   7.306  -6.496  0.00  0.00    -0.105 NA
ATOM      6  C   UNL     1       2.405   5.071  -7.222  0.00  0.00    +0.138 A 
ATOM      7  N   UNL     1       2.946   4.042  -7.920  0.00  0.00    -0.142 NA
ATOM      8  N   UNL     1       3.457   4.292  -9.126  0.00  0.00    -0.109 NA
ENDROOT
BRANCH   6   9
ATOM      9  C   UNL     1       1.326   4.909  -6.272  0.00  0.00    +0.034 A 
ATOM     10  C   UNL     1       0.037   5.175  -6.707  0.00  0.00    +0.070 A 
ATOM     11 CL   UNL     1      -0.235   5.483  -8.420  0.00  0.00    -0.081 Cl
ATOM     12  C   UNL     1      -0.958   5.618  -5.853  0.00  0.00    +0.068 A 
ATOM     13 CL   UNL     1      -2.566   5.897  -6.469  0.00  0.00    -0.081 Cl
ATOM     14  C   UNL     1      -0.683   5.773  -4.503  0.00  0.00    +0.012 A 
ATOM     15  C   UNL     1       0.593   5.556  -4.057  0.00  0.00    +0.001 A 
ATOM     16  C   UNL     1       1.540   5.038  -4.905  0.00  0.00    +0.003 A 
ENDBRANCH   6   9
TORSDOF 1
ENDMDL
MODEL 7
REMARK VINA RESULT:      -6.1      3.618      5.084
REMARK  Name = 
REMARK  1 active torsions:
REMARK  status: ('A' for Active; 'I' for Inactive)
REMARK    1  A    between atoms: C_5  and  C_6
REMARK                            x       y       z     vdW  Elec       q    Type
REMARK                         _______ _______ _______ _____ _____    ______ ____
ROOT
ATOM      1  N   UNL     1       2.972   6.508 -10.415  0.00  0.00    -0.085 NA
ATOM      2  C   UNL     1       2.415   6.459  -9.100  0.00  0.00    +0.276 A 
ATOM      3  N   UNL     1       2.299   5.296  -8.413  0.00  0.00    -0.190 NA
ATOM      4  C   UNL     1       2.581   5.243  -7.087  0.00  0.00    +0.192 A 
ATOM      5  N   UNL     1       2.186   4.128  -6.277  0.00  0.00    -0.105 NA
ATOM      6  C   UNL     1       2.764   6.456  -6.432  0.00  0.00    +0.138 A 
ATOM      7  N   UNL     1       2.377   7.599  -7.049  0.00  0.00    -0.142 NA
ATOM      8  N   UNL     1       2.203   7.581  -8.371  0.00  0.00    -0.109 NA
ENDROOT
BRANCH   6   9
ATOM      9  C   UNL     1       3.556   6.433  -5.222  0.00  0.00    +0.034 A 
ATOM     10  C   UNL     1       2.890   6.555  -4.012  0.00  0.00    +0.070 A 
ATOM     11 CL   UNL     1       1.129   6.513  -4.004  0.00  0.00    -0.081 Cl
ATOM     12  C   UNL     1       3.481   7.111  -2.891  0.00  0.00    +0.068 A 
ATOM     13 CL   UNL     1       2.589   7.196  -1.394  0.00  0.00    -0.081 Cl
ATOM     14  C   UNL     1       4.799   7.537  -2.952  0.00  0.00    +0.012 A 
ATOM     15  C   UNL     1       5.465   7.465  -4.146  0.00  0.00    +0.001 A 
ATOM     16  C   UNL     1       4.886   6.834  -5.219  0.00  0.00    +0.003 A 
ENDBRANCH   6   9
TORSDOF 1
ENDMDL
MODEL 8
REMARK VINA RESULT:      -6.1      5.671      7.011
REMARK  Name = 
REMARK  1 active torsions:
REMARK  status: ('A' for Active; 'I' for Inactive)
REMARK    1  A    between atoms: C_5  and  C_6
REMARK                            x       y       z     vdW  Elec       q    Type
REMARK                         _______ _______ _______ _____ _____    ______ ____
ROOT
ATOM      1  N   UNL     1       1.838   6.831  -4.908  0.00  0.00    -0.085 NA
ATOM      2  C   UNL     1       2.451   6.529  -6.163  0.00  0.00    +0.276 A 
ATOM      3  N   UNL     1       2.490   5.266  -6.657  0.00  0.00    -0.190 NA
ATOM      4  C   UNL     1       2.269   5.031  -7.974  0.00  0.00    +0.192 A 
ATOM      5  N   UNL     1       2.596   3.774  -8.580  0.00  0.00    -0.105 NA
ATOM      6  C   UNL     1       2.235   6.138  -8.816  0.00  0.00    +0.138 A 
ATOM      7  N   UNL     1       2.698   7.327  -8.356  0.00  0.00    -0.142 NA
ATOM      8  N   UNL     1       2.805   7.500  -7.039  0.00  0.00    -0.109 NA
ENDROOT
BRANCH   6   9
ATOM      9  C   UNL     1       1.505   5.995 -10.057  0.00  0.00    +0.034 A 
ATOM     10  C   UNL     1       2.238   5.887 -11.228  0.00  0.00    +0.070 A 
ATOM     11 CL   UNL     1       3.988   5.715 -11.123  0.00  0.00    -0.081 Cl
ATOM     12  C   UNL     1       1.750   6.314 -12.451  0.00  0.00    +0.068 A 
ATOM     13 CL   UNL     1       2.719   6.110 -13.888  0.00  0.00    -0.081 Cl
ATOM     14  C   UNL     1       0.469   6.839 -12.533  0.00  0.00    +0.012 A 
ATOM     15  C   UNL     1      -0.258   6.993 -11.384  0.00  0.00    +0.001 A 
ATOM     16  C   UNL     1       0.213   6.487 -10.197  0.00  0.00    +0.003 A 
ENDBRANCH   6   9
TORSDOF 1
ENDMDL
MODEL 9
REMARK VINA RESULT:      -6.1      3.581      5.219
REMARK  Name = 
REMARK  1 active torsions:
REMARK  status: ('A' for Active; 'I' for Inactive)
REMARK    1  A    between atoms: C_5  and  C_6
REMARK                            x       y       z     vdW  Elec       q    Type
REMARK                         _______ _______ _______ _____ _____    ______ ____
ROOT
ATOM      1  N   UNL     1       4.793   6.443  -2.984  0.00  0.00    -0.085 NA
ATOM      2  C   UNL     1       4.262   6.264  -4.299  0.00  0.00    +0.276 A 
ATOM      3  N   UNL     1       3.746   5.078  -4.709  0.00  0.00    -0.190 NA
ATOM      4  C   UNL     1       2.614   5.037  -5.454  0.00  0.00    +0.192 A 
ATOM      5  N   UNL     1       2.215   3.849  -6.150  0.00  0.00    -0.105 NA
ATOM      6  C   UNL     1       2.149   6.244  -5.965  0.00  0.00    +0.138 A 
ATOM      7  N   UNL     1       2.970   7.323  -5.948  0.00  0.00    -0.142 NA
ATOM      8  N   UNL     1       4.016   7.313  -5.120  0.00  0.00    -0.109 NA
ENDROOT
BRANCH   6   9
ATOM      9  C   UNL     1       0.740   6.321  -6.283  0.00  0.00    +0.034 A 
ATOM     10  C   UNL     1      -0.159   6.359  -5.228  0.00  0.00    +0.070 A 
ATOM     11 CL   UNL     1       0.461   6.526  -3.588  0.00  0.00    -0.081 Cl
ATOM     12  C   UNL     1      -1.449   5.867  -5.334  0.00  0.00    +0.068 A 
ATOM     13 CL   UNL     1      -2.534   5.984  -3.973  0.00  0.00    -0.081 Cl
ATOM     14  C   UNL     1      -1.886   5.346  -6.542  0.00  0.00    +0.012 A 
ATOM     15  C   UNL     1      -1.004   5.260  -7.585  0.00  0.00    +0.001 A 
ATOM     16  C   UNL     1       0.241   5.830  -7.483  0.00  0.00    +0.003 A 
ENDBRANCH   6   9
TORSDOF 1
ENDMDL
