MODEL 1
REMARK VINA RESULT:      -8.8      0.000      0.000
REMARK  Name = 
REMARK  7 active torsions:
REMARK  status: ('A' for Active; 'I' for Inactive)
REMARK    1  A    between atoms: N_2  and  C_4
REMARK    2  A    between atoms: C_4  and  C_5
REMARK    3  A    between atoms: C_6  and  C_7
REMARK    4  A    between atoms: N_9  and  C_10
REMARK    5  A    between atoms: C_15  and  O_16
REMARK    6  A    between atoms: O_16  and  C_17
REMARK    7  A    between atoms: N_26  and  C_27
REMARK                            x       y       z     vdW  Elec       q    Type
REMARK                         _______ _______ _______ _____ _____    ______ ____
ROOT
ATOM      1  C   UNL     1       2.093   5.383  -5.983  0.00  0.00    +0.108 A 
ATOM      2  C   UNL     1       3.360   5.687  -5.491  0.00  0.00    +0.155 A 
ATOM      3  C   UNL     1       4.374   5.643  -6.440  0.00  0.00    +0.057 A 
ATOM      4  C   UNL     1       4.057   5.677  -7.795  0.00  0.00    +0.089 A 
ATOM      5  N   UNL     1       5.003   5.543  -8.741  0.00  0.00    -0.224 NA
ATOM      6  C   UNL     1       4.676   5.823 -10.018  0.00  0.00    +0.200 A 
ATOM      7  N   UNL     1       3.486   6.405 -10.309  0.00  0.00    -0.207 NA
ATOM      8  C   UNL     1       2.595   6.672  -9.319  0.00  0.00    +0.155 A 
ATOM      9  N   UNL     1       1.293   7.189  -9.622  0.00  0.00    -0.194 NA
ATOM     10  C   UNL     1       2.742   5.814  -8.232  0.00  0.00    +0.053 A 
ATOM     11  C   UNL     1       1.740   5.596  -7.312  0.00  0.00    +0.024 A 
ENDROOT
BRANCH   9  12
ATOM     12  C   UNL     1       0.601   6.539 -10.695  0.00  0.00    +0.073 A 
ATOM     13  C   UNL     1       0.808   6.989 -11.980  0.00  0.00    +0.030 A 
ATOM     14  C   UNL     1       0.778   6.082 -13.029  0.00  0.00    +0.086 A 
ATOM     15 CL   UNL     1       0.629   6.665 -14.677  0.00  0.00    -0.080 Cl
ATOM     16  C   UNL     1       0.541   4.740 -12.792  0.00  0.00    +0.151 A 
ATOM     17  F   UNL     1       0.523   3.898 -13.861  0.00  0.00    -0.203 F 
ATOM     18  C   UNL     1       0.015   4.344 -11.567  0.00  0.00    +0.032 A 
ATOM     19  C   UNL     1       0.296   5.195 -10.506  0.00  0.00    +0.019 A 
ENDBRANCH   9  12
BRANCH   1  21
ATOM     20  C   UNL     1       0.364   5.439  -4.253  0.00  0.00    +0.269 C 
ATOM     21  N   UNL     1       1.244   4.666  -5.079  0.00  0.00    -0.172 NA
ATOM     22  O   UNL     1      -0.007   6.532  -4.782  0.00  0.00    -0.268 OA
BRANCH  20  24
ATOM     23  C   UNL     1       0.134   6.208  -2.004  0.00  0.00    -0.004 C 
ATOM     24  C   UNL     1       0.144   5.189  -2.843  0.00  0.00    +0.057 C 
BRANCH  23  25
ATOM     25  C   UNL     1      -0.673   6.250  -0.752  0.00  0.00    +0.099 C 
BRANCH  25  27
ATOM     26  C   UNL     1      -1.947   7.730   0.218  0.00  0.00    +0.090 C 
ATOM     27  N   UNL     1      -1.624   7.335  -0.910  0.00  0.00    -0.267 NA
ATOM     28  C   UNL     1      -2.740   6.887  -1.703  0.00  0.00    +0.090 C 
ENDBRANCH  25  27
ENDBRANCH  23  25
ENDBRANCH  20  24
ENDBRANCH   1  21
BRANCH   2  29
ATOM     29  O   UNL     1       3.327   6.522  -4.393  0.00  0.00    -0.475 OA
BRANCH  29  30
ATOM     30  C   UNL     1       4.540   6.391  -3.432  0.00  0.00    +0.198 C 
ATOM     31  C   UNL     1       3.789   5.181  -2.571  0.00  0.00    +0.185 C 
ATOM     32  O   UNL     1       4.248   5.466  -1.311  0.00  0.00    -0.350 OA
ATOM     33  C   UNL     1       4.425   6.814  -1.163  0.00  0.00    +0.146 C 
ATOM     34  C   UNL     1       3.909   7.515  -2.378  0.00  0.00    +0.078 C 
ENDBRANCH  29  30
ENDBRANCH   2  29
TORSDOF 7
ENDMDL
MODEL 2
REMARK VINA RESULT:      -8.8      4.755     10.022
REMARK  Name = 
REMARK  7 active torsions:
REMARK  status: ('A' for Active; 'I' for Inactive)
REMARK    1  A    between atoms: N_2  and  C_4
REMARK    2  A    between atoms: C_4  and  C_5
REMARK    3  A    between atoms: C_6  and  C_7
REMARK    4  A    between atoms: N_9  and  C_10
REMARK    5  A    between atoms: C_15  and  O_16
REMARK    6  A    between atoms: O_16  and  C_17
REMARK    7  A    between atoms: N_26  and  C_27
REMARK                            x       y       z     vdW  Elec       q    Type
REMARK                         _______ _______ _______ _____ _____    ______ ____
ROOT
ATOM      1  C   UNL     1       3.022   5.422  -9.891  0.00  0.00    +0.108 A 
ATOM      2  C   UNL     1       1.801   5.535 -10.549  0.00  0.00    +0.155 A 
ATOM      3  C   UNL     1       0.687   5.404  -9.728  0.00  0.00    +0.057 A 
ATOM      4  C   UNL     1       0.825   5.544  -8.349  0.00  0.00    +0.089 A 
ATOM      5  N   UNL     1      -0.210   5.333  -7.515  0.00  0.00    -0.224 NA
ATOM      6  C   UNL     1      -0.083   5.714  -6.229  0.00  0.00    +0.200 A 
ATOM      7  N   UNL     1       0.980   6.458  -5.836  0.00  0.00    -0.207 NA
ATOM      8  C   UNL     1       1.948   6.791  -6.727  0.00  0.00    +0.155 A 
ATOM      9  N   UNL     1       3.129   7.487  -6.305  0.00  0.00    -0.194 NA
ATOM     10  C   UNL     1       2.046   5.871  -7.767  0.00  0.00    +0.053 A 
ATOM     11  C   UNL     1       3.176   5.741  -8.546  0.00  0.00    +0.024 A 
ENDROOT
BRANCH   9  12
ATOM     12  C   UNL     1       3.754   6.984  -5.117  0.00  0.00    +0.073 A 
ATOM     13  C   UNL     1       3.198   7.298  -3.897  0.00  0.00    +0.030 A 
ATOM     14  C   UNL     1       3.270   6.376  -2.863  0.00  0.00    +0.086 A 
ATOM     15 CL   UNL     1       2.947   6.891  -1.217  0.00  0.00    -0.080 Cl
ATOM     16  C   UNL     1       3.895   5.156  -3.050  0.00  0.00    +0.151 A 
ATOM     17  F   UNL     1       3.935   4.293  -1.998  0.00  0.00    -0.203 F 
ATOM     18  C   UNL     1       4.726   4.975  -4.149  0.00  0.00    +0.032 A 
ATOM     19  C   UNL     1       4.434   5.778  -5.245  0.00  0.00    +0.019 A 
ENDBRANCH   9  12
BRANCH   1  21
ATOM     20  C   UNL     1       4.999   5.624 -11.320  0.00  0.00    +0.269 C 
ATOM     21  N   UNL     1       4.061   4.779 -10.641  0.00  0.00    -0.172 NA
ATOM     22  O   UNL     1       5.191   6.740 -10.746  0.00  0.00    -0.268 OA
BRANCH  20  24
ATOM     23  C   UNL     1       5.722   6.439 -13.444  0.00  0.00    -0.004 C 
ATOM     24  C   UNL     1       5.463   5.399 -12.674  0.00  0.00    +0.057 C 
BRANCH  23  25
ATOM     25  C   UNL     1       6.755   6.445 -14.518  0.00  0.00    +0.099 C 
BRANCH  25  27
ATOM     26  C   UNL     1       5.200   7.125 -15.888  0.00  0.00    +0.090 C 
ATOM     27  N   UNL     1       6.332   7.434 -15.493  0.00  0.00    -0.267 NA
ATOM     28  C   UNL     1       7.307   7.517 -16.550  0.00  0.00    +0.090 C 
ENDBRANCH  25  27
ENDBRANCH  23  25
ENDBRANCH  20  24
ENDBRANCH   1  21
BRANCH   2  29
ATOM     29  O   UNL     1       1.868   6.314 -11.686  0.00  0.00    -0.475 OA
BRANCH  29  30
ATOM     30  C   UNL     1       0.854   5.939 -12.801  0.00  0.00    +0.198 C 
ATOM     31  C   UNL     1       2.077   5.710 -13.906  0.00  0.00    +0.185 C 
ATOM     32  O   UNL     1       1.456   6.157 -15.043  0.00  0.00    -0.350 OA
ATOM     33  C   UNL     1       0.578   7.161 -14.742  0.00  0.00    +0.146 C 
ATOM     34  C   UNL     1       0.718   7.522 -13.298  0.00  0.00    +0.078 C 
ENDBRANCH  29  30
ENDBRANCH   2  29
TORSDOF 7
ENDMDL
MODEL 3
REMARK VINA RESULT:      -8.6      4.396      8.985
REMARK  Name = 
REMARK  7 active torsions:
REMARK  status: ('A' for Active; 'I' for Inactive)
REMARK    1  A    between atoms: N_2  and  C_4
REMARK    2  A    between atoms: C_4  and  C_5
REMARK    3  A    between atoms: C_6  and  C_7
REMARK    4  A    between atoms: N_9  and  C_10
REMARK    5  A    between atoms: C_15  and  O_16
REMARK    6  A    between atoms: O_16  and  C_17
REMARK    7  A    between atoms: N_26  and  C_27
REMARK                            x       y       z     vdW  Elec       q    Type
REMARK                         _______ _______ _______ _____ _____    ______ ____
ROOT
ATOM      1  C   UNL     1       1.547   6.589  -9.299  0.00  0.00    +0.108 A 
ATOM      2  C   UNL     1       2.930   6.568  -9.450  0.00  0.00    +0.155 A 
ATOM      3  C   UNL     1       3.642   6.913  -8.307  0.00  0.00    +0.057 A 
ATOM      4  C   UNL     1       3.012   6.886  -7.066  0.00  0.00    +0.089 A 
ATOM      5  N   UNL     1       3.640   7.301  -5.951  0.00  0.00    -0.224 NA
ATOM      6  C   UNL     1       3.073   7.030  -4.759  0.00  0.00    +0.200 A 
ATOM      7  N   UNL     1       2.005   6.199  -4.681  0.00  0.00    -0.207 NA
ATOM      8  C   UNL     1       1.470   5.665  -5.809  0.00  0.00    +0.155 A 
ATOM      9  N   UNL     1       0.278   4.870  -5.752  0.00  0.00    -0.194 NA
ATOM     10  C   UNL     1       1.692   6.465  -6.926  0.00  0.00    +0.053 A 
ATOM     11  C   UNL     1       0.928   6.379  -8.071  0.00  0.00    +0.024 A 
ENDROOT
BRANCH   9  12
ATOM     12  C   UNL     1      -0.784   5.400  -4.949  0.00  0.00    +0.073 A 
ATOM     13  C   UNL     1      -0.711   5.254  -3.582  0.00  0.00    +0.030 A 
ATOM     14  C   UNL     1      -1.235   6.246  -2.766  0.00  0.00    +0.086 A 
ATOM     15 CL   UNL     1      -1.523   5.910  -1.068  0.00  0.00    -0.080 Cl
ATOM     16  C   UNL     1      -1.825   7.370  -3.315  0.00  0.00    +0.151 A 
ATOM     17  F   UNL     1      -2.321   8.309  -2.463  0.00  0.00    -0.203 F 
ATOM     18  C   UNL     1      -2.189   7.364  -4.656  0.00  0.00    +0.032 A 
ATOM     19  C   UNL     1      -1.448   6.509  -5.462  0.00  0.00    +0.019 A 
ENDBRANCH   9  12
BRANCH   1  21
ATOM     20  C   UNL     1       0.289   6.009 -11.317  0.00  0.00    +0.269 C 
ATOM     21  N   UNL     1       0.815   7.023 -10.452  0.00  0.00    -0.172 NA
ATOM     22  O   UNL     1      -0.000   4.926 -10.719  0.00  0.00    -0.268 OA
BRANCH  20  24
ATOM     23  C   UNL     1       0.544   7.225 -13.355  0.00  0.00    -0.004 C 
ATOM     24  C   UNL     1       0.354   6.061 -12.763  0.00  0.00    +0.057 C 
BRANCH  23  25
ATOM     25  C   UNL     1       1.258   7.396 -14.651  0.00  0.00    +0.099 C 
BRANCH  25  27
ATOM     26  C   UNL     1       0.259   7.597 -16.579  0.00  0.00    +0.090 C 
ATOM     27  N   UNL     1       0.388   8.190 -15.500  0.00  0.00    -0.267 NA
ATOM     28  C   UNL     1       0.929   9.518 -15.636  0.00  0.00    +0.090 C 
ENDBRANCH  25  27
ENDBRANCH  23  25
ENDBRANCH  20  24
ENDBRANCH   1  21
BRANCH   2  29
ATOM     29  O   UNL     1       3.356   5.684 -10.421  0.00  0.00    -0.475 OA
BRANCH  29  30
ATOM     30  C   UNL     1       4.247   6.305 -11.530  0.00  0.00    +0.198 C 
ATOM     31  C   UNL     1       3.964   5.017 -12.546  0.00  0.00    +0.185 C 
ATOM     32  O   UNL     1       5.181   4.938 -13.172  0.00  0.00    -0.350 OA
ATOM     33  C   UNL     1       6.181   5.317 -12.320  0.00  0.00    +0.146 C 
ATOM     34  C   UNL     1       5.608   5.537 -10.956  0.00  0.00    +0.078 C 
ENDBRANCH  29  30
ENDBRANCH   2  29
TORSDOF 7
ENDMDL
MODEL 4
REMARK VINA RESULT:      -8.4      2.525      4.530
REMARK  Name = 
REMARK  7 active torsions:
REMARK  status: ('A' for Active; 'I' for Inactive)
REMARK    1  A    between atoms: N_2  and  C_4
REMARK    2  A    between atoms: C_4  and  C_5
REMARK    3  A    between atoms: C_6  and  C_7
REMARK    4  A    between atoms: N_9  and  C_10
REMARK    5  A    between atoms: C_15  and  O_16
REMARK    6  A    between atoms: O_16  and  C_17
REMARK    7  A    between atoms: N_26  and  C_27
REMARK                            x       y       z     vdW  Elec       q    Type
REMARK                         _______ _______ _______ _____ _____    ______ ____
ROOT
ATOM      1  C   UNL     1       3.007   6.609  -5.980  0.00  0.00    +0.108 A 
ATOM      2  C   UNL     1       1.642   6.465  -5.749  0.00  0.00    +0.155 A 
ATOM      3  C   UNL     1       0.846   6.608  -6.880  0.00  0.00    +0.057 A 
ATOM      4  C   UNL     1       1.418   6.509  -8.145  0.00  0.00    +0.089 A 
ATOM      5  N   UNL     1       0.699   6.733  -9.260  0.00  0.00    -0.224 NA
ATOM      6  C   UNL     1       1.236   6.391 -10.447  0.00  0.00    +0.200 A 
ATOM      7  N   UNL     1       2.383   5.669 -10.499  0.00  0.00    -0.207 NA
ATOM      8  C   UNL     1       3.023   5.320  -9.353  0.00  0.00    +0.155 A 
ATOM      9  N   UNL     1       4.290   4.649  -9.394  0.00  0.00    -0.194 NA
ATOM     10  C   UNL     1       2.767   6.211  -8.315  0.00  0.00    +0.053 A 
ATOM     11  C   UNL     1       3.588   6.330  -7.213  0.00  0.00    +0.024 A 
ENDROOT
BRANCH   9  12
ATOM     12  C   UNL     1       5.251   5.193 -10.307  0.00  0.00    +0.073 A 
ATOM     13  C   UNL     1       4.922   5.265 -11.643  0.00  0.00    +0.030 A 
ATOM     14  C   UNL     1       5.411   6.317 -12.404  0.00  0.00    +0.086 A 
ATOM     15 CL   UNL     1       5.355   6.219 -14.155  0.00  0.00    -0.080 Cl
ATOM     16  C   UNL     1       6.221   7.282 -11.833  0.00  0.00    +0.151 A 
ATOM     17  F   UNL     1       6.671   8.289 -12.631  0.00  0.00    -0.203 F 
ATOM     18  C   UNL     1       6.811   7.036 -10.599  0.00  0.00    +0.032 A 
ATOM     19  C   UNL     1       6.124   6.142  -9.788  0.00  0.00    +0.019 A 
ENDBRANCH   9  12
BRANCH   1  21
ATOM     20  C   UNL     1       4.383   6.386  -3.968  0.00  0.00    +0.269 C 
ATOM     21  N   UNL     1       3.740   7.241  -4.923  0.00  0.00    -0.172 NA
ATOM     22  O   UNL     1       4.741   5.265  -4.444  0.00  0.00    -0.268 OA
BRANCH  20  24
ATOM     23  C   UNL     1       3.779   7.696  -2.065  0.00  0.00    -0.004 C 
ATOM     24  C   UNL     1       4.365   6.611  -2.537  0.00  0.00    +0.057 C 
BRANCH  23  25
ATOM     25  C   UNL     1       3.111   7.772  -0.736  0.00  0.00    +0.099 C 
BRANCH  25  27
ATOM     26  C   UNL     1       3.443   8.727   1.196  0.00  0.00    +0.090 C 
ATOM     27  N   UNL     1       3.797   8.810   0.013  0.00  0.00    -0.267 NA
ATOM     28  C   UNL     1       3.524  10.093  -0.580  0.00  0.00    +0.090 C 
ENDBRANCH  25  27
ENDBRANCH  23  25
ENDBRANCH  20  24
ENDBRANCH   1  21
BRANCH   2  29
ATOM     29  O   UNL     1       1.359   5.654  -4.669  0.00  0.00    -0.475 OA
BRANCH  29  30
ATOM     30  C   UNL     1       0.541   6.332  -3.536  0.00  0.00    +0.198 C 
ATOM     31  C   UNL     1       0.852   5.073  -2.492  0.00  0.00    +0.185 C 
ATOM     32  O   UNL     1      -0.331   5.041  -1.800  0.00  0.00    -0.350 OA
ATOM     33  C   UNL     1      -1.367   5.412  -2.611  0.00  0.00    +0.146 C 
ATOM     34  C   UNL     1      -0.864   5.574  -4.010  0.00  0.00    +0.078 C 
ENDBRANCH  29  30
ENDBRANCH   2  29
TORSDOF 7
ENDMDL
MODEL 5
REMARK VINA RESULT:      -8.1      2.973      4.488
REMARK  Name = 
REMARK  7 active torsions:
REMARK  status: ('A' for Active; 'I' for Inactive)
REMARK    1  A    between atoms: N_2  and  C_4
REMARK    2  A    between atoms: C_4  and  C_5
REMARK    3  A    between atoms: C_6  and  C_7
REMARK    4  A    between atoms: N_9  and  C_10
REMARK    5  A    between atoms: C_15  and  O_16
REMARK    6  A    between atoms: O_16  and  C_17
REMARK    7  A    between atoms: N_26  and  C_27
REMARK                            x       y       z     vdW  Elec       q    Type
REMARK                         _______ _______ _______ _____ _____    ______ ____
ROOT
ATOM      1  C   UNL     1       1.786   6.451  -1.657  0.00  0.00    +0.108 A 
ATOM      2  C   UNL     1       2.821   6.117  -0.787  0.00  0.00    +0.155 A 
ATOM      3  C   UNL     1       3.810   5.316  -1.346  0.00  0.00    +0.057 A 
ATOM      4  C   UNL     1       3.917   5.214  -2.731  0.00  0.00    +0.089 A 
ATOM      5  N   UNL     1       4.800   4.378  -3.307  0.00  0.00    -0.224 NA
ATOM      6  C   UNL     1       5.023   4.497  -4.630  0.00  0.00    +0.200 A 
ATOM      7  N   UNL     1       4.519   5.550  -5.319  0.00  0.00    -0.207 NA
ATOM      8  C   UNL     1       3.746   6.472  -4.689  0.00  0.00    +0.155 A 
ATOM      9  N   UNL     1       3.119   7.531  -5.425  0.00  0.00    -0.194 NA
ATOM     10  C   UNL     1       3.090   5.942  -3.582  0.00  0.00    +0.053 A 
ATOM     11  C   UNL     1       1.963   6.518  -3.035  0.00  0.00    +0.024 A 
ENDROOT
BRANCH   9  12
ATOM     12  C   UNL     1       2.466   7.142  -6.639  0.00  0.00    +0.073 A 
ATOM     13  C   UNL     1       3.238   6.912  -7.757  0.00  0.00    +0.030 A 
ATOM     14  C   UNL     1       2.844   5.938  -8.663  0.00  0.00    +0.086 A 
ATOM     15 CL   UNL     1       3.559   5.903 -10.265  0.00  0.00    -0.080 Cl
ATOM     16  C   UNL     1       1.690   5.206  -8.451  0.00  0.00    +0.151 A 
ATOM     17  F   UNL     1       1.355   4.264  -9.375  0.00  0.00    -0.203 F 
ATOM     18  C   UNL     1       0.757   5.652  -7.522  0.00  0.00    +0.032 A 
ATOM     19  C   UNL     1       1.277   6.434  -6.498  0.00  0.00    +0.019 A 
ENDBRANCH   9  12
BRANCH   1  21
ATOM     20  C   UNL     1      -0.421   5.456  -1.298  0.00  0.00    +0.269 C 
ATOM     21  N   UNL     1       0.489   6.536  -1.054  0.00  0.00    -0.172 NA
ATOM     22  O   UNL     1       0.151   4.337  -1.482  0.00  0.00    -0.268 OA
BRANCH  20  24
ATOM     23  C   UNL     1      -2.184   6.644  -2.384  0.00  0.00    -0.004 C 
ATOM     24  C   UNL     1      -1.823   5.632  -1.617  0.00  0.00    +0.057 C 
BRANCH  23  25
ATOM     25  C   UNL     1      -3.355   6.617  -3.304  0.00  0.00    +0.099 C 
BRANCH  25  27
ATOM     26  C   UNL     1      -2.426   5.947  -5.160  0.00  0.00    +0.090 C 
ATOM     27  N   UNL     1      -2.856   6.975  -4.619  0.00  0.00    -0.267 NA
ATOM     28  C   UNL     1      -1.867   8.014  -4.493  0.00  0.00    +0.090 C 
ENDBRANCH  25  27
ENDBRANCH  23  25
ENDBRANCH  20  24
ENDBRANCH   1  21
BRANCH   2  29
ATOM     29  O   UNL     1       3.018   7.056   0.205  0.00  0.00    -0.475 OA
BRANCH  29  30
ATOM     30  C   UNL     1       4.063   8.155  -0.129  0.00  0.00    +0.198 C 
ATOM     31  C   UNL     1       4.572   8.222   1.454  0.00  0.00    +0.185 C 
ATOM     32  O   UNL     1       4.853   9.559   1.557  0.00  0.00    -0.350 OA
ATOM     33  C   UNL     1       4.008  10.285   0.764  0.00  0.00    +0.146 C 
ATOM     34  C   UNL     1       2.974   9.375   0.183  0.00  0.00    +0.078 C 
ENDBRANCH  29  30
ENDBRANCH   2  29
TORSDOF 7
ENDMDL
MODEL 6
REMARK VINA RESULT:      -8.0      4.538      9.478
REMARK  Name = 
REMARK  7 active torsions:
REMARK  status: ('A' for Active; 'I' for Inactive)
REMARK    1  A    between atoms: N_2  and  C_4
REMARK    2  A    between atoms: C_4  and  C_5
REMARK    3  A    between atoms: C_6  and  C_7
REMARK    4  A    between atoms: N_9  and  C_10
REMARK    5  A    between atoms: C_15  and  O_16
REMARK    6  A    between atoms: O_16  and  C_17
REMARK    7  A    between atoms: N_26  and  C_27
REMARK                            x       y       z     vdW  Elec       q    Type
REMARK                         _______ _______ _______ _____ _____    ______ ____
ROOT
ATOM      1  C   UNL     1       1.688   5.070  -7.920  0.00  0.00    +0.108 A 
ATOM      2  C   UNL     1       0.750   5.324  -8.917  0.00  0.00    +0.155 A 
ATOM      3  C   UNL     1      -0.573   5.277  -8.492  0.00  0.00    +0.057 A 
ATOM      4  C   UNL     1      -0.866   5.358  -7.133  0.00  0.00    +0.089 A 
ATOM      5  N   UNL     1      -2.124   5.223  -6.677  0.00  0.00    -0.224 NA
ATOM      6  C   UNL     1      -2.378   5.547  -5.394  0.00  0.00    +0.200 A 
ATOM      7  N   UNL     1      -1.435   6.170  -4.645  0.00  0.00    -0.207 NA
ATOM      8  C   UNL     1      -0.210   6.435  -5.168  0.00  0.00    +0.155 A 
ATOM      9  N   UNL     1       0.830   6.996  -4.357  0.00  0.00    -0.194 NA
ATOM     10  C   UNL     1       0.133   5.544  -6.181  0.00  0.00    +0.053 A 
ATOM     11  C   UNL     1       1.436   5.329  -6.577  0.00  0.00    +0.024 A 
ENDROOT
BRANCH   9  12
ATOM     12  C   UNL     1       1.005   6.395  -3.068  0.00  0.00    +0.073 A 
ATOM     13  C   UNL     1       2.248   6.457  -2.476  0.00  0.00    +0.030 A 
ATOM     14  C   UNL     1       2.335   6.555  -1.095  0.00  0.00    +0.086 A 
ATOM     15 CL   UNL     1       3.863   6.227  -0.298  0.00  0.00    -0.080 Cl
ATOM     16  C   UNL     1       1.192   6.589  -0.318  0.00  0.00    +0.151 A 
ATOM     17  F   UNL     1       1.342   6.686   1.031  0.00  0.00    -0.203 F 
ATOM     18  C   UNL     1      -0.023   6.202  -0.872  0.00  0.00    +0.032 A 
ATOM     19  C   UNL     1      -0.118   6.361  -2.248  0.00  0.00    +0.019 A 
ENDBRANCH   9  12
BRANCH   1  21
ATOM     20  C   UNL     1       4.094   5.070  -8.369  0.00  0.00    +0.269 C 
ATOM     21  N   UNL     1       2.852   4.353  -8.349  0.00  0.00    -0.172 NA
ATOM     22  O   UNL     1       4.167   5.991  -7.498  0.00  0.00    -0.268 OA
BRANCH  20  24
ATOM     23  C   UNL     1       6.017   5.896  -9.516  0.00  0.00    -0.004 C 
ATOM     24  C   UNL     1       5.059   4.991  -9.447  0.00  0.00    +0.057 C 
BRANCH  23  25
ATOM     25  C   UNL     1       7.373   5.634 -10.075  0.00  0.00    +0.099 C 
BRANCH  25  27
ATOM     26  C   UNL     1       8.387   5.634 -12.006  0.00  0.00    +0.090 C 
ATOM     27  N   UNL     1       7.301   5.936 -11.493  0.00  0.00    -0.267 NA
ATOM     28  C   UNL     1       6.945   7.319 -11.675  0.00  0.00    +0.090 C 
ENDBRANCH  25  27
ENDBRANCH  23  25
ENDBRANCH  20  24
ENDBRANCH   1  21
BRANCH   2  29
ATOM     29  O   UNL     1       1.237   6.130  -9.926  0.00  0.00    -0.475 OA
BRANCH  29  30
ATOM     30  C   UNL     1       0.904   5.653 -11.366  0.00  0.00    +0.198 C 
ATOM     31  C   UNL     1       2.339   6.261 -11.952  0.00  0.00    +0.185 C 
ATOM     32  O   UNL     1       1.933   6.671 -13.195  0.00  0.00    -0.350 OA
ATOM     33  C   UNL     1       0.631   7.087 -13.157  0.00  0.00    +0.146 C 
ATOM     34  C   UNL     1       0.157   7.093 -11.739  0.00  0.00    +0.078 C 
ENDBRANCH  29  30
ENDBRANCH   2  29
TORSDOF 7
ENDMDL
MODEL 7
REMARK VINA RESULT:      -7.6      4.683      8.434
REMARK  Name = 
REMARK  7 active torsions:
REMARK  status: ('A' for Active; 'I' for Inactive)
REMARK    1  A    between atoms: N_2  and  C_4
REMARK    2  A    between atoms: C_4  and  C_5
REMARK    3  A    between atoms: C_6  and  C_7
REMARK    4  A    between atoms: N_9  and  C_10
REMARK    5  A    between atoms: C_15  and  O_16
REMARK    6  A    between atoms: O_16  and  C_17
REMARK    7  A    between atoms: N_26  and  C_27
REMARK                            x       y       z     vdW  Elec       q    Type
REMARK                         _______ _______ _______ _____ _____    ______ ____
ROOT
ATOM      1  C   UNL     1       2.702   7.490   0.217  0.00  0.00    +0.108 A 
ATOM      2  C   UNL     1       3.003   8.006   1.475  0.00  0.00    +0.155 A 
ATOM      3  C   UNL     1       2.035   8.856   1.997  0.00  0.00    +0.057 A 
ATOM      4  C   UNL     1       0.748   8.848   1.466  0.00  0.00    +0.089 A 
ATOM      5  N   UNL     1      -0.189   9.719   1.883  0.00  0.00    -0.224 NA
ATOM      6  C   UNL     1      -1.467   9.509   1.513  0.00  0.00    +0.200 A 
ATOM      7  N   UNL     1      -1.823   8.352   0.901  0.00  0.00    -0.207 NA
ATOM      8  C   UNL     1      -0.885   7.412   0.618  0.00  0.00    +0.155 A 
ATOM      9  N   UNL     1      -1.228   6.232  -0.121  0.00  0.00    -0.194 NA
ATOM     10  C   UNL     1       0.382   7.964   0.455  0.00  0.00    +0.053 A 
ATOM     11  C   UNL     1       1.395   7.322  -0.226  0.00  0.00    +0.024 A 
ENDROOT
BRANCH   9  12
ATOM     12  C   UNL     1      -2.030   6.442  -1.289  0.00  0.00    +0.073 A 
ATOM     13  C   UNL     1      -1.725   7.501  -2.116  0.00  0.00    +0.030 A 
ATOM     14  C   UNL     1      -1.935   7.375  -3.482  0.00  0.00    +0.086 A 
ATOM     15 CL   UNL     1      -1.947   8.809  -4.493  0.00  0.00    -0.080 Cl
ATOM     16  C   UNL     1      -2.445   6.203  -4.011  0.00  0.00    +0.151 A 
ATOM     17  F   UNL     1      -2.629   6.140  -5.358  0.00  0.00    -0.203 F 
ATOM     18  C   UNL     1      -3.050   5.279  -3.167  0.00  0.00    +0.032 A 
ATOM     19  C   UNL     1      -2.607   5.308  -1.851  0.00  0.00    +0.019 A 
ENDBRANCH   9  12
BRANCH   1  21
ATOM     20  C   UNL     1       4.028   8.316  -1.667  0.00  0.00    +0.269 C 
ATOM     21  N   UNL     1       3.826   7.320  -0.656  0.00  0.00    -0.172 NA
ATOM     22  O   UNL     1       3.614   9.471  -1.339  0.00  0.00    -0.268 OA
BRANCH  20  24
ATOM     23  C   UNL     1       3.704   7.082  -3.685  0.00  0.00    -0.004 C 
ATOM     24  C   UNL     1       4.376   8.019  -3.042  0.00  0.00    +0.057 C 
BRANCH  23  25
ATOM     25  C   UNL     1       3.459   7.092  -5.154  0.00  0.00    +0.099 C 
BRANCH  25  27
ATOM     26  C   UNL     1       1.427   6.503  -4.625  0.00  0.00    +0.090 C 
ATOM     27  N   UNL     1       2.346   6.191  -5.394  0.00  0.00    -0.267 NA
ATOM     28  C   UNL     1       2.787   4.829  -5.241  0.00  0.00    +0.090 C 
ENDBRANCH  25  27
ENDBRANCH  23  25
ENDBRANCH  20  24
ENDBRANCH   1  21
BRANCH   2  29
ATOM     29  O   UNL     1       3.829   7.184   2.214  0.00  0.00    -0.475 OA
BRANCH  29  30
ATOM     30  C   UNL     1       4.660   7.903   3.311  0.00  0.00    +0.198 C 
ATOM     31  C   UNL     1       5.599   8.667   2.169  0.00  0.00    +0.185 C 
ATOM     32  O   UNL     1       6.803   8.682   2.824  0.00  0.00    -0.350 OA
ATOM     33  C   UNL     1       6.926   7.576   3.618  0.00  0.00    +0.146 C 
ATOM     34  C   UNL     1       5.769   6.663   3.375  0.00  0.00    +0.078 C 
ENDBRANCH  29  30
ENDBRANCH   2  29
TORSDOF 7
ENDMDL
MODEL 8
REMARK VINA RESULT:      -7.4      1.582      2.153
REMARK  Name = 
REMARK  7 active torsions:
REMARK  status: ('A' for Active; 'I' for Inactive)
REMARK    1  A    between atoms: N_2  and  C_4
REMARK    2  A    between atoms: C_4  and  C_5
REMARK    3  A    between atoms: C_6  and  C_7
REMARK    4  A    between atoms: N_9  and  C_10
REMARK    5  A    between atoms: C_15  and  O_16
REMARK    6  A    between atoms: O_16  and  C_17
REMARK    7  A    between atoms: N_26  and  C_27
REMARK                            x       y       z     vdW  Elec       q    Type
REMARK                         _______ _______ _______ _____ _____    ______ ____
ROOT
ATOM      1  C   UNL     1       1.436   5.597  -4.243  0.00  0.00    +0.108 A 
ATOM      2  C   UNL     1       2.627   5.658  -3.526  0.00  0.00    +0.155 A 
ATOM      3  C   UNL     1       3.767   5.388  -4.275  0.00  0.00    +0.057 A 
ATOM      4  C   UNL     1       3.711   5.448  -5.665  0.00  0.00    +0.089 A 
ATOM      5  N   UNL     1       4.766   5.105  -6.425  0.00  0.00    -0.224 NA
ATOM      6  C   UNL     1       4.735   5.410  -7.737  0.00  0.00    +0.200 A 
ATOM      7  N   UNL     1       3.758   6.207  -8.233  0.00  0.00    -0.207 NA
ATOM      8  C   UNL     1       2.775   6.671  -7.419  0.00  0.00    +0.155 A 
ATOM      9  N   UNL     1       1.678   7.427  -7.948  0.00  0.00    -0.194 NA
ATOM     10  C   UNL     1       2.551   5.831  -6.332  0.00  0.00    +0.053 A 
ATOM     11  C   UNL     1       1.376   5.840  -5.611  0.00  0.00    +0.024 A 
ENDROOT
BRANCH   9  12
ATOM     12  C   UNL     1       1.075   6.898  -9.136  0.00  0.00    +0.073 A 
ATOM     13  C   UNL     1       1.770   6.984 -10.322  0.00  0.00    +0.030 A 
ATOM     14  C   UNL     1       1.629   5.975 -11.263  0.00  0.00    +0.086 A 
ATOM     15 CL   UNL     1       2.162   6.248 -12.913  0.00  0.00    -0.080 Cl
ATOM     16  C   UNL     1       0.800   4.895 -11.019  0.00  0.00    +0.151 A 
ATOM     17  F   UNL     1       0.703   3.937 -11.981  0.00  0.00    -0.203 F 
ATOM     18  C   UNL     1      -0.134   4.969  -9.993  0.00  0.00    +0.032 A 
ATOM     19  C   UNL     1       0.198   5.833  -8.958  0.00  0.00    +0.019 A 
ENDBRANCH   9  12
BRANCH   1  21
ATOM     20  C   UNL     1      -0.772   5.990  -3.262  0.00  0.00    +0.269 C 
ATOM     21  N   UNL     1       0.312   5.087  -3.514  0.00  0.00    -0.172 NA
ATOM     22  O   UNL     1      -0.912   6.883  -4.155  0.00  0.00    -0.268 OA
BRANCH  20  24
ATOM     23  C   UNL     1      -1.023   6.971  -1.100  0.00  0.00    -0.004 C 
ATOM     24  C   UNL     1      -1.459   6.100  -1.992  0.00  0.00    +0.057 C 
BRANCH  23  25
ATOM     25  C   UNL     1      -1.898   7.664  -0.113  0.00  0.00    +0.099 C 
BRANCH  25  27
ATOM     26  C   UNL     1      -1.822   6.910   1.932  0.00  0.00    +0.090 C 
ATOM     27  N   UNL     1      -1.192   7.639   1.155  0.00  0.00    -0.267 NA
ATOM     28  C   UNL     1      -1.023   8.985   1.639  0.00  0.00    +0.090 C 
ENDBRANCH  25  27
ENDBRANCH  23  25
ENDBRANCH  20  24
ENDBRANCH   1  21
BRANCH   2  29
ATOM     29  O   UNL     1       2.566   6.512  -2.443  0.00  0.00    -0.475 OA
BRANCH  29  30
ATOM     30  C   UNL     1       3.026   5.897  -1.094  0.00  0.00    +0.198 C 
ATOM     31  C   UNL     1       2.252   7.090  -0.230  0.00  0.00    +0.185 C 
ATOM     32  O   UNL     1       3.125   7.230   0.817  0.00  0.00    -0.350 OA
ATOM     33  C   UNL     1       4.406   6.989   0.404  0.00  0.00    +0.146 C 
ATOM     34  C   UNL     1       4.419   6.809  -1.080  0.00  0.00    +0.078 C 
ENDBRANCH  29  30
ENDBRANCH   2  29
TORSDOF 7
ENDMDL
MODEL 9
REMARK VINA RESULT:      -7.3      5.526     10.491
REMARK  Name = 
REMARK  7 active torsions:
REMARK  status: ('A' for Active; 'I' for Inactive)
REMARK    1  A    between atoms: N_2  and  C_4
REMARK    2  A    between atoms: C_4  and  C_5
REMARK    3  A    between atoms: C_6  and  C_7
REMARK    4  A    between atoms: N_9  and  C_10
REMARK    5  A    between atoms: C_15  and  O_16
REMARK    6  A    between atoms: O_16  and  C_17
REMARK    7  A    between atoms: N_26  and  C_27
REMARK                            x       y       z     vdW  Elec       q    Type
REMARK                         _______ _______ _______ _____ _____    ______ ____
ROOT
ATOM      1  C   UNL     1       2.991   6.369  -1.914  0.00  0.00    +0.108 A 
ATOM      2  C   UNL     1       1.679   6.054  -2.257  0.00  0.00    +0.155 A 
ATOM      3  C   UNL     1       0.770   6.147  -1.210  0.00  0.00    +0.057 A 
ATOM      4  C   UNL     1       1.105   6.862  -0.064  0.00  0.00    +0.089 A 
ATOM      5  N   UNL     1       0.290   6.897   1.006  0.00  0.00    -0.224 NA
ATOM      6  C   UNL     1       0.551   7.789   1.981  0.00  0.00    +0.200 A 
ATOM      7  N   UNL     1       1.491   8.749   1.798  0.00  0.00    -0.207 NA
ATOM      8  C   UNL     1       2.209   8.793   0.646  0.00  0.00    +0.155 A 
ATOM      9  N   UNL     1       3.277   9.735   0.481  0.00  0.00    -0.194 NA
ATOM     10  C   UNL     1       2.315   7.543   0.044  0.00  0.00    +0.053 A 
ATOM     11  C   UNL     1       3.301   7.234  -0.869  0.00  0.00    +0.024 A 
ENDROOT
BRANCH   9  12
ATOM     12  C   UNL     1       4.182   9.847   1.587  0.00  0.00    +0.073 A 
ATOM     13  C   UNL     1       5.023   8.792   1.859  0.00  0.00    +0.030 A 
ATOM     14  C   UNL     1       6.288   9.048   2.370  0.00  0.00    +0.086 A 
ATOM     15 CL   UNL     1       7.209   7.745   3.099  0.00  0.00    -0.080 Cl
ATOM     16  C   UNL     1       6.701  10.347   2.605  0.00  0.00    +0.151 A 
ATOM     17  F   UNL     1       7.953  10.535   3.107  0.00  0.00    -0.203 F 
ATOM     18  C   UNL     1       5.759  11.368   2.644  0.00  0.00    +0.032 A 
ATOM     19  C   UNL     1       4.608  11.133   1.903  0.00  0.00    +0.019 A 
ENDBRANCH   9  12
BRANCH   1  21
ATOM     20  C   UNL     1       4.539   6.142  -3.796  0.00  0.00    +0.269 C 
ATOM     21  N   UNL     1       3.998   5.600  -2.584  0.00  0.00    -0.172 NA
ATOM     22  O   UNL     1       4.543   7.411  -3.832  0.00  0.00    -0.268 OA
BRANCH  20  24
ATOM     23  C   UNL     1       4.160   5.704  -6.112  0.00  0.00    -0.004 C 
ATOM     24  C   UNL     1       4.778   5.366  -4.996  0.00  0.00    +0.057 C 
BRANCH  23  25
ATOM     25  C   UNL     1       4.725   5.497  -7.475  0.00  0.00    +0.099 C 
BRANCH  25  27
ATOM     26  C   UNL     1       2.853   6.498  -7.975  0.00  0.00    +0.090 C 
ATOM     27  N   UNL     1       3.618   5.624  -8.405  0.00  0.00    -0.267 NA
ATOM     28  C   UNL     1       2.985   4.342  -8.579  0.00  0.00    +0.090 C 
ENDBRANCH  25  27
ENDBRANCH  23  25
ENDBRANCH  20  24
ENDBRANCH   1  21
BRANCH   2  29
ATOM     29  O   UNL     1       1.396   6.293  -3.587  0.00  0.00    -0.475 OA
BRANCH  29  30
ATOM     30  C   UNL     1       0.101   5.617  -4.114  0.00  0.00    +0.198 C 
ATOM     31  C   UNL     1       0.961   4.727  -5.227  0.00  0.00    +0.185 C 
ATOM     32  O   UNL     1       0.058   4.701  -6.258  0.00  0.00    -0.350 OA
ATOM     33  C   UNL     1      -0.676   5.855  -6.276  0.00  0.00    +0.146 C 
ATOM     34  C   UNL     1      -0.129   6.803  -5.259  0.00  0.00    +0.078 C 
ENDBRANCH  29  30
ENDBRANCH   2  29
TORSDOF 7
ENDMDL
