MODEL 1
REMARK VINA RESULT:     -10.1      0.000      0.000
REMARK  Name = 
REMARK  2 active torsions:
REMARK  status: ('A' for Active; 'I' for Inactive)
REMARK    1  A    between atoms: C_5  and  N_6
REMARK    2  A    between atoms: C_11  and  C_12
REMARK                            x       y       z     vdW  Elec       q    Type
REMARK                         _______ _______ _______ _____ _____    ______ ____
ROOT
ATOM      1  C   UNL     1       0.928   6.305  -5.192  0.00  0.00    +0.251 C 
ATOM      2  N   UNL     1       2.254   5.975  -5.523  0.00  0.00    -0.276 N 
ATOM      3  C   UNL     1       2.480   4.409  -5.588  0.00  0.00    +0.077 C 
ATOM      4  C   UNL     1       4.059   4.540  -5.097  0.00  0.00    +0.022 C 
ATOM      5  C   UNL     1       2.933   4.416  -7.184  0.00  0.00    +0.041 C 
ATOM      6  C   UNL     1       1.770   4.992  -7.932  0.00  0.00    +0.097 C 
ATOM      7  N   UNL     1       2.154   6.331  -8.376  0.00  0.00    -0.262 N 
ATOM      8  C   UNL     1       3.038   6.364  -9.503  0.00  0.00    +0.292 A 
ATOM      9  O   UNL     1       4.280   6.804  -9.408  0.00  0.00    -0.424 OA
ATOM     10  C   UNL     1       4.835   6.812 -10.586  0.00  0.00    +0.166 A 
ATOM     11  C   UNL     1       3.984   6.128 -11.437  0.00  0.00    +0.121 A 
ATOM     12  C   UNL     1       4.423   5.914 -12.716  0.00  0.00    +0.034 A 
ATOM     13  C   UNL     1       5.595   6.522 -13.157  0.00  0.00    +0.059 A 
ATOM     14  C   UNL     1       6.456   7.146 -12.278  0.00  0.00    +0.015 A 
ATOM     15 CL   UNL     1       5.970   6.568 -14.875  0.00  0.00    -0.082 Cl
ATOM     16  C   UNL     1       5.990   7.400 -11.019  0.00  0.00    +0.040 A 
ATOM     17  N   UNL     1       2.928   5.732 -10.685  0.00  0.00    -0.195 NA
ATOM     18  C   UNL     1       2.369   7.440  -7.449  0.00  0.00    +0.117 C 
ATOM     19  C   UNL     1       3.051   6.967  -6.170  0.00  0.00    +0.115 C 
ATOM     20  O   UNL     1       0.278   6.950  -6.073  0.00  0.00    -0.270 OA
ENDROOT
BRANCH   1  24
ATOM     21  C   UNL     1      -3.130   6.712  -2.460  0.00  0.00    +0.031 C 
ATOM     22  C   UNL     1      -1.823   6.090  -2.675  0.00  0.00    -0.022 A 
ATOM     23  C   UNL     1      -1.153   6.121  -3.891  0.00  0.00    +0.002 A 
ATOM     24  C   UNL     1       0.229   5.981  -3.975  0.00  0.00    +0.073 A 
ATOM     25  C   UNL     1       0.875   5.813  -2.764  0.00  0.00    +0.107 A 
ATOM     26  C   UNL     1       0.162   5.246  -1.713  0.00  0.00    +0.021 A 
ATOM     27  C   UNL     1      -1.173   5.524  -1.584  0.00  0.00    -0.003 A 
BRANCH  25  28
ATOM     28  N   UNL     1       2.230   6.259  -2.605  0.00  0.00    -0.148 N 
ATOM     29  N   UNL     1       3.049   5.459  -1.917  0.00  0.00    -0.145 NA
ATOM     30  C   UNL     1       4.188   6.147  -1.659  0.00  0.00    +0.145 A 
ATOM     31  C   UNL     1       3.724   7.448  -1.510  0.00  0.00    +0.145 A 
ATOM     32  N   UNL     1       2.555   7.485  -2.193  0.00  0.00    -0.145 NA
ENDBRANCH  25  28
ENDBRANCH   1  24
TORSDOF 2
ENDMDL
MODEL 2
REMARK VINA RESULT:      -9.5      3.404      9.442
REMARK  Name = 
REMARK  2 active torsions:
REMARK  status: ('A' for Active; 'I' for Inactive)
REMARK    1  A    between atoms: C_5  and  N_6
REMARK    2  A    between atoms: C_11  and  C_12
REMARK                            x       y       z     vdW  Elec       q    Type
REMARK                         _______ _______ _______ _____ _____    ______ ____
ROOT
ATOM      1  C   UNL     1       3.620   6.183 -10.002  0.00  0.00    +0.251 C 
ATOM      2  N   UNL     1       2.289   5.828  -9.716  0.00  0.00    -0.276 N 
ATOM      3  C   UNL     1       2.118   4.265  -9.524  0.00  0.00    +0.077 C 
ATOM      4  C   UNL     1       0.566   4.288 -10.110  0.00  0.00    +0.022 C 
ATOM      5  C   UNL     1       1.573   4.392  -7.962  0.00  0.00    +0.041 C 
ATOM      6  C   UNL     1       2.669   5.079  -7.206  0.00  0.00    +0.097 C 
ATOM      7  N   UNL     1       2.211   6.435  -6.905  0.00  0.00    -0.262 N 
ATOM      8  C   UNL     1       1.263   6.528  -5.835  0.00  0.00    +0.292 A 
ATOM      9  O   UNL     1       0.012   6.906  -6.036  0.00  0.00    -0.424 OA
ATOM     10  C   UNL     1      -0.610   6.993  -4.896  0.00  0.00    +0.166 A 
ATOM     11  C   UNL     1       0.215   6.422  -3.942  0.00  0.00    +0.121 A 
ATOM     12  C   UNL     1      -0.289   6.302  -2.675  0.00  0.00    +0.034 A 
ATOM     13  C   UNL     1      -1.507   6.896  -2.354  0.00  0.00    +0.059 A 
ATOM     14  C   UNL     1      -2.337   7.405  -3.331  0.00  0.00    +0.015 A 
ATOM     15 CL   UNL     1      -1.982   7.076  -0.671  0.00  0.00    -0.082 Cl
ATOM     16  C   UNL     1      -1.809   7.568  -4.581  0.00  0.00    +0.040 A 
ATOM     17  N   UNL     1       1.327   6.006  -4.597  0.00  0.00    -0.195 NA
ATOM     18  C   UNL     1       2.009   7.448  -7.937  0.00  0.00    +0.117 C 
ATOM     19  C   UNL     1       1.421   6.838  -9.205  0.00  0.00    +0.115 C 
ATOM     20  O   UNL     1       4.193   6.929  -9.148  0.00  0.00    -0.270 OA
ENDROOT
BRANCH   1  24
ATOM     21  C   UNL     1       7.844   6.450 -12.487  0.00  0.00    +0.031 C 
ATOM     22  C   UNL     1       6.531   5.828 -12.314  0.00  0.00    -0.022 A 
ATOM     23  C   UNL     1       5.782   5.935 -11.150  0.00  0.00    +0.002 A 
ATOM     24  C   UNL     1       4.399   5.784 -11.145  0.00  0.00    +0.073 A 
ATOM     25  C   UNL     1       3.835   5.524 -12.381  0.00  0.00    +0.107 A 
ATOM     26  C   UNL     1       4.620   4.894 -13.342  0.00  0.00    +0.021 A 
ATOM     27  C   UNL     1       5.958   5.179 -13.402  0.00  0.00    -0.003 A 
BRANCH  25  28
ATOM     28  N   UNL     1       2.490   5.941 -12.658  0.00  0.00    -0.148 N 
ATOM     29  N   UNL     1       1.723   5.083 -13.338  0.00  0.00    -0.145 NA
ATOM     30  C   UNL     1       0.598   5.737 -13.718  0.00  0.00    +0.145 A 
ATOM     31  C   UNL     1       1.061   7.029 -13.930  0.00  0.00    +0.145 A 
ATOM     32  N   UNL     1       2.182   7.130 -13.177  0.00  0.00    -0.145 NA
ENDBRANCH  25  28
ENDBRANCH   1  24
TORSDOF 2
ENDMDL
MODEL 3
REMARK VINA RESULT:      -9.0      1.495      2.320
REMARK  Name = 
REMARK  2 active torsions:
REMARK  status: ('A' for Active; 'I' for Inactive)
REMARK    1  A    between atoms: C_5  and  N_6
REMARK    2  A    between atoms: C_11  and  C_12
REMARK                            x       y       z     vdW  Elec       q    Type
REMARK                         _______ _______ _______ _____ _____    ______ ____
ROOT
ATOM      1  C   UNL     1       2.109   5.146  -5.768  0.00  0.00    +0.251 C 
ATOM      2  N   UNL     1       1.605   5.191  -7.080  0.00  0.00    -0.276 N 
ATOM      3  C   UNL     1       0.834   6.542  -7.376  0.00  0.00    +0.077 C 
ATOM      4  C   UNL     1      -0.202   5.805  -8.443  0.00  0.00    +0.022 C 
ATOM      5  C   UNL     1       1.847   6.994  -8.610  0.00  0.00    +0.041 C 
ATOM      6  C   UNL     1       3.213   7.081  -8.000  0.00  0.00    +0.097 C 
ATOM      7  N   UNL     1       3.989   5.948  -8.501  0.00  0.00    -0.262 N 
ATOM      8  C   UNL     1       4.460   6.085  -9.847  0.00  0.00    +0.292 A 
ATOM      9  O   UNL     1       4.021   5.314 -10.826  0.00  0.00    -0.424 OA
ATOM     10  C   UNL     1       4.670   5.584 -11.922  0.00  0.00    +0.166 A 
ATOM     11  C   UNL     1       5.394   6.740 -11.688  0.00  0.00    +0.121 A 
ATOM     12  C   UNL     1       6.071   7.276 -12.751  0.00  0.00    +0.034 A 
ATOM     13  C   UNL     1       6.150   6.571 -13.949  0.00  0.00    +0.059 A 
ATOM     14  C   UNL     1       5.373   5.455 -14.179  0.00  0.00    +0.015 A 
ATOM     15 CL   UNL     1       7.310   7.055 -15.179  0.00  0.00    -0.082 Cl
ATOM     16  C   UNL     1       4.741   4.898 -13.102  0.00  0.00    +0.040 A 
ATOM     17  N   UNL     1       5.122   7.110 -10.413  0.00  0.00    -0.195 NA
ATOM     18  C   UNL     1       3.691   4.564  -8.139  0.00  0.00    +0.117 C 
ATOM     19  C   UNL     1       2.188   4.325  -8.053  0.00  0.00    +0.115 C 
ATOM     20  O   UNL     1       3.373   5.077  -5.660  0.00  0.00    -0.270 OA
ENDROOT
BRANCH   1  24
ATOM     21  C   UNL     1      -2.222   5.751  -3.541  0.00  0.00    +0.031 C 
ATOM     22  C   UNL     1      -0.813   5.368  -3.453  0.00  0.00    -0.022 A 
ATOM     23  C   UNL     1      -0.034   5.064  -4.561  0.00  0.00    +0.002 A 
ATOM     24  C   UNL     1       1.352   5.182  -4.544  0.00  0.00    +0.073 A 
ATOM     25  C   UNL     1       1.887   5.625  -3.347  0.00  0.00    +0.107 A 
ATOM     26  C   UNL     1       1.176   5.374  -2.178  0.00  0.00    +0.021 A 
ATOM     27  C   UNL     1      -0.194   5.407  -2.209  0.00  0.00    -0.003 A 
BRANCH  25  28
ATOM     28  N   UNL     1       3.120   6.359  -3.340  0.00  0.00    -0.148 N 
ATOM     29  N   UNL     1       4.000   6.045  -2.385  0.00  0.00    -0.145 NA
ATOM     30  C   UNL     1       4.970   6.992  -2.381  0.00  0.00    +0.145 A 
ATOM     31  C   UNL     1       4.270   8.137  -2.741  0.00  0.00    +0.145 A 
ATOM     32  N   UNL     1       3.183   7.689  -3.412  0.00  0.00    -0.145 NA
ENDBRANCH  25  28
ENDBRANCH   1  24
TORSDOF 2
ENDMDL
MODEL 4
REMARK VINA RESULT:      -8.8      3.096      5.485
REMARK  Name = 
REMARK  2 active torsions:
REMARK  status: ('A' for Active; 'I' for Inactive)
REMARK    1  A    between atoms: C_5  and  N_6
REMARK    2  A    between atoms: C_11  and  C_12
REMARK                            x       y       z     vdW  Elec       q    Type
REMARK                         _______ _______ _______ _____ _____    ______ ____
ROOT
ATOM      1  C   UNL     1       3.929   7.939  -0.685  0.00  0.00    +0.251 C 
ATOM      2  N   UNL     1       4.235   6.756  -1.382  0.00  0.00    -0.276 N 
ATOM      3  C   UNL     1       3.178   5.610  -1.103  0.00  0.00    +0.077 C 
ATOM      4  C   UNL     1       4.314   4.415  -1.286  0.00  0.00    +0.022 C 
ATOM      5  C   UNL     1       2.720   5.475  -2.692  0.00  0.00    +0.041 C 
ATOM      6  C   UNL     1       2.207   6.828  -3.081  0.00  0.00    +0.097 C 
ATOM      7  N   UNL     1       3.193   7.430  -3.978  0.00  0.00    -0.262 N 
ATOM      8  C   UNL     1       3.184   6.918  -5.316  0.00  0.00    +0.292 A 
ATOM      9  O   UNL     1       4.196   6.227  -5.810  0.00  0.00    -0.424 OA
ATOM     10  C   UNL     1       3.975   5.959  -7.064  0.00  0.00    +0.166 A 
ATOM     11  C   UNL     1       2.657   6.296  -7.323  0.00  0.00    +0.121 A 
ATOM     12  C   UNL     1       2.170   5.992  -8.565  0.00  0.00    +0.034 A 
ATOM     13  C   UNL     1       3.033   5.530  -9.555  0.00  0.00    +0.059 A 
ATOM     14  C   UNL     1       4.324   5.144  -9.259  0.00  0.00    +0.015 A 
ATOM     15 CL   UNL     1       2.509   5.496 -11.233  0.00  0.00    -0.082 Cl
ATOM     16  C   UNL     1       4.819   5.497  -8.035  0.00  0.00    +0.040 A 
ATOM     17  N   UNL     1       2.146   6.761  -6.157  0.00  0.00    -0.195 NA
ATOM     18  C   UNL     1       4.523   7.837  -3.531  0.00  0.00    +0.117 C 
ATOM     19  C   UNL     1       5.093   6.850  -2.518  0.00  0.00    +0.115 C 
ATOM     20  O   UNL     1       3.677   8.957  -1.401  0.00  0.00    -0.270 OA
ENDROOT
BRANCH   1  24
ATOM     21  C   UNL     1       5.772   6.924   3.749  0.00  0.00    +0.031 C 
ATOM     22  C   UNL     1       4.845   7.702   2.928  0.00  0.00    -0.022 A 
ATOM     23  C   UNL     1       4.955   7.814   1.548  0.00  0.00    +0.002 A 
ATOM     24  C   UNL     1       3.861   8.114   0.742  0.00  0.00    +0.073 A 
ATOM     25  C   UNL     1       2.667   8.290   1.419  0.00  0.00    +0.107 A 
ATOM     26  C   UNL     1       2.718   8.714   2.742  0.00  0.00    +0.021 A 
ATOM     27  C   UNL     1       3.740   8.279   3.544  0.00  0.00    -0.003 A 
BRANCH  25  28
ATOM     28  N   UNL     1       1.424   7.993   0.766  0.00  0.00    -0.148 N 
ATOM     29  N   UNL     1       0.457   8.909   0.871  0.00  0.00    -0.145 NA
ATOM     30  C   UNL     1      -0.696   8.356   0.421  0.00  0.00    +0.145 A 
ATOM     31  C   UNL     1      -0.553   7.025   0.793  0.00  0.00    +0.145 A 
ATOM     32  N   UNL     1       0.783   6.831   0.902  0.00  0.00    -0.145 NA
ENDBRANCH  25  28
ENDBRANCH   1  24
TORSDOF 2
ENDMDL
MODEL 5
REMARK VINA RESULT:      -8.7      3.461      9.273
REMARK  Name = 
REMARK  2 active torsions:
REMARK  status: ('A' for Active; 'I' for Inactive)
REMARK    1  A    between atoms: C_5  and  N_6
REMARK    2  A    between atoms: C_11  and  C_12
REMARK                            x       y       z     vdW  Elec       q    Type
REMARK                         _______ _______ _______ _____ _____    ______ ____
ROOT
ATOM      1  C   UNL     1       3.009   6.637  -8.896  0.00  0.00    +0.251 C 
ATOM      2  N   UNL     1       2.327   5.586  -8.259  0.00  0.00    -0.276 N 
ATOM      3  C   UNL     1       3.320   4.510  -7.656  0.00  0.00    +0.077 C 
ATOM      4  C   UNL     1       2.242   3.271  -7.892  0.00  0.00    +0.022 C 
ATOM      5  C   UNL     1       2.797   4.722  -6.095  0.00  0.00    +0.041 C 
ATOM      6  C   UNL     1       3.044   6.165  -5.779  0.00  0.00    +0.097 C 
ATOM      7  N   UNL     1       1.744   6.832  -5.733  0.00  0.00    -0.262 N 
ATOM      8  C   UNL     1       0.980   6.587  -4.546  0.00  0.00    +0.292 A 
ATOM      9  O   UNL     1      -0.155   5.911  -4.569  0.00  0.00    -0.424 OA
ATOM     10  C   UNL     1      -0.689   5.909  -3.382  0.00  0.00    +0.166 A 
ATOM     11  C   UNL     1       0.264   6.409  -2.510  0.00  0.00    +0.121 A 
ATOM     12  C   UNL     1      -0.045   6.393  -1.176  0.00  0.00    +0.034 A 
ATOM     13  C   UNL     1      -1.329   6.048  -0.765  0.00  0.00    +0.059 A 
ATOM     14  C   UNL     1      -2.241   5.496  -1.642  0.00  0.00    +0.015 A 
ATOM     15 CL   UNL     1      -1.845   6.382   0.883  0.00  0.00    -0.082 Cl
ATOM     16  C   UNL     1      -1.947   5.563  -2.975  0.00  0.00    +0.040 A 
ATOM     17  N   UNL     1       1.357   6.689  -3.259  0.00  0.00    -0.195 NA
ATOM     18  C   UNL     1       0.911   7.023  -6.918  0.00  0.00    +0.117 C 
ATOM     19  C   UNL     1       0.981   5.813  -7.844  0.00  0.00    +0.115 C 
ATOM     20  O   UNL     1       2.846   7.792  -8.392  0.00  0.00    -0.270 OA
ENDROOT
BRANCH   1  24
ATOM     21  C   UNL     1       7.004   8.228 -11.264  0.00  0.00    +0.031 C 
ATOM     22  C   UNL     1       5.917   7.254 -11.157  0.00  0.00    -0.022 A 
ATOM     23  C   UNL     1       5.161   7.075 -10.006  0.00  0.00    +0.002 A 
ATOM     24  C   UNL     1       3.876   6.544 -10.042  0.00  0.00    +0.073 A 
ATOM     25  C   UNL     1       3.415   6.213 -11.303  0.00  0.00    +0.107 A 
ATOM     26  C   UNL     1       4.351   5.888 -12.280  0.00  0.00    +0.021 A 
ATOM     27  C   UNL     1       5.556   6.540 -12.293  0.00  0.00    -0.003 A 
BRANCH  25  28
ATOM     28  N   UNL     1       2.009   6.253 -11.587  0.00  0.00    -0.148 N 
ATOM     29  N   UNL     1       1.349   5.094 -11.520  0.00  0.00    -0.145 NA
ATOM     30  C   UNL     1       0.117   5.280 -12.054  0.00  0.00    +0.145 A 
ATOM     31  C   UNL     1       0.362   6.220 -13.047  0.00  0.00    +0.145 A 
ATOM     32  N   UNL     1       1.493   6.856 -12.659  0.00  0.00    -0.145 NA
ENDBRANCH  25  28
ENDBRANCH   1  24
TORSDOF 2
ENDMDL
MODEL 6
REMARK VINA RESULT:      -8.7      3.826      8.392
REMARK  Name = 
REMARK  2 active torsions:
REMARK  status: ('A' for Active; 'I' for Inactive)
REMARK    1  A    between atoms: C_5  and  N_6
REMARK    2  A    between atoms: C_11  and  C_12
REMARK                            x       y       z     vdW  Elec       q    Type
REMARK                         _______ _______ _______ _____ _____    ______ ____
ROOT
ATOM      1  C   UNL     1       2.004   6.716  -8.344  0.00  0.00    +0.251 C 
ATOM      2  N   UNL     1       1.889   5.833  -7.256  0.00  0.00    -0.276 N 
ATOM      3  C   UNL     1       2.940   4.651  -7.334  0.00  0.00    +0.077 C 
ATOM      4  C   UNL     1       1.920   3.593  -6.565  0.00  0.00    +0.022 C 
ATOM      5  C   UNL     1       3.676   5.047  -5.900  0.00  0.00    +0.041 C 
ATOM      6  C   UNL     1       4.176   6.448  -6.075  0.00  0.00    +0.097 C 
ATOM      7  N   UNL     1       3.332   7.320  -5.260  0.00  0.00    -0.262 N 
ATOM      8  C   UNL     1       3.602   7.280  -3.853  0.00  0.00    +0.292 A 
ATOM      9  O   UNL     1       2.730   6.798  -2.984  0.00  0.00    -0.424 OA
ATOM     10  C   UNL     1       3.182   6.960  -1.774  0.00  0.00    +0.166 A 
ATOM     11  C   UNL     1       4.505   7.354  -1.885  0.00  0.00    +0.121 A 
ATOM     12  C   UNL     1       5.218   7.474  -0.723  0.00  0.00    +0.034 A 
ATOM     13  C   UNL     1       4.567   7.372   0.503  0.00  0.00    +0.059 A 
ATOM     14  C   UNL     1       3.267   6.920   0.592  0.00  0.00    +0.015 A 
ATOM     15 CL   UNL     1       5.377   7.891   1.975  0.00  0.00    -0.082 Cl
ATOM     16  C   UNL     1       2.547   6.851  -0.568  0.00  0.00    +0.040 A 
ATOM     17  N   UNL     1       4.778   7.403  -3.212  0.00  0.00    -0.195 NA
ATOM     18  C   UNL     1       1.924   7.566  -5.563  0.00  0.00    +0.117 C 
ATOM     19  C   UNL     1       1.239   6.304  -6.076  0.00  0.00    +0.115 C 
ATOM     20  O   UNL     1       2.323   7.912  -8.059  0.00  0.00    -0.270 OA
ENDROOT
BRANCH   1  24
ATOM     21  C   UNL     1      -0.426   4.183 -11.775  0.00  0.00    +0.031 C 
ATOM     22  C   UNL     1       0.530   5.239 -11.442  0.00  0.00    -0.022 A 
ATOM     23  C   UNL     1       0.640   5.798 -10.176  0.00  0.00    +0.002 A 
ATOM     24  C   UNL     1       1.811   6.408  -9.738  0.00  0.00    +0.073 A 
ATOM     25  C   UNL     1       2.847   6.412 -10.654  0.00  0.00    +0.107 A 
ATOM     26  C   UNL     1       2.527   6.367 -12.007  0.00  0.00    +0.021 A 
ATOM     27  C   UNL     1       1.443   5.635 -12.413  0.00  0.00    -0.003 A 
BRANCH  25  28
ATOM     28  N   UNL     1       4.208   6.417 -10.199  0.00  0.00    -0.148 N 
ATOM     29  N   UNL     1       5.016   7.341 -10.728  0.00  0.00    -0.145 NA
ATOM     30  C   UNL     1       6.289   7.036 -10.377  0.00  0.00    +0.145 A 
ATOM     31  C   UNL     1       6.265   5.647 -10.346  0.00  0.00    +0.145 A 
ATOM     32  N   UNL     1       4.967   5.322 -10.140  0.00  0.00    -0.145 NA
ENDBRANCH  25  28
ENDBRANCH   1  24
TORSDOF 2
ENDMDL
MODEL 7
REMARK VINA RESULT:      -8.7      3.526      8.667
REMARK  Name = 
REMARK  2 active torsions:
REMARK  status: ('A' for Active; 'I' for Inactive)
REMARK    1  A    between atoms: C_5  and  N_6
REMARK    2  A    between atoms: C_11  and  C_12
REMARK                            x       y       z     vdW  Elec       q    Type
REMARK                         _______ _______ _______ _____ _____    ______ ____
ROOT
ATOM      1  C   UNL     1       2.373   6.453  -9.982  0.00  0.00    +0.251 C 
ATOM      2  N   UNL     1       2.235   5.512  -8.946  0.00  0.00    -0.276 N 
ATOM      3  C   UNL     1       3.459   4.509  -8.884  0.00  0.00    +0.077 C 
ATOM      4  C   UNL     1       2.514   3.272  -8.311  0.00  0.00    +0.022 C 
ATOM      5  C   UNL     1       3.897   4.944  -7.344  0.00  0.00    +0.041 C 
ATOM      6  C   UNL     1       4.191   6.412  -7.406  0.00  0.00    +0.097 C 
ATOM      7  N   UNL     1       3.105   7.105  -6.714  0.00  0.00    -0.262 N 
ATOM      8  C   UNL     1       3.161   7.041  -5.284  0.00  0.00    +0.292 A 
ATOM      9  O   UNL     1       2.255   6.392  -4.574  0.00  0.00    -0.424 OA
ATOM     10  C   UNL     1       2.486   6.563  -3.305  0.00  0.00    +0.166 A 
ATOM     11  C   UNL     1       3.732   7.158  -3.198  0.00  0.00    +0.121 A 
ATOM     12  C   UNL     1       4.232   7.331  -1.935  0.00  0.00    +0.034 A 
ATOM     13  C   UNL     1       3.427   7.073  -0.829  0.00  0.00    +0.059 A 
ATOM     14  C   UNL     1       2.216   6.425  -0.957  0.00  0.00    +0.015 A 
ATOM     15 CL   UNL     1       3.912   7.640   0.764  0.00  0.00    -0.082 Cl
ATOM     16  C   UNL     1       1.701   6.301  -2.217  0.00  0.00    +0.040 A 
ATOM     17  N   UNL     1       4.192   7.311  -4.463  0.00  0.00    -0.195 NA
ATOM     18  C   UNL     1       1.739   7.148  -7.230  0.00  0.00    +0.117 C 
ATOM     19  C   UNL     1       1.347   5.822  -7.872  0.00  0.00    +0.115 C 
ATOM     20  O   UNL     1       2.452   7.669  -9.623  0.00  0.00    -0.270 OA
ENDROOT
BRANCH   1  24
ATOM     21  C   UNL     1       0.606   4.058 -13.885  0.00  0.00    +0.031 C 
ATOM     22  C   UNL     1       1.496   5.086 -13.345  0.00  0.00    -0.022 A 
ATOM     23  C   UNL     1       1.371   5.610 -12.066  0.00  0.00    +0.002 A 
ATOM     24  C   UNL     1       2.445   6.185 -11.395  0.00  0.00    +0.073 A 
ATOM     25  C   UNL     1       3.637   6.193 -12.098  0.00  0.00    +0.107 A 
ATOM     26  C   UNL     1       3.580   6.190 -13.487  0.00  0.00    +0.021 A 
ATOM     27  C   UNL     1       2.582   5.490 -14.113  0.00  0.00    -0.003 A 
BRANCH  25  28
ATOM     28  N   UNL     1       4.886   6.160 -11.392  0.00  0.00    -0.148 N 
ATOM     29  N   UNL     1       5.506   7.330 -11.212  0.00  0.00    -0.145 NA
ATOM     30  C   UNL     1       6.759   7.076 -10.763  0.00  0.00    +0.145 A 
ATOM     31  C   UNL     1       7.070   5.883 -11.404  0.00  0.00    +0.145 A 
ATOM     32  N   UNL     1       5.874   5.314 -11.687  0.00  0.00    -0.145 NA
ENDBRANCH  25  28
ENDBRANCH   1  24
TORSDOF 2
ENDMDL
MODEL 8
REMARK VINA RESULT:      -8.7      2.313      3.703
REMARK  Name = 
REMARK  2 active torsions:
REMARK  status: ('A' for Active; 'I' for Inactive)
REMARK    1  A    between atoms: C_5  and  N_6
REMARK    2  A    between atoms: C_11  and  C_12
REMARK                            x       y       z     vdW  Elec       q    Type
REMARK                         _______ _______ _______ _____ _____    ______ ____
ROOT
ATOM      1  C   UNL     1       2.320   6.494  -5.038  0.00  0.00    +0.251 C 
ATOM      2  N   UNL     1       2.452   5.500  -6.023  0.00  0.00    -0.276 N 
ATOM      3  C   UNL     1       1.236   4.486  -6.014  0.00  0.00    +0.077 C 
ATOM      4  C   UNL     1       2.184   3.227  -6.532  0.00  0.00    +0.022 C 
ATOM      5  C   UNL     1       0.775   4.833  -7.570  0.00  0.00    +0.041 C 
ATOM      6  C   UNL     1       0.470   6.299  -7.584  0.00  0.00    +0.097 C 
ATOM      7  N   UNL     1       1.541   6.962  -8.327  0.00  0.00    -0.262 N 
ATOM      8  C   UNL     1       1.466   6.820  -9.750  0.00  0.00    +0.292 A 
ATOM      9  O   UNL     1       2.369   6.140 -10.436  0.00  0.00    -0.424 OA
ATOM     10  C   UNL     1       2.120   6.239 -11.709  0.00  0.00    +0.166 A 
ATOM     11  C   UNL     1       0.868   6.819 -11.832  0.00  0.00    +0.121 A 
ATOM     12  C   UNL     1       0.350   6.919 -13.095  0.00  0.00    +0.034 A 
ATOM     13  C   UNL     1       1.143   6.607 -14.196  0.00  0.00    +0.059 A 
ATOM     14  C   UNL     1       2.360   5.976 -14.050  0.00  0.00    +0.015 A 
ATOM     15 CL   UNL     1       0.632   7.083 -15.811  0.00  0.00    -0.082 Cl
ATOM     16  C   UNL     1       2.893   5.925 -12.792  0.00  0.00    +0.040 A 
ATOM     17  N   UNL     1       0.423   7.037 -10.571  0.00  0.00    -0.195 NA
ATOM     18  C   UNL     1       2.913   7.044  -7.832  0.00  0.00    +0.117 C 
ATOM     19  C   UNL     1       3.323   5.757  -7.124  0.00  0.00    +0.115 C 
ATOM     20  O   UNL     1       2.226   7.688  -5.462  0.00  0.00    -0.270 OA
ENDROOT
BRANCH   1  24
ATOM     21  C   UNL     1       4.327   4.562  -0.997  0.00  0.00    +0.031 C 
ATOM     22  C   UNL     1       3.325   5.443  -1.598  0.00  0.00    -0.022 A 
ATOM     23  C   UNL     1       3.398   5.901  -2.907  0.00  0.00    +0.002 A 
ATOM     24  C   UNL     1       2.268   6.304  -3.612  0.00  0.00    +0.073 A 
ATOM     25  C   UNL     1       1.078   6.211  -2.912  0.00  0.00    +0.107 A 
ATOM     26  C   UNL     1       1.123   6.296  -1.525  0.00  0.00    +0.021 A 
ATOM     27  C   UNL     1       2.192   5.758  -0.857  0.00  0.00    -0.003 A 
BRANCH  25  28
ATOM     28  N   UNL     1      -0.152   5.986  -3.617  0.00  0.00    -0.148 N 
ATOM     29  N   UNL     1      -0.833   7.072  -3.997  0.00  0.00    -0.145 NA
ATOM     30  C   UNL     1      -2.060   6.673  -4.411  0.00  0.00    +0.145 A 
ATOM     31  C   UNL     1      -2.316   5.587  -3.583  0.00  0.00    +0.145 A 
ATOM     32  N   UNL     1      -1.097   5.145  -3.195  0.00  0.00    -0.145 NA
ENDBRANCH  25  28
ENDBRANCH   1  24
TORSDOF 2
ENDMDL
MODEL 9
REMARK VINA RESULT:      -8.1      3.572      9.092
REMARK  Name = 
REMARK  2 active torsions:
REMARK  status: ('A' for Active; 'I' for Inactive)
REMARK    1  A    between atoms: C_5  and  N_6
REMARK    2  A    between atoms: C_11  and  C_12
REMARK                            x       y       z     vdW  Elec       q    Type
REMARK                         _______ _______ _______ _____ _____    ______ ____
ROOT
ATOM      1  C   UNL     1       3.453   6.321 -10.076  0.00  0.00    +0.251 C 
ATOM      2  N   UNL     1       2.900   5.514  -9.067  0.00  0.00    -0.276 N 
ATOM      3  C   UNL     1       3.724   4.179  -8.852  0.00  0.00    +0.077 C 
ATOM      4  C   UNL     1       2.372   3.328  -8.404  0.00  0.00    +0.022 C 
ATOM      5  C   UNL     1       4.089   4.513  -7.268  0.00  0.00    +0.041 C 
ATOM      6  C   UNL     1       4.839   5.809  -7.291  0.00  0.00    +0.097 C 
ATOM      7  N   UNL     1       3.956   6.837  -6.741  0.00  0.00    -0.262 N 
ATOM      8  C   UNL     1       3.817   6.815  -5.316  0.00  0.00    +0.292 A 
ATOM      9  O   UNL     1       2.673   6.514  -4.727  0.00  0.00    -0.424 OA
ATOM     10  C   UNL     1       2.792   6.653  -3.438  0.00  0.00    +0.166 A 
ATOM     11  C   UNL     1       4.140   6.828  -3.174  0.00  0.00    +0.121 A 
ATOM     12  C   UNL     1       4.513   6.884  -1.858  0.00  0.00    +0.034 A 
ATOM     13  C   UNL     1       3.541   6.937  -0.863  0.00  0.00    +0.059 A 
ATOM     14  C   UNL     1       2.211   6.700  -1.144  0.00  0.00    +0.015 A 
ATOM     15 CL   UNL     1       3.986   7.384   0.779  0.00  0.00    -0.082 Cl
ATOM     16  C   UNL     1       1.839   6.696  -2.459  0.00  0.00    +0.040 A 
ATOM     17  N   UNL     1       4.773   6.777  -4.371  0.00  0.00    -0.195 NA
ATOM     18  C   UNL     1       2.747   7.290  -7.426  0.00  0.00    +0.117 C 
ATOM     19  C   UNL     1       2.035   6.130  -8.114  0.00  0.00    +0.115 C 
ATOM     20  O   UNL     1       3.872   7.463  -9.709  0.00  0.00    -0.270 OA
ENDROOT
BRANCH   1  24
ATOM     21  C   UNL     1       6.358   6.070 -14.025  0.00  0.00    +0.031 C 
ATOM     22  C   UNL     1       5.076   5.758 -13.393  0.00  0.00    -0.022 A 
ATOM     23  C   UNL     1       4.870   5.802 -12.020  0.00  0.00    +0.002 A 
ATOM     24  C   UNL     1       3.606   5.989 -11.469  0.00  0.00    +0.073 A 
ATOM     25  C   UNL     1       2.582   6.129 -12.388  0.00  0.00    +0.107 A 
ATOM     26  C   UNL     1       2.736   5.539 -13.638  0.00  0.00    +0.021 A 
ATOM     27  C   UNL     1       3.981   5.502 -14.210  0.00  0.00    -0.003 A 
BRANCH  25  28
ATOM     28  N   UNL     1       1.421   6.903 -12.056  0.00  0.00    -0.148 N 
ATOM     29  N   UNL     1       0.432   6.263 -11.424  0.00  0.00    -0.145 NA
ATOM     30  C   UNL     1      -0.656   7.071 -11.420  0.00  0.00    +0.145 A 
ATOM     31  C   UNL     1      -0.531   7.746 -12.628  0.00  0.00    +0.145 A 
ATOM     32  N   UNL     1       0.789   7.691 -12.927  0.00  0.00    -0.145 NA
ENDBRANCH  25  28
ENDBRANCH   1  24
TORSDOF 2
ENDMDL
