MODEL 1
REMARK VINA RESULT:      -8.9      0.000      0.000
REMARK  Name = 
REMARK  7 active torsions:
REMARK  status: ('A' for Active; 'I' for Inactive)
REMARK    1  A    between atoms: C_4  and  C_5
REMARK    2  A    between atoms: C_9  and  C_10
REMARK    3  A    between atoms: C_10  and  O_12
REMARK    4  A    between atoms: O_12  and  C_13
REMARK    5  A    between atoms: C_13  and  C_14
REMARK    6  A    between atoms: C_18  and  O_19
REMARK    7  A    between atoms: O_19  and  C_20
REMARK                            x       y       z     vdW  Elec       q    Type
REMARK                         _______ _______ _______ _____ _____    ______ ____
ROOT
ATOM      1  C   UNL     1       0.067   5.961  -7.371  0.00  0.00    +0.235 C 
ENDROOT
BRANCH   1   2
ATOM      2  C   UNL     1       1.526   6.256  -7.399  0.00  0.00    +0.024 A 
ATOM      3  C   UNL     1       2.323   5.961  -8.488  0.00  0.00    +0.037 A 
ATOM      4  C   UNL     1       3.638   5.594  -8.227  0.00  0.00    +0.145 A 
ATOM      5  C   UNL     1       4.255   6.005  -7.057  0.00  0.00    +0.037 A 
ATOM      6  C   UNL     1       3.553   6.864  -6.219  0.00  0.00    +0.003 A 
ATOM      7  C   UNL     1       2.189   6.717  -6.278  0.00  0.00    -0.000 A 
BRANCH   4   8
ATOM      8  O   UNL     1       4.446   5.100  -9.227  0.00  0.00    -0.454 OA
BRANCH   8   9
ATOM      9  C   UNL     1       5.394   5.888  -9.870  0.00  0.00    +0.145 A 
ATOM     10  C   UNL     1       6.713   5.756  -9.483  0.00  0.00    +0.037 A 
ATOM     11  C   UNL     1       7.684   6.262 -10.340  0.00  0.00    +0.003 A 
ATOM     12  C   UNL     1       7.300   7.172 -11.293  0.00  0.00    +0.000 A 
ATOM     13  C   UNL     1       6.042   7.730 -11.218  0.00  0.00    +0.003 A 
ATOM     14  C   UNL     1       5.048   7.022 -10.557  0.00  0.00    +0.037 A 
ENDBRANCH   8   9
ENDBRANCH   4   8
ENDBRANCH   1   2
BRANCH   1  15
ATOM     15  O   UNL     1      -0.531   6.485  -6.186  0.00  0.00    -0.443 OA
BRANCH  15  16
ATOM     16  C   UNL     1      -1.590   5.776  -5.609  0.00  0.00    +0.317 C 
ATOM     17  O   UNL     1      -2.281   5.074  -6.339  0.00  0.00    -0.250 OA
BRANCH  16  20
ATOM     18  C   UNL     1      -2.769   5.186  -3.516  0.00  0.00    +0.001 C 
ATOM     19  C   UNL     1      -2.854   5.792  -3.369  0.00  0.00    +0.015 C 
ATOM     20  C   UNL     1      -2.398   6.870  -4.676  0.00  0.00    +0.103 C 
ATOM     21  C   UNL     1      -1.424   6.787  -3.209  0.00  0.00    +0.035 C 
ATOM     22  C   UNL     1      -3.861   6.631  -2.588  0.00  0.00    +0.001 C 
BRANCH  21  23
ATOM     23  C   UNL     1      -0.366   5.597  -3.648  0.00  0.00    -0.003 C 
ATOM     24  C   UNL     1       0.614   5.494  -2.748  0.00  0.00    +0.111 C 
ATOM     25 CL   UNL     1       2.306   5.364  -3.248  0.00  0.00    -0.070 Cl
ATOM     26 CL   UNL     1       0.164   5.177  -1.095  0.00  0.00    -0.070 Cl
ENDBRANCH  21  23
ENDBRANCH  16  20
ENDBRANCH  15  16
ENDBRANCH   1  15
TORSDOF 7
ENDMDL
MODEL 2
REMARK VINA RESULT:      -8.7      3.285      7.019
REMARK  Name = 
REMARK  7 active torsions:
REMARK  status: ('A' for Active; 'I' for Inactive)
REMARK    1  A    between atoms: C_4  and  C_5
REMARK    2  A    between atoms: C_9  and  C_10
REMARK    3  A    between atoms: C_10  and  O_12
REMARK    4  A    between atoms: O_12  and  C_13
REMARK    5  A    between atoms: C_13  and  C_14
REMARK    6  A    between atoms: C_18  and  O_19
REMARK    7  A    between atoms: O_19  and  C_20
REMARK                            x       y       z     vdW  Elec       q    Type
REMARK                         _______ _______ _______ _____ _____    ______ ____
ROOT
ATOM      1  C   UNL     1      -0.404   5.421  -7.266  0.00  0.00    +0.235 C 
ENDROOT
BRANCH   1   2
ATOM      2  C   UNL     1      -0.602   5.863  -5.859  0.00  0.00    +0.024 A 
ATOM      3  C   UNL     1       0.435   6.333  -5.074  0.00  0.00    +0.037 A 
ATOM      4  C   UNL     1       0.375   6.054  -3.714  0.00  0.00    +0.145 A 
ATOM      5  C   UNL     1      -0.848   5.814  -3.108  0.00  0.00    +0.037 A 
ATOM      6  C   UNL     1      -1.996   5.960  -3.878  0.00  0.00    +0.003 A 
ATOM      7  C   UNL     1      -1.813   5.698  -5.214  0.00  0.00    -0.000 A 
BRANCH   4   8
ATOM      8  O   UNL     1       1.447   6.312  -2.891  0.00  0.00    -0.454 OA
BRANCH   8   9
ATOM      9  C   UNL     1       2.742   6.446  -3.380  0.00  0.00    +0.145 A 
ATOM     10  C   UNL     1       3.464   5.292  -3.619  0.00  0.00    +0.037 A 
ATOM     11  C   UNL     1       4.594   5.401  -4.421  0.00  0.00    +0.003 A 
ATOM     12  C   UNL     1       5.141   6.646  -4.609  0.00  0.00    +0.000 A 
ATOM     13  C   UNL     1       4.712   7.692  -3.821  0.00  0.00    +0.003 A 
ATOM     14  C   UNL     1       3.443   7.617  -3.263  0.00  0.00    +0.037 A 
ENDBRANCH   8   9
ENDBRANCH   4   8
ENDBRANCH   1   2
BRANCH   1  15
ATOM     15  O   UNL     1       0.844   5.890  -7.772  0.00  0.00    -0.443 OA
BRANCH  15  16
ATOM     16  C   UNL     1       1.898   4.975  -7.887  0.00  0.00    +0.317 C 
ATOM     17  O   UNL     1       1.892   3.993  -7.155  0.00  0.00    -0.250 OA
BRANCH  16  20
ATOM     18  C   UNL     1       3.998   4.297  -9.004  0.00  0.00    +0.001 C 
ATOM     19  C   UNL     1       4.254   4.866  -8.914  0.00  0.00    +0.015 C 
ATOM     20  C   UNL     1       3.274   5.884  -7.874  0.00  0.00    +0.103 C 
ATOM     21  C   UNL     1       3.413   6.240  -9.596  0.00  0.00    +0.035 C 
ATOM     22  C   UNL     1       5.648   5.458  -8.735  0.00  0.00    +0.001 C 
BRANCH  21  23
ATOM     23  C   UNL     1       2.131   5.363 -10.161  0.00  0.00    -0.003 C 
ATOM     24  C   UNL     1       1.672   5.897 -11.295  0.00  0.00    +0.111 C 
ATOM     25 CL   UNL     1      -0.062   6.131 -11.559  0.00  0.00    -0.070 Cl
ATOM     26 CL   UNL     1       2.788   6.062 -12.622  0.00  0.00    -0.070 Cl
ENDBRANCH  21  23
ENDBRANCH  16  20
ENDBRANCH  15  16
ENDBRANCH   1  15
TORSDOF 7
ENDMDL
MODEL 3
REMARK VINA RESULT:      -8.6      2.177      4.143
REMARK  Name = 
REMARK  7 active torsions:
REMARK  status: ('A' for Active; 'I' for Inactive)
REMARK    1  A    between atoms: C_4  and  C_5
REMARK    2  A    between atoms: C_9  and  C_10
REMARK    3  A    between atoms: C_10  and  O_12
REMARK    4  A    between atoms: O_12  and  C_13
REMARK    5  A    between atoms: C_13  and  C_14
REMARK    6  A    between atoms: C_18  and  O_19
REMARK    7  A    between atoms: O_19  and  C_20
REMARK                            x       y       z     vdW  Elec       q    Type
REMARK                         _______ _______ _______ _____ _____    ______ ____
ROOT
ATOM      1  C   UNL     1       0.723   6.286  -8.227  0.00  0.00    +0.235 C 
ENDROOT
BRANCH   1   2
ATOM      2  C   UNL     1       1.088   6.042  -9.649  0.00  0.00    +0.024 A 
ATOM      3  C   UNL     1       2.258   5.405 -10.018  0.00  0.00    +0.037 A 
ATOM      4  C   UNL     1       2.856   5.818 -11.202  0.00  0.00    +0.145 A 
ATOM      5  C   UNL     1       2.094   6.411 -12.195  0.00  0.00    +0.037 A 
ATOM      6  C   UNL     1       0.719   6.484 -12.003  0.00  0.00    +0.003 A 
ATOM      7  C   UNL     1       0.338   6.564 -10.686  0.00  0.00    -0.000 A 
BRANCH   4   8
ATOM      8  O   UNL     1       4.114   5.380 -11.550  0.00  0.00    -0.454 OA
BRANCH   8   9
ATOM      9  C   UNL     1       5.269   5.997 -11.084  0.00  0.00    +0.145 A 
ATOM     10  C   UNL     1       5.786   5.570  -9.876  0.00  0.00    +0.037 A 
ATOM     11  C   UNL     1       7.099   5.922  -9.583  0.00  0.00    +0.003 A 
ATOM     12  C   UNL     1       7.669   6.954 -10.287  0.00  0.00    +0.000 A 
ATOM     13  C   UNL     1       6.865   7.753 -11.072  0.00  0.00    +0.003 A 
ATOM     14  C   UNL     1       5.674   7.221 -11.546  0.00  0.00    +0.037 A 
ENDBRANCH   8   9
ENDBRANCH   4   8
ENDBRANCH   1   2
BRANCH   1  15
ATOM     15  O   UNL     1       1.719   5.759  -7.352  0.00  0.00    -0.443 OA
BRANCH  15  16
ATOM     16  C   UNL     1       2.472   6.658  -6.587  0.00  0.00    +0.317 C 
ATOM     17  O   UNL     1       2.855   7.692  -7.123  0.00  0.00    -0.250 OA
BRANCH  16  20
ATOM     18  C   UNL     1       3.622   7.328  -4.503  0.00  0.00    +0.001 C 
ATOM     19  C   UNL     1       3.885   6.759  -4.441  0.00  0.00    +0.015 C 
ATOM     20  C   UNL     1       3.632   5.746  -5.851  0.00  0.00    +0.103 C 
ATOM     21  C   UNL     1       2.809   5.383  -4.335  0.00  0.00    +0.035 C 
ATOM     22  C   UNL     1       5.151   6.165  -3.832  0.00  0.00    +0.001 C 
BRANCH  21  23
ATOM     23  C   UNL     1       1.426   6.260  -4.556  0.00  0.00    -0.003 C 
ATOM     24  C   UNL     1       0.371   5.580  -4.103  0.00  0.00    +0.111 C 
ATOM     25 CL   UNL     1      -1.118   5.462  -5.053  0.00  0.00    -0.070 Cl
ATOM     26 CL   UNL     1       0.385   5.083  -2.434  0.00  0.00    -0.070 Cl
ENDBRANCH  21  23
ENDBRANCH  16  20
ENDBRANCH  15  16
ENDBRANCH   1  15
TORSDOF 7
ENDMDL
MODEL 4
REMARK VINA RESULT:      -8.6      2.723      4.274
REMARK  Name = 
REMARK  7 active torsions:
REMARK  status: ('A' for Active; 'I' for Inactive)
REMARK    1  A    between atoms: C_4  and  C_5
REMARK    2  A    between atoms: C_9  and  C_10
REMARK    3  A    between atoms: C_10  and  O_12
REMARK    4  A    between atoms: O_12  and  C_13
REMARK    5  A    between atoms: C_13  and  C_14
REMARK    6  A    between atoms: C_18  and  O_19
REMARK    7  A    between atoms: O_19  and  C_20
REMARK                            x       y       z     vdW  Elec       q    Type
REMARK                         _______ _______ _______ _____ _____    ______ ____
ROOT
ATOM      1  C   UNL     1       1.247   5.326  -6.970  0.00  0.00    +0.235 C 
ENDROOT
BRANCH   1   2
ATOM      2  C   UNL     1       1.391   5.356  -8.451  0.00  0.00    +0.024 A 
ATOM      3  C   UNL     1       2.493   4.836  -9.102  0.00  0.00    +0.037 A 
ATOM      4  C   UNL     1       2.900   5.476 -10.266  0.00  0.00    +0.145 A 
ATOM      5  C   UNL     1       1.992   6.214 -11.007  0.00  0.00    +0.037 A 
ATOM      6  C   UNL     1       0.662   6.206 -10.600  0.00  0.00    +0.003 A 
ATOM      7  C   UNL     1       0.489   6.033  -9.249  0.00  0.00    -0.000 A 
BRANCH   4   8
ATOM      8  O   UNL     1       4.092   5.149 -10.874  0.00  0.00    -0.454 OA
BRANCH   8   9
ATOM      9  C   UNL     1       5.257   5.878 -10.660  0.00  0.00    +0.145 A 
ATOM     10  C   UNL     1       6.007   5.579  -9.539  0.00  0.00    +0.037 A 
ATOM     11  C   UNL     1       7.319   6.041  -9.508  0.00  0.00    +0.003 A 
ATOM     12  C   UNL     1       7.673   7.054 -10.365  0.00  0.00    +0.000 A 
ATOM     13  C   UNL     1       6.684   7.735 -11.042  0.00  0.00    +0.003 A 
ATOM     14  C   UNL     1       5.475   7.089 -11.262  0.00  0.00    +0.037 A 
ENDBRANCH   8   9
ENDBRANCH   4   8
ENDBRANCH   1   2
BRANCH   1  15
ATOM     15  O   UNL     1       2.526   5.263  -6.340  0.00  0.00    -0.443 OA
BRANCH  15  16
ATOM     16  C   UNL     1       3.090   6.452  -5.864  0.00  0.00    +0.317 C 
ATOM     17  O   UNL     1       3.054   7.439  -6.590  0.00  0.00    -0.250 OA
BRANCH  16  20
ATOM     18  C   UNL     1       4.380   7.845  -4.279  0.00  0.00    +0.001 C 
ATOM     19  C   UNL     1       4.797   7.383  -4.181  0.00  0.00    +0.015 C 
ATOM     20  C   UNL     1       4.574   6.034  -5.279  0.00  0.00    +0.103 C 
ATOM     21  C   UNL     1       4.183   5.864  -3.568  0.00  0.00    +0.035 C 
ATOM     22  C   UNL     1       6.270   7.258  -3.801  0.00  0.00    +0.001 C 
BRANCH  21  23
ATOM     23  C   UNL     1       2.596   6.321  -3.603  0.00  0.00    -0.003 C 
ATOM     24  C   UNL     1       1.949   5.822  -2.547  0.00  0.00    +0.111 C 
ATOM     25 CL   UNL     1       0.366   5.051  -2.725  0.00  0.00    -0.070 Cl
ATOM     26 CL   UNL     1       2.551   6.227  -0.964  0.00  0.00    -0.070 Cl
ENDBRANCH  21  23
ENDBRANCH  16  20
ENDBRANCH  15  16
ENDBRANCH   1  15
TORSDOF 7
ENDMDL
MODEL 5
REMARK VINA RESULT:      -8.5      3.201      7.458
REMARK  Name = 
REMARK  7 active torsions:
REMARK  status: ('A' for Active; 'I' for Inactive)
REMARK    1  A    between atoms: C_4  and  C_5
REMARK    2  A    between atoms: C_9  and  C_10
REMARK    3  A    between atoms: C_10  and  O_12
REMARK    4  A    between atoms: O_12  and  C_13
REMARK    5  A    between atoms: C_13  and  C_14
REMARK    6  A    between atoms: C_18  and  O_19
REMARK    7  A    between atoms: O_19  and  C_20
REMARK                            x       y       z     vdW  Elec       q    Type
REMARK                         _______ _______ _______ _____ _____    ______ ____
ROOT
ATOM      1  C   UNL     1       4.529   6.591  -5.212  0.00  0.00    +0.235 C 
ENDROOT
BRANCH   1   2
ATOM      2  C   UNL     1       3.725   6.170  -4.032  0.00  0.00    +0.024 A 
ATOM      3  C   UNL     1       2.559   5.440  -4.149  0.00  0.00    +0.037 A 
ATOM      4  C   UNL     1       1.562   5.685  -3.213  0.00  0.00    +0.145 A 
ATOM      5  C   UNL     1       1.889   6.199  -1.969  0.00  0.00    +0.037 A 
ATOM      6  C   UNL     1       3.236   6.362  -1.666  0.00  0.00    +0.003 A 
ATOM      7  C   UNL     1       4.032   6.609  -2.757  0.00  0.00    -0.000 A 
BRANCH   4   8
ATOM      8  O   UNL     1       0.302   5.149  -3.362  0.00  0.00    -0.454 OA
BRANCH   8   9
ATOM      9  C   UNL     1      -0.612   5.651  -4.281  0.00  0.00    +0.145 A 
ATOM     10  C   UNL     1      -0.482   5.259  -5.600  0.00  0.00    +0.037 A 
ATOM     11  C   UNL     1      -1.573   5.464  -6.437  0.00  0.00    +0.003 A 
ATOM     12  C   UNL     1      -2.539   6.356  -6.042  0.00  0.00    +0.000 A 
ATOM     13  C   UNL     1      -2.286   7.185  -4.970  0.00  0.00    +0.003 A 
ATOM     14  C   UNL     1      -1.355   6.773  -4.026  0.00  0.00    +0.037 A 
ENDBRANCH   8   9
ENDBRANCH   4   8
ENDBRANCH   1   2
BRANCH   1  15
ATOM     15  O   UNL     1       4.088   5.918  -6.389  0.00  0.00    -0.443 OA
BRANCH  15  16
ATOM     16  C   UNL     1       3.242   6.605  -7.268  0.00  0.00    +0.317 C 
ATOM     17  O   UNL     1       2.756   7.665  -6.891  0.00  0.00    -0.250 OA
BRANCH  16  20
ATOM     18  C   UNL     1       1.888   6.898  -9.317  0.00  0.00    +0.001 C 
ATOM     19  C   UNL     1       1.704   6.296  -9.306  0.00  0.00    +0.015 C 
ATOM     20  C   UNL     1       2.179   5.476  -7.830  0.00  0.00    +0.103 C 
ATOM     21  C   UNL     1       2.954   5.074  -9.362  0.00  0.00    +0.035 C 
ATOM     22  C   UNL     1       0.499   5.479  -9.763  0.00  0.00    +0.001 C 
BRANCH  21  23
ATOM     23  C   UNL     1       4.210   6.145  -9.324  0.00  0.00    -0.003 C 
ATOM     24  C   UNL     1       5.237   5.678 -10.037  0.00  0.00    +0.111 C 
ATOM     25 CL   UNL     1       6.890   5.738  -9.408  0.00  0.00    -0.070 Cl
ATOM     26 CL   UNL     1       4.953   5.301 -11.714  0.00  0.00    -0.070 Cl
ENDBRANCH  21  23
ENDBRANCH  16  20
ENDBRANCH  15  16
ENDBRANCH   1  15
TORSDOF 7
ENDMDL
MODEL 6
REMARK VINA RESULT:      -8.4      2.188      3.610
REMARK  Name = 
REMARK  7 active torsions:
REMARK  status: ('A' for Active; 'I' for Inactive)
REMARK    1  A    between atoms: C_4  and  C_5
REMARK    2  A    between atoms: C_9  and  C_10
REMARK    3  A    between atoms: C_10  and  O_12
REMARK    4  A    between atoms: O_12  and  C_13
REMARK    5  A    between atoms: C_13  and  C_14
REMARK    6  A    between atoms: C_18  and  O_19
REMARK    7  A    between atoms: O_19  and  C_20
REMARK                            x       y       z     vdW  Elec       q    Type
REMARK                         _______ _______ _______ _____ _____    ______ ____
ROOT
ATOM      1  C   UNL     1       2.324   6.854  -4.912  0.00  0.00    +0.235 C 
ENDROOT
BRANCH   1   2
ATOM      2  C   UNL     1       3.217   6.656  -6.086  0.00  0.00    +0.024 A 
ATOM      3  C   UNL     1       2.895   7.109  -7.351  0.00  0.00    +0.037 A 
ATOM      4  C   UNL     1       3.329   6.344  -8.427  0.00  0.00    +0.145 A 
ATOM      5  C   UNL     1       4.431   5.516  -8.290  0.00  0.00    +0.037 A 
ATOM      6  C   UNL     1       5.130   5.556  -7.089  0.00  0.00    +0.003 A 
ATOM      7  C   UNL     1       4.359   5.882  -6.000  0.00  0.00    -0.000 A 
BRANCH   4   8
ATOM      8  O   UNL     1       2.896   6.610  -9.706  0.00  0.00    -0.454 OA
BRANCH   8   9
ATOM      9  C   UNL     1       1.717   6.076 -10.215  0.00  0.00    +0.145 A 
ATOM     10  C   UNL     1       0.695   6.952 -10.528  0.00  0.00    +0.037 A 
ATOM     11  C   UNL     1      -0.323   6.478 -11.347  0.00  0.00    +0.003 A 
ATOM     12  C   UNL     1      -0.470   5.119 -11.484  0.00  0.00    +0.000 A 
ATOM     13  C   UNL     1       0.222   4.282 -10.635  0.00  0.00    +0.003 A 
ATOM     14  C   UNL     1       1.391   4.756 -10.054  0.00  0.00    +0.037 A 
ENDBRANCH   8   9
ENDBRANCH   4   8
ENDBRANCH   1   2
BRANCH   1  15
ATOM     15  O   UNL     1       1.671   5.635  -4.563  0.00  0.00    -0.443 OA
BRANCH  15  16
ATOM     16  C   UNL     1       0.406   5.381  -5.106  0.00  0.00    +0.317 C 
ATOM     17  O   UNL     1       0.339   4.681  -6.110  0.00  0.00    -0.250 OA
BRANCH  16  20
ATOM     18  C   UNL     1      -2.048   5.678  -5.033  0.00  0.00    +0.001 C 
ATOM     19  C   UNL     1      -1.992   6.302  -4.973  0.00  0.00    +0.015 C 
ATOM     20  C   UNL     1      -0.339   6.849  -5.193  0.00  0.00    +0.103 C 
ATOM     21  C   UNL     1      -1.089   6.898  -3.598  0.00  0.00    +0.035 C 
ATOM     22  C   UNL     1      -2.801   7.545  -5.331  0.00  0.00    +0.001 C 
BRANCH  21  23
ATOM     23  C   UNL     1      -0.657   5.402  -3.046  0.00  0.00    -0.003 C 
ATOM     24  C   UNL     1      -0.404   5.449  -1.736  0.00  0.00    +0.111 C 
ATOM     25 CL   UNL     1       1.029   4.668  -1.052  0.00  0.00    -0.070 Cl
ATOM     26 CL   UNL     1      -1.672   6.020  -0.687  0.00  0.00    -0.070 Cl
ENDBRANCH  21  23
ENDBRANCH  16  20
ENDBRANCH  15  16
ENDBRANCH   1  15
TORSDOF 7
ENDMDL
MODEL 7
REMARK VINA RESULT:      -8.3      2.026      2.970
REMARK  Name = 
REMARK  7 active torsions:
REMARK  status: ('A' for Active; 'I' for Inactive)
REMARK    1  A    between atoms: C_4  and  C_5
REMARK    2  A    between atoms: C_9  and  C_10
REMARK    3  A    between atoms: C_10  and  O_12
REMARK    4  A    between atoms: O_12  and  C_13
REMARK    5  A    between atoms: C_13  and  C_14
REMARK    6  A    between atoms: C_18  and  O_19
REMARK    7  A    between atoms: O_19  and  C_20
REMARK                            x       y       z     vdW  Elec       q    Type
REMARK                         _______ _______ _______ _____ _____    ______ ____
ROOT
ATOM      1  C   UNL     1       1.116   6.444  -7.643  0.00  0.00    +0.235 C 
ENDROOT
BRANCH   1   2
ATOM      2  C   UNL     1       1.348   6.029  -9.053  0.00  0.00    +0.024 A 
ATOM      3  C   UNL     1       2.513   5.412  -9.465  0.00  0.00    +0.037 A 
ATOM      4  C   UNL     1       2.956   5.691 -10.752  0.00  0.00    +0.145 A 
ATOM      5  C   UNL     1       2.056   6.103 -11.722  0.00  0.00    +0.037 A 
ATOM      6  C   UNL     1       0.707   6.129 -11.389  0.00  0.00    +0.003 A 
ATOM      7  C   UNL     1       0.461   6.366 -10.059  0.00  0.00    -0.000 A 
BRANCH   4   8
ATOM      8  O   UNL     1       4.198   5.277 -11.179  0.00  0.00    -0.454 OA
BRANCH   8   9
ATOM      9  C   UNL     1       5.360   5.973 -10.865  0.00  0.00    +0.145 A 
ATOM     10  C   UNL     1       6.051   5.595  -9.731  0.00  0.00    +0.037 A 
ATOM     11  C   UNL     1       7.365   6.035  -9.607  0.00  0.00    +0.003 A 
ATOM     12  C   UNL     1       7.772   7.093 -10.382  0.00  0.00    +0.000 A 
ATOM     13  C   UNL     1       6.826   7.829 -11.061  0.00  0.00    +0.003 A 
ATOM     14  C   UNL     1       5.621   7.216 -11.379  0.00  0.00    +0.037 A 
ENDBRANCH   8   9
ENDBRANCH   4   8
ENDBRANCH   1   2
BRANCH   1  15
ATOM     15  O   UNL     1       2.010   5.764  -6.763  0.00  0.00    -0.443 OA
BRANCH  15  16
ATOM     16  C   UNL     1       1.466   5.002  -5.723  0.00  0.00    +0.317 C 
ATOM     17  O   UNL     1       1.252   3.813  -5.929  0.00  0.00    -0.250 OA
BRANCH  16  20
ATOM     18  C   UNL     1       0.713   4.952  -3.368  0.00  0.00    +0.001 C 
ATOM     19  C   UNL     1       0.327   5.441  -3.459  0.00  0.00    +0.015 C 
ATOM     20  C   UNL     1       0.193   5.882  -5.152  0.00  0.00    +0.103 C 
ATOM     21  C   UNL     1       1.042   6.935  -4.022  0.00  0.00    +0.035 C 
ATOM     22  C   UNL     1      -0.984   5.965  -2.879  0.00  0.00    +0.001 C 
BRANCH  21  23
ATOM     23  C   UNL     1       2.569   6.322  -4.169  0.00  0.00    -0.003 C 
ATOM     24  C   UNL     1       3.461   7.177  -3.662  0.00  0.00    +0.111 C 
ATOM     25 CL   UNL     1       4.951   7.566  -4.533  0.00  0.00    -0.070 Cl
ATOM     26 CL   UNL     1       3.271   7.651  -1.997  0.00  0.00    -0.070 Cl
ENDBRANCH  21  23
ENDBRANCH  16  20
ENDBRANCH  15  16
ENDBRANCH   1  15
TORSDOF 7
ENDMDL
MODEL 8
REMARK VINA RESULT:      -8.2      2.265      3.834
REMARK  Name = 
REMARK  7 active torsions:
REMARK  status: ('A' for Active; 'I' for Inactive)
REMARK    1  A    between atoms: C_4  and  C_5
REMARK    2  A    between atoms: C_9  and  C_10
REMARK    3  A    between atoms: C_10  and  O_12
REMARK    4  A    between atoms: O_12  and  C_13
REMARK    5  A    between atoms: C_13  and  C_14
REMARK    6  A    between atoms: C_18  and  O_19
REMARK    7  A    between atoms: O_19  and  C_20
REMARK                            x       y       z     vdW  Elec       q    Type
REMARK                         _______ _______ _______ _____ _____    ______ ____
ROOT
ATOM      1  C   UNL     1       2.337   4.789  -7.898  0.00  0.00    +0.235 C 
ENDROOT
BRANCH   1   2
ATOM      2  C   UNL     1       2.720   5.152  -9.289  0.00  0.00    +0.024 A 
ATOM      3  C   UNL     1       3.941   5.719  -9.601  0.00  0.00    +0.037 A 
ATOM      4  C   UNL     1       3.967   6.628 -10.651  0.00  0.00    +0.145 A 
ATOM      5  C   UNL     1       3.000   6.571 -11.642  0.00  0.00    +0.037 A 
ATOM      6  C   UNL     1       2.082   5.528 -11.597  0.00  0.00    +0.003 A 
ATOM      7  C   UNL     1       1.815   5.069 -10.331  0.00  0.00    -0.000 A 
BRANCH   4   8
ATOM      8  O   UNL     1       5.090   7.382 -10.909  0.00  0.00    -0.454 OA
BRANCH   8   9
ATOM      9  C   UNL     1       6.225   6.842 -11.503  0.00  0.00    +0.145 A 
ATOM     10  C   UNL     1       7.326   6.614 -10.701  0.00  0.00    +0.037 A 
ATOM     11  C   UNL     1       8.313   5.768 -11.196  0.00  0.00    +0.003 A 
ATOM     12  C   UNL     1       8.339   5.519 -12.546  0.00  0.00    +0.000 A 
ATOM     13  C   UNL     1       7.561   6.289 -13.384  0.00  0.00    +0.003 A 
ATOM     14  C   UNL     1       6.429   6.895 -12.856  0.00  0.00    +0.037 A 
ENDBRANCH   8   9
ENDBRANCH   4   8
ENDBRANCH   1   2
BRANCH   1  15
ATOM     15  O   UNL     1       1.537   5.814  -7.310  0.00  0.00    -0.443 OA
BRANCH  15  16
ATOM     16  C   UNL     1       2.076   6.549  -6.249  0.00  0.00    +0.317 C 
ATOM     17  O   UNL     1       2.821   7.486  -6.515  0.00  0.00    -0.250 OA
BRANCH  16  20
ATOM     18  C   UNL     1       2.223   6.916  -3.807  0.00  0.00    +0.001 C 
ATOM     19  C   UNL     1       2.363   6.311  -3.704  0.00  0.00    +0.015 C 
ATOM     20  C   UNL     1       2.664   5.430  -5.190  0.00  0.00    +0.103 C 
ATOM     21  C   UNL     1       1.207   5.116  -4.248  0.00  0.00    +0.035 C 
ATOM     22  C   UNL     1       3.139   5.495  -2.674  0.00  0.00    +0.001 C 
BRANCH  21  23
ATOM     23  C   UNL     1       0.185   6.207  -4.951  0.00  0.00    -0.003 C 
ATOM     24  C   UNL     1      -1.073   5.766  -4.891  0.00  0.00    +0.111 C 
ATOM     25 CL   UNL     1      -2.138   5.844  -6.302  0.00  0.00    -0.070 Cl
ATOM     26 CL   UNL     1      -1.730   5.407  -3.318  0.00  0.00    -0.070 Cl
ENDBRANCH  21  23
ENDBRANCH  16  20
ENDBRANCH  15  16
ENDBRANCH   1  15
TORSDOF 7
ENDMDL
MODEL 9
REMARK VINA RESULT:      -8.2      2.253      8.262
REMARK  Name = 
REMARK  7 active torsions:
REMARK  status: ('A' for Active; 'I' for Inactive)
REMARK    1  A    between atoms: C_4  and  C_5
REMARK    2  A    between atoms: C_9  and  C_10
REMARK    3  A    between atoms: C_10  and  O_12
REMARK    4  A    between atoms: O_12  and  C_13
REMARK    5  A    between atoms: C_13  and  C_14
REMARK    6  A    between atoms: C_18  and  O_19
REMARK    7  A    between atoms: O_19  and  C_20
REMARK                            x       y       z     vdW  Elec       q    Type
REMARK                         _______ _______ _______ _____ _____    ______ ____
ROOT
ATOM      1  C   UNL     1      -0.538   5.085  -6.650  0.00  0.00    +0.235 C 
ENDROOT
BRANCH   1   2
ATOM      2  C   UNL     1      -1.060   5.814  -5.462  0.00  0.00    +0.024 A 
ATOM      3  C   UNL     1      -0.739   5.452  -4.167  0.00  0.00    +0.037 A 
ATOM      4  C   UNL     1      -1.714   5.644  -3.197  0.00  0.00    +0.145 A 
ATOM      5  C   UNL     1      -2.701   6.598  -3.383  0.00  0.00    +0.037 A 
ATOM      6  C   UNL     1      -2.619   7.407  -4.511  0.00  0.00    +0.003 A 
ATOM      7  C   UNL     1      -2.008   6.811  -5.587  0.00  0.00    -0.000 A 
BRANCH   4   8
ATOM      8  O   UNL     1      -1.557   5.140  -1.925  0.00  0.00    -0.454 OA
BRANCH   8   9
ATOM      9  C   UNL     1      -1.044   5.904  -0.883  0.00  0.00    +0.145 A 
ATOM     10  C   UNL     1      -1.933   6.649  -0.131  0.00  0.00    +0.037 A 
ATOM     11  C   UNL     1      -1.489   7.121   1.099  0.00  0.00    +0.003 A 
ATOM     12  C   UNL     1      -0.136   7.163   1.330  0.00  0.00    +0.000 A 
ATOM     13  C   UNL     1       0.730   6.973   0.275  0.00  0.00    +0.003 A 
ATOM     14  C   UNL     1       0.280   6.251  -0.822  0.00  0.00    +0.037 A 
ENDBRANCH   8   9
ENDBRANCH   4   8
ENDBRANCH   1   2
BRANCH   1  15
ATOM     15  O   UNL     1       0.888   5.050  -6.635  0.00  0.00    -0.443 OA
BRANCH  15  16
ATOM     16  C   UNL     1       1.579   5.783  -7.606  0.00  0.00    +0.317 C 
ATOM     17  O   UNL     1       0.937   6.261  -8.535  0.00  0.00    -0.250 OA
BRANCH  16  20
ATOM     18  C   UNL     1       3.643   6.686  -8.627  0.00  0.00    +0.001 C 
ATOM     19  C   UNL     1       3.945   6.138  -8.552  0.00  0.00    +0.015 C 
ATOM     20  C   UNL     1       2.875   4.852  -8.022  0.00  0.00    +0.103 C 
ATOM     21  C   UNL     1       4.084   5.516  -6.923  0.00  0.00    +0.035 C 
ATOM     22  C   UNL     1       5.070   5.369  -9.237  0.00  0.00    +0.001 C 
BRANCH  21  23
ATOM     23  C   UNL     1       3.191   6.720  -6.228  0.00  0.00    -0.003 C 
ATOM     24  C   UNL     1       3.579   6.912  -4.965  0.00  0.00    +0.111 C 
ATOM     25 CL   UNL     1       2.395   7.080  -3.661  0.00  0.00    -0.070 Cl
ATOM     26 CL   UNL     1       5.252   7.305  -4.684  0.00  0.00    -0.070 Cl
ENDBRANCH  21  23
ENDBRANCH  16  20
ENDBRANCH  15  16
ENDBRANCH   1  15
TORSDOF 7
ENDMDL
