MODEL 1
REMARK VINA RESULT:      -8.3      0.000      0.000
REMARK  Name = 
REMARK  8 active torsions:
REMARK  status: ('A' for Active; 'I' for Inactive)
REMARK    1  A    between atoms: C_2  and  C_3
REMARK    2  A    between atoms: C_3  and  C_23
REMARK    3  A    between atoms: C_4  and  C_5
REMARK    4  A    between atoms: C_4  and  C_11
REMARK    5  A    between atoms: C_14  and  O_15
REMARK    6  A    between atoms: O_15  and  C_16
REMARK    7  A    between atoms: C_16  and  C_17
REMARK    8  A    between atoms: C_17  and  N_18
REMARK                            x       y       z     vdW  Elec       q    Type
REMARK                         _______ _______ _______ _____ _____    ______ ____
ROOT
ATOM      1  C   UNL     1       0.975   5.921  -5.045  0.00  0.00    -0.022 C 
ATOM      2  C   UNL     1       2.067   5.996  -5.797  0.00  0.00    -0.004 C 
ENDROOT
BRANCH   2   3
ATOM      3  C   UNL     1       3.358   6.193  -5.125  0.00  0.00    -0.000 A 
ATOM      4  C   UNL     1       3.492   7.415  -4.476  0.00  0.00    -0.000 A 
ATOM      5  C   UNL     1       4.764   7.699  -3.992  0.00  0.00    -0.000 A 
ATOM      6  C   UNL     1       5.662   6.689  -3.712  0.00  0.00    -0.000 A 
ATOM      7  C   UNL     1       5.261   5.397  -4.015  0.00  0.00    -0.000 A 
ATOM      8  C   UNL     1       4.165   5.118  -4.803  0.00  0.00    -0.000 A 
ENDBRANCH   2   3
BRANCH   1   9
ATOM      9  C   UNL     1      -0.262   6.450  -5.604  0.00  0.00    -0.004 A 
ATOM     10  C   UNL     1      -1.201   5.653  -6.242  0.00  0.00    -0.000 A 
ATOM     11  C   UNL     1      -2.561   5.923  -6.164  0.00  0.00    -0.000 A 
ATOM     12  C   UNL     1      -2.994   6.993  -5.426  0.00  0.00    -0.000 A 
ATOM     13  C   UNL     1      -2.097   7.876  -4.890  0.00  0.00    -0.000 A 
ATOM     14  C   UNL     1      -0.748   7.655  -5.112  0.00  0.00    -0.000 A 
ENDBRANCH   1   9
BRANCH   2  15
ATOM     15  C   UNL     1       2.010   6.000  -7.266  0.00  0.00    -0.000 A 
ATOM     16  C   UNL     1       2.766   6.977  -7.895  0.00  0.00    +0.003 A 
ATOM     17  C   UNL     1       3.266   6.786  -9.169  0.00  0.00    +0.037 A 
ATOM     18  C   UNL     1       3.448   5.496  -9.639  0.00  0.00    +0.139 A 
ATOM     19  C   UNL     1       2.674   4.513  -9.070  0.00  0.00    +0.037 A 
ATOM     20  C   UNL     1       2.030   4.746  -7.863  0.00  0.00    +0.003 A 
BRANCH  18  21
ATOM     21  O   UNL     1       4.133   5.208 -10.813  0.00  0.00    -0.474 OA
BRANCH  21  22
ATOM     22  C   UNL     1       4.741   6.298 -11.501  0.00  0.00    +0.223 C 
BRANCH  22  23
ATOM     23  C   UNL     1       6.121   5.913 -12.021  0.00  0.00    +0.120 C 
BRANCH  23  24
ATOM     24  N   UNL     1       7.067   6.801 -11.395  0.00  0.00    -0.267 NA
ATOM     25  C   UNL     1       7.437   6.404 -10.060  0.00  0.00    +0.090 C 
ATOM     26  C   UNL     1       6.523   8.137 -11.414  0.00  0.00    +0.090 C 
ENDBRANCH  23  24
ENDBRANCH  22  23
ENDBRANCH  21  22
ENDBRANCH  18  21
ENDBRANCH   2  15
BRANCH   1  28
ATOM     27  C   UNL     1       0.620   5.870  -2.580  0.00  0.00    +0.005 C 
ATOM     28  C   UNL     1       1.058   5.126  -3.808  0.00  0.00    +0.026 C 
ENDBRANCH   1  28
TORSDOF 8
ENDMDL
MODEL 2
REMARK VINA RESULT:      -7.8      1.122      1.851
REMARK  Name = 
REMARK  8 active torsions:
REMARK  status: ('A' for Active; 'I' for Inactive)
REMARK    1  A    between atoms: C_2  and  C_3
REMARK    2  A    between atoms: C_3  and  C_23
REMARK    3  A    between atoms: C_4  and  C_5
REMARK    4  A    between atoms: C_4  and  C_11
REMARK    5  A    between atoms: C_14  and  O_15
REMARK    6  A    between atoms: O_15  and  C_16
REMARK    7  A    between atoms: C_16  and  C_17
REMARK    8  A    between atoms: C_17  and  N_18
REMARK                            x       y       z     vdW  Elec       q    Type
REMARK                         _______ _______ _______ _____ _____    ______ ____
ROOT
ATOM      1  C   UNL     1       0.536   5.807  -3.570  0.00  0.00    -0.022 C 
ATOM      2  C   UNL     1       1.446   5.997  -4.518  0.00  0.00    -0.004 C 
ENDROOT
BRANCH   2   3
ATOM      3  C   UNL     1       2.829   6.276  -4.106  0.00  0.00    -0.000 A 
ATOM      4  C   UNL     1       3.776   5.407  -4.633  0.00  0.00    -0.000 A 
ATOM      5  C   UNL     1       5.060   5.536  -4.117  0.00  0.00    -0.000 A 
ATOM      6  C   UNL     1       5.480   6.717  -3.540  0.00  0.00    -0.000 A 
ATOM      7  C   UNL     1       4.538   7.728  -3.432  0.00  0.00    -0.000 A 
ATOM      8  C   UNL     1       3.187   7.517  -3.614  0.00  0.00    -0.000 A 
ENDBRANCH   2   3
BRANCH   1   9
ATOM      9  C   UNL     1      -0.823   6.253  -3.846  0.00  0.00    -0.004 A 
ATOM     10  C   UNL     1      -1.177   7.594  -3.907  0.00  0.00    -0.000 A 
ATOM     11  C   UNL     1      -2.162   8.049  -4.772  0.00  0.00    -0.000 A 
ATOM     12  C   UNL     1      -2.794   7.160  -5.602  0.00  0.00    -0.000 A 
ATOM     13  C   UNL     1      -2.566   5.816  -5.483  0.00  0.00    -0.000 A 
ATOM     14  C   UNL     1      -1.683   5.386  -4.507  0.00  0.00    -0.000 A 
ENDBRANCH   1   9
BRANCH   2  15
ATOM     15  C   UNL     1       1.094   6.048  -5.945  0.00  0.00    -0.000 A 
ATOM     16  C   UNL     1       1.458   7.205  -6.615  0.00  0.00    +0.003 A 
ATOM     17  C   UNL     1       1.721   7.196  -7.971  0.00  0.00    +0.037 A 
ATOM     18  C   UNL     1       2.100   6.012  -8.579  0.00  0.00    +0.139 A 
ATOM     19  C   UNL     1       1.709   4.845  -7.966  0.00  0.00    +0.037 A 
ATOM     20  C   UNL     1       1.286   4.863  -6.644  0.00  0.00    +0.003 A 
BRANCH  18  21
ATOM     21  O   UNL     1       2.583   5.950  -9.880  0.00  0.00    -0.474 OA
BRANCH  21  22
ATOM     22  C   UNL     1       3.870   6.509 -10.130  0.00  0.00    +0.223 C 
BRANCH  22  23
ATOM     23  C   UNL     1       4.912   5.414 -10.320  0.00  0.00    +0.120 C 
BRANCH  23  24
ATOM     24  N   UNL     1       6.135   6.064 -10.717  0.00  0.00    -0.267 NA
ATOM     25  C   UNL     1       7.181   5.982  -9.728  0.00  0.00    +0.090 C 
ATOM     26  C   UNL     1       5.836   7.434 -11.054  0.00  0.00    +0.090 C 
ENDBRANCH  23  24
ENDBRANCH  22  23
ENDBRANCH  21  22
ENDBRANCH  18  21
ENDBRANCH   2  15
BRANCH   1  28
ATOM     27  C   UNL     1       0.576   5.590  -1.089  0.00  0.00    +0.005 C 
ATOM     28  C   UNL     1       0.924   4.980  -2.415  0.00  0.00    +0.026 C 
ENDBRANCH   1  28
TORSDOF 8
ENDMDL
MODEL 3
REMARK VINA RESULT:      -7.7      3.026      8.153
REMARK  Name = 
REMARK  8 active torsions:
REMARK  status: ('A' for Active; 'I' for Inactive)
REMARK    1  A    between atoms: C_2  and  C_3
REMARK    2  A    between atoms: C_3  and  C_23
REMARK    3  A    between atoms: C_4  and  C_5
REMARK    4  A    between atoms: C_4  and  C_11
REMARK    5  A    between atoms: C_14  and  O_15
REMARK    6  A    between atoms: O_15  and  C_16
REMARK    7  A    between atoms: C_16  and  C_17
REMARK    8  A    between atoms: C_17  and  N_18
REMARK                            x       y       z     vdW  Elec       q    Type
REMARK                         _______ _______ _______ _____ _____    ______ ____
ROOT
ATOM      1  C   UNL     1       4.028   5.731 -10.836  0.00  0.00    -0.022 C 
ATOM      2  C   UNL     1       2.965   5.634 -10.047  0.00  0.00    -0.004 C 
ENDROOT
BRANCH   2   3
ATOM      3  C   UNL     1       1.634   5.722 -10.664  0.00  0.00    -0.000 A 
ATOM      4  C   UNL     1       0.839   4.596 -10.490  0.00  0.00    -0.000 A 
ATOM      5  C   UNL     1      -0.347   4.583 -11.215  0.00  0.00    -0.000 A 
ATOM      6  C   UNL     1      -0.931   5.756 -11.647  0.00  0.00    -0.000 A 
ATOM      7  C   UNL     1      -0.236   6.928 -11.394  0.00  0.00    -0.000 A 
ATOM      8  C   UNL     1       1.083   6.947 -10.993  0.00  0.00    -0.000 A 
ENDBRANCH   2   3
BRANCH   1   9
ATOM      9  C   UNL     1       5.218   6.364 -10.283  0.00  0.00    -0.004 A 
ATOM     10  C   UNL     1       6.206   5.654  -9.615  0.00  0.00    -0.000 A 
ATOM     11  C   UNL     1       7.543   6.019  -9.690  0.00  0.00    -0.000 A 
ATOM     12  C   UNL     1       7.906   7.097 -10.455  0.00  0.00    -0.000 A 
ATOM     13  C   UNL     1       6.953   7.897 -11.023  0.00  0.00    -0.000 A 
ATOM     14  C   UNL     1       5.621   7.586 -10.805  0.00  0.00    -0.000 A 
ENDBRANCH   1   9
BRANCH   2  15
ATOM     15  C   UNL     1       3.077   5.554  -8.583  0.00  0.00    -0.000 A 
ATOM     16  C   UNL     1       2.432   6.556  -7.874  0.00  0.00    +0.003 A 
ATOM     17  C   UNL     1       1.967   6.339  -6.592  0.00  0.00    +0.037 A 
ATOM     18  C   UNL     1       1.693   5.046  -6.180  0.00  0.00    +0.139 A 
ATOM     19  C   UNL     1       2.357   4.033  -6.830  0.00  0.00    +0.037 A 
ATOM     20  C   UNL     1       2.972   4.277  -8.050  0.00  0.00    +0.003 A 
BRANCH  18  21
ATOM     21  O   UNL     1       1.030   4.754  -4.994  0.00  0.00    -0.474 OA
BRANCH  21  22
ATOM     22  C   UNL     1       0.405   5.837  -4.309  0.00  0.00    +0.223 C 
BRANCH  22  23
ATOM     23  C   UNL     1      -1.112   5.682  -4.315  0.00  0.00    +0.120 C 
BRANCH  23  24
ATOM     24  N   UNL     1      -1.610   6.487  -5.401  0.00  0.00    -0.267 NA
ATOM     25  C   UNL     1      -2.474   7.561  -4.976  0.00  0.00    +0.090 C 
ATOM     26  C   UNL     1      -2.273   5.622  -6.345  0.00  0.00    +0.090 C 
ENDBRANCH  23  24
ENDBRANCH  22  23
ENDBRANCH  21  22
ENDBRANCH  18  21
ENDBRANCH   2  15
BRANCH   1  28
ATOM     27  C   UNL     1       4.203   5.889 -13.316  0.00  0.00    +0.005 C 
ATOM     28  C   UNL     1       3.988   5.009 -12.120  0.00  0.00    +0.026 C 
ENDBRANCH   1  28
TORSDOF 8
ENDMDL
MODEL 4
REMARK VINA RESULT:      -7.7      3.756      7.208
REMARK  Name = 
REMARK  8 active torsions:
REMARK  status: ('A' for Active; 'I' for Inactive)
REMARK    1  A    between atoms: C_2  and  C_3
REMARK    2  A    between atoms: C_3  and  C_23
REMARK    3  A    between atoms: C_4  and  C_5
REMARK    4  A    between atoms: C_4  and  C_11
REMARK    5  A    between atoms: C_14  and  O_15
REMARK    6  A    between atoms: O_15  and  C_16
REMARK    7  A    between atoms: C_16  and  C_17
REMARK    8  A    between atoms: C_17  and  N_18
REMARK                            x       y       z     vdW  Elec       q    Type
REMARK                         _______ _______ _______ _____ _____    ______ ____
ROOT
ATOM      1  C   UNL     1       1.846   6.474  -8.300  0.00  0.00    -0.022 C 
ATOM      2  C   UNL     1       1.498   6.473  -7.019  0.00  0.00    -0.004 C 
ENDROOT
BRANCH   2   3
ATOM      3  C   UNL     1       2.527   6.151  -6.022  0.00  0.00    -0.000 A 
ATOM      4  C   UNL     1       2.780   4.793  -5.868  0.00  0.00    -0.000 A 
ATOM      5  C   UNL     1       3.612   4.456  -4.808  0.00  0.00    -0.000 A 
ATOM      6  C   UNL     1       4.508   5.368  -4.286  0.00  0.00    -0.000 A 
ATOM      7  C   UNL     1       4.473   6.648  -4.816  0.00  0.00    -0.000 A 
ATOM      8  C   UNL     1       3.442   7.103  -5.612  0.00  0.00    -0.000 A 
ENDBRANCH   2   3
BRANCH   1   9
ATOM      9  C   UNL     1       0.840   6.059  -9.269  0.00  0.00    -0.004 A 
ATOM     10  C   UNL     1       0.270   6.933 -10.184  0.00  0.00    -0.000 A 
ATOM     11  C   UNL     1      -0.105   6.517 -11.454  0.00  0.00    -0.000 A 
ATOM     12  C   UNL     1       0.104   5.215 -11.826  0.00  0.00    -0.000 A 
ATOM     13  C   UNL     1       0.543   4.294 -10.915  0.00  0.00    -0.000 A 
ATOM     14  C   UNL     1       0.769   4.715  -9.615  0.00  0.00    -0.000 A 
ENDBRANCH   1   9
BRANCH   2  15
ATOM     15  C   UNL     1       0.107   6.671  -6.583  0.00  0.00    -0.000 A 
ATOM     16  C   UNL     1      -0.733   5.579  -6.735  0.00  0.00    +0.003 A 
ATOM     17  C   UNL     1      -1.825   5.395  -5.909  0.00  0.00    +0.037 A 
ATOM     18  C   UNL     1      -1.833   5.984  -4.656  0.00  0.00    +0.139 A 
ATOM     19  C   UNL     1      -1.049   7.101  -4.489  0.00  0.00    +0.037 A 
ATOM     20  C   UNL     1      -0.047   7.389  -5.405  0.00  0.00    +0.003 A 
BRANCH  18  21
ATOM     21  O   UNL     1      -2.783   5.687  -3.687  0.00  0.00    -0.474 OA
BRANCH  21  22
ATOM     22  C   UNL     1      -2.707   6.400  -2.455  0.00  0.00    +0.223 C 
BRANCH  22  23
ATOM     23  C   UNL     1      -2.105   5.530  -1.357  0.00  0.00    +0.120 C 
BRANCH  23  24
ATOM     24  N   UNL     1      -1.308   6.395  -0.527  0.00  0.00    -0.267 NA
ATOM     25  C   UNL     1      -1.682   7.785  -0.613  0.00  0.00    +0.090 C 
ATOM     26  C   UNL     1       0.081   6.203  -0.867  0.00  0.00    +0.090 C 
ENDBRANCH  23  24
ENDBRANCH  22  23
ENDBRANCH  21  22
ENDBRANCH  18  21
ENDBRANCH   2  15
BRANCH   1  28
ATOM     27  C   UNL     1       4.090   6.152  -9.333  0.00  0.00    +0.005 C 
ATOM     28  C   UNL     1       3.137   7.090  -8.651  0.00  0.00    +0.026 C 
ENDBRANCH   1  28
TORSDOF 8
ENDMDL
MODEL 5
REMARK VINA RESULT:      -7.6      2.820      3.528
REMARK  Name = 
REMARK  8 active torsions:
REMARK  status: ('A' for Active; 'I' for Inactive)
REMARK    1  A    between atoms: C_2  and  C_3
REMARK    2  A    between atoms: C_3  and  C_23
REMARK    3  A    between atoms: C_4  and  C_5
REMARK    4  A    between atoms: C_4  and  C_11
REMARK    5  A    between atoms: C_14  and  O_15
REMARK    6  A    between atoms: O_15  and  C_16
REMARK    7  A    between atoms: C_16  and  C_17
REMARK    8  A    between atoms: C_17  and  N_18
REMARK                            x       y       z     vdW  Elec       q    Type
REMARK                         _______ _______ _______ _____ _____    ______ ____
ROOT
ATOM      1  C   UNL     1       0.610   5.781  -3.557  0.00  0.00    -0.022 C 
ATOM      2  C   UNL     1       1.920   5.852  -3.765  0.00  0.00    -0.004 C 
ENDROOT
BRANCH   2   3
ATOM      3  C   UNL     1       2.794   6.090  -2.608  0.00  0.00    -0.000 A 
ATOM      4  C   UNL     1       3.529   4.983  -2.201  0.00  0.00    -0.000 A 
ATOM      5  C   UNL     1       4.220   5.132  -1.004  0.00  0.00    -0.000 A 
ATOM      6  C   UNL     1       4.572   6.381  -0.535  0.00  0.00    -0.000 A 
ATOM      7  C   UNL     1       4.132   7.470  -1.271  0.00  0.00    -0.000 A 
ATOM      8  C   UNL     1       3.168   7.372  -2.253  0.00  0.00    -0.000 A 
ENDBRANCH   2   3
BRANCH   1   9
ATOM      9  C   UNL     1      -0.264   6.273  -4.613  0.00  0.00    -0.004 A 
ATOM     10  C   UNL     1      -1.015   5.432  -5.421  0.00  0.00    -0.000 A 
ATOM     11  C   UNL     1      -2.264   5.803  -5.899  0.00  0.00    -0.000 A 
ATOM     12  C   UNL     1      -2.783   7.024  -5.554  0.00  0.00    -0.000 A 
ATOM     13  C   UNL     1      -2.024   7.932  -4.868  0.00  0.00    -0.000 A 
ATOM     14  C   UNL     1      -0.726   7.581  -4.533  0.00  0.00    -0.000 A 
ENDBRANCH   1   9
BRANCH   2  15
ATOM     15  C   UNL     1       2.503   5.811  -5.115  0.00  0.00    -0.000 A 
ATOM     16  C   UNL     1       2.227   4.674  -5.857  0.00  0.00    +0.003 A 
ATOM     17  C   UNL     1       2.195   4.711  -7.238  0.00  0.00    +0.037 A 
ATOM     18  C   UNL     1       1.953   5.914  -7.878  0.00  0.00    +0.139 A 
ATOM     19  C   UNL     1       2.267   7.060  -7.186  0.00  0.00    +0.037 A 
ATOM     20  C   UNL     1       2.463   7.011  -5.813  0.00  0.00    +0.003 A 
BRANCH  18  21
ATOM     21  O   UNL     1       1.698   6.008  -9.240  0.00  0.00    -0.474 OA
BRANCH  21  22
ATOM     22  C   UNL     1       0.404   5.614  -9.693  0.00  0.00    +0.223 C 
BRANCH  22  23
ATOM     23  C   UNL     1      -0.079   6.522 -10.819  0.00  0.00    +0.120 C 
BRANCH  23  24
ATOM     24  N   UNL     1       0.790   6.292 -11.944  0.00  0.00    -0.267 NA
ATOM     25  C   UNL     1       0.629   7.254 -13.005  0.00  0.00    +0.090 C 
ATOM     26  C   UNL     1       0.578   4.946 -12.418  0.00  0.00    +0.090 C 
ENDBRANCH  23  24
ENDBRANCH  22  23
ENDBRANCH  21  22
ENDBRANCH  18  21
ENDBRANCH   2  15
BRANCH   1  28
ATOM     27  C   UNL     1      -0.687   5.830  -1.431  0.00  0.00    +0.005 C 
ATOM     28  C   UNL     1       0.152   5.024  -2.379  0.00  0.00    +0.026 C 
ENDBRANCH   1  28
TORSDOF 8
ENDMDL
MODEL 6
REMARK VINA RESULT:      -7.4      2.081      5.254
REMARK  Name = 
REMARK  8 active torsions:
REMARK  status: ('A' for Active; 'I' for Inactive)
REMARK    1  A    between atoms: C_2  and  C_3
REMARK    2  A    between atoms: C_3  and  C_23
REMARK    3  A    between atoms: C_4  and  C_5
REMARK    4  A    between atoms: C_4  and  C_11
REMARK    5  A    between atoms: C_14  and  O_15
REMARK    6  A    between atoms: O_15  and  C_16
REMARK    7  A    between atoms: C_16  and  C_17
REMARK    8  A    between atoms: C_17  and  N_18
REMARK                            x       y       z     vdW  Elec       q    Type
REMARK                         _______ _______ _______ _____ _____    ______ ____
ROOT
ATOM      1  C   UNL     1       2.643   6.543  -7.200  0.00  0.00    -0.022 C 
ATOM      2  C   UNL     1       2.960   6.405  -8.482  0.00  0.00    -0.004 C 
ENDROOT
BRANCH   2   3
ATOM      3  C   UNL     1       1.910   5.972  -9.413  0.00  0.00    -0.000 A 
ATOM      4  C   UNL     1       1.626   4.612  -9.374  0.00  0.00    -0.000 A 
ATOM      5  C   UNL     1       0.771   4.150 -10.368  0.00  0.00    -0.000 A 
ATOM      6  C   UNL     1      -0.111   5.001 -11.001  0.00  0.00    -0.000 A 
ATOM      7  C   UNL     1      -0.041   6.341 -10.655  0.00  0.00    -0.000 A 
ATOM      8  C   UNL     1       1.010   6.878  -9.942  0.00  0.00    -0.000 A 
ENDBRANCH   2   3
BRANCH   1   9
ATOM      9  C   UNL     1       3.674   6.240  -6.217  0.00  0.00    -0.004 A 
ATOM     10  C   UNL     1       4.275   7.215  -5.434  0.00  0.00    -0.000 A 
ATOM     11  C   UNL     1       4.686   6.955  -4.133  0.00  0.00    -0.000 A 
ATOM     12  C   UNL     1       4.479   5.710  -3.597  0.00  0.00    -0.000 A 
ATOM     13  C   UNL     1       4.008   4.688  -4.376  0.00  0.00    -0.000 A 
ATOM     14  C   UNL     1       3.747   4.949  -5.711  0.00  0.00    -0.000 A 
ENDBRANCH   1   9
BRANCH   2  15
ATOM     15  C   UNL     1       4.338   6.561  -8.970  0.00  0.00    -0.000 A 
ATOM     16  C   UNL     1       5.184   5.487  -8.742  0.00  0.00    +0.003 A 
ATOM     17  C   UNL     1       6.255   5.228  -9.575  0.00  0.00    +0.037 A 
ATOM     18  C   UNL     1       6.230   5.700 -10.877  0.00  0.00    +0.139 A 
ATOM     19  C   UNL     1       5.439   6.798 -11.124  0.00  0.00    +0.037 A 
ATOM     20  C   UNL     1       4.461   7.169 -10.213  0.00  0.00    +0.003 A 
BRANCH  18  21
ATOM     21  O   UNL     1       7.154   5.315 -11.839  0.00  0.00    -0.474 OA
BRANCH  21  22
ATOM     22  C   UNL     1       7.571   6.302 -12.780  0.00  0.00    +0.223 C 
BRANCH  22  23
ATOM     23  C   UNL     1       7.200   5.893 -14.200  0.00  0.00    +0.120 C 
BRANCH  23  24
ATOM     24  N   UNL     1       6.339   6.923 -14.721  0.00  0.00    -0.267 NA
ATOM     25  C   UNL     1       4.968   6.504 -14.883  0.00  0.00    +0.090 C 
ATOM     26  C   UNL     1       6.893   7.397 -15.965  0.00  0.00    +0.090 C 
ENDBRANCH  23  24
ENDBRANCH  22  23
ENDBRANCH  21  22
ENDBRANCH  18  21
ENDBRANCH   2  15
BRANCH   1  28
ATOM     27  C   UNL     1       0.444   6.341  -6.046  0.00  0.00    +0.005 C 
ATOM     28  C   UNL     1       1.355   7.187  -6.887  0.00  0.00    +0.026 C 
ENDBRANCH   1  28
TORSDOF 8
ENDMDL
MODEL 7
REMARK VINA RESULT:      -7.3      3.192      8.020
REMARK  Name = 
REMARK  8 active torsions:
REMARK  status: ('A' for Active; 'I' for Inactive)
REMARK    1  A    between atoms: C_2  and  C_3
REMARK    2  A    between atoms: C_3  and  C_23
REMARK    3  A    between atoms: C_4  and  C_5
REMARK    4  A    between atoms: C_4  and  C_11
REMARK    5  A    between atoms: C_14  and  O_15
REMARK    6  A    between atoms: O_15  and  C_16
REMARK    7  A    between atoms: C_16  and  C_17
REMARK    8  A    between atoms: C_17  and  N_18
REMARK                            x       y       z     vdW  Elec       q    Type
REMARK                         _______ _______ _______ _____ _____    ______ ____
ROOT
ATOM      1  C   UNL     1       4.296   5.747 -12.192  0.00  0.00    -0.022 C 
ATOM      2  C   UNL     1       3.459   5.759 -11.161  0.00  0.00    -0.004 C 
ENDROOT
BRANCH   2   3
ATOM      3  C   UNL     1       2.028   5.949 -11.433  0.00  0.00    -0.000 A 
ATOM      4  C   UNL     1       1.193   5.030 -10.807  0.00  0.00    -0.000 A 
ATOM      5  C   UNL     1      -0.141   5.075 -11.192  0.00  0.00    -0.000 A 
ATOM      6  C   UNL     1      -0.690   6.222 -11.730  0.00  0.00    -0.000 A 
ATOM      7  C   UNL     1       0.173   7.287 -11.939  0.00  0.00    -0.000 A 
ATOM      8  C   UNL     1       1.546   7.160 -11.893  0.00  0.00    -0.000 A 
ENDBRANCH   2   3
BRANCH   1   9
ATOM      9  C   UNL     1       5.632   6.287 -11.978  0.00  0.00    -0.004 A 
ATOM     10  C   UNL     1       5.861   7.606 -11.614  0.00  0.00    -0.000 A 
ATOM     11  C   UNL     1       6.917   7.961 -10.787  0.00  0.00    -0.000 A 
ATOM     12  C   UNL     1       7.750   6.987 -10.301  0.00  0.00    -0.000 A 
ATOM     13  C   UNL     1       7.637   5.696 -10.737  0.00  0.00    -0.000 A 
ATOM     14  C   UNL     1       6.662   5.404 -11.676  0.00  0.00    -0.000 A 
ENDBRANCH   1   9
BRANCH   2  15
ATOM     15  C   UNL     1       3.928   5.702  -9.769  0.00  0.00    -0.000 A 
ATOM     16  C   UNL     1       3.521   6.747  -8.953  0.00  0.00    +0.003 A 
ATOM     17  C   UNL     1       3.380   6.577  -7.589  0.00  0.00    +0.037 A 
ATOM     18  C   UNL     1       3.163   5.307  -7.084  0.00  0.00    +0.139 A 
ATOM     19  C   UNL     1       3.604   4.251  -7.847  0.00  0.00    +0.037 A 
ATOM     20  C   UNL     1       3.906   4.442  -9.187  0.00  0.00    +0.003 A 
BRANCH  18  21
ATOM     21  O   UNL     1       2.804   5.069  -5.763  0.00  0.00    -0.474 OA
BRANCH  21  22
ATOM     22  C   UNL     1       3.035   6.115  -4.822  0.00  0.00    +0.223 C 
BRANCH  22  23
ATOM     23  C   UNL     1       4.133   5.731  -3.838  0.00  0.00    +0.120 C 
BRANCH  23  24
ATOM     24  N   UNL     1       4.631   6.956  -3.267  0.00  0.00    -0.267 NA
ATOM     25  C   UNL     1       3.615   7.748  -2.619  0.00  0.00    +0.090 C 
ATOM     26  C   UNL     1       5.299   7.704  -4.303  0.00  0.00    +0.090 C 
ENDBRANCH  23  24
ENDBRANCH  22  23
ENDBRANCH  21  22
ENDBRANCH  18  21
ENDBRANCH   2  15
BRANCH   1  28
ATOM     27  C   UNL     1       3.735   5.861 -14.617  0.00  0.00    +0.005 C 
ATOM     28  C   UNL     1       3.879   5.004 -13.394  0.00  0.00    +0.026 C 
ENDBRANCH   1  28
TORSDOF 8
ENDMDL
MODEL 8
REMARK VINA RESULT:      -7.1      3.285      7.983
REMARK  Name = 
REMARK  8 active torsions:
REMARK  status: ('A' for Active; 'I' for Inactive)
REMARK    1  A    between atoms: C_2  and  C_3
REMARK    2  A    between atoms: C_3  and  C_23
REMARK    3  A    between atoms: C_4  and  C_5
REMARK    4  A    between atoms: C_4  and  C_11
REMARK    5  A    between atoms: C_14  and  O_15
REMARK    6  A    between atoms: O_15  and  C_16
REMARK    7  A    between atoms: C_16  and  C_17
REMARK    8  A    between atoms: C_17  and  N_18
REMARK                            x       y       z     vdW  Elec       q    Type
REMARK                         _______ _______ _______ _____ _____    ______ ____
ROOT
ATOM      1  C   UNL     1       4.043   5.786 -10.584  0.00  0.00    -0.022 C 
ATOM      2  C   UNL     1       3.059   5.856  -9.695  0.00  0.00    -0.004 C 
ENDROOT
BRANCH   2   3
ATOM      3  C   UNL     1       1.676   5.873 -10.191  0.00  0.00    -0.000 A 
ATOM      4  C   UNL     1       1.365   6.961 -10.999  0.00  0.00    -0.000 A 
ATOM      5  C   UNL     1       0.022   7.096 -11.328  0.00  0.00    -0.000 A 
ATOM      6  C   UNL     1      -0.830   6.010 -11.307  0.00  0.00    -0.000 A 
ATOM      7  C   UNL     1      -0.298   4.809 -10.865  0.00  0.00    -0.000 A 
ATOM      8  C   UNL     1       0.914   4.720 -10.213  0.00  0.00    -0.000 A 
ENDBRANCH   2   3
BRANCH   1   9
ATOM      9  C   UNL     1       5.287   6.472 -10.262  0.00  0.00    -0.004 A 
ATOM     10  C   UNL     1       6.399   5.815  -9.757  0.00  0.00    -0.000 A 
ATOM     11  C   UNL     1       7.690   6.217 -10.072  0.00  0.00    -0.000 A 
ATOM     12  C   UNL     1       7.878   7.280 -10.917  0.00  0.00    -0.000 A 
ATOM     13  C   UNL     1       6.814   8.032 -11.333  0.00  0.00    -0.000 A 
ATOM     14  C   UNL     1       5.551   7.688 -10.880  0.00  0.00    -0.000 A 
ENDBRANCH   1   9
BRANCH   2  15
ATOM     15  C   UNL     1       3.312   6.026  -8.256  0.00  0.00    -0.000 A 
ATOM     16  C   UNL     1       2.743   7.148  -7.673  0.00  0.00    +0.003 A 
ATOM     17  C   UNL     1       2.402   7.164  -6.334  0.00  0.00    +0.037 A 
ATOM     18  C   UNL     1       2.163   5.967  -5.682  0.00  0.00    +0.139 A 
ATOM     19  C   UNL     1       2.757   4.844  -6.206  0.00  0.00    +0.037 A 
ATOM     20  C   UNL     1       3.253   4.861  -7.502  0.00  0.00    +0.003 A 
BRANCH  18  21
ATOM     21  O   UNL     1       1.616   5.897  -4.406  0.00  0.00    -0.474 OA
BRANCH  21  22
ATOM     22  C   UNL     1       2.437   5.364  -3.370  0.00  0.00    +0.223 C 
BRANCH  22  23
ATOM     23  C   UNL     1       3.501   6.371  -2.946  0.00  0.00    +0.120 C 
BRANCH  23  24
ATOM     24  N   UNL     1       2.897   7.227  -1.958  0.00  0.00    -0.267 NA
ATOM     25  C   UNL     1       3.794   8.225  -1.431  0.00  0.00    +0.090 C 
ATOM     26  C   UNL     1       2.354   6.402  -0.907  0.00  0.00    +0.090 C 
ENDBRANCH  23  24
ENDBRANCH  22  23
ENDBRANCH  21  22
ENDBRANCH  18  21
ENDBRANCH   2  15
BRANCH   1  28
ATOM     27  C   UNL     1       4.544   5.307 -12.976  0.00  0.00    +0.005 C 
ATOM     28  C   UNL     1       3.870   4.856 -11.713  0.00  0.00    +0.026 C 
ENDBRANCH   1  28
TORSDOF 8
ENDMDL
MODEL 9
REMARK VINA RESULT:      -7.1      3.068      8.531
REMARK  Name = 
REMARK  8 active torsions:
REMARK  status: ('A' for Active; 'I' for Inactive)
REMARK    1  A    between atoms: C_2  and  C_3
REMARK    2  A    between atoms: C_3  and  C_23
REMARK    3  A    between atoms: C_4  and  C_5
REMARK    4  A    between atoms: C_4  and  C_11
REMARK    5  A    between atoms: C_14  and  O_15
REMARK    6  A    between atoms: O_15  and  C_16
REMARK    7  A    between atoms: C_16  and  C_17
REMARK    8  A    between atoms: C_17  and  N_18
REMARK                            x       y       z     vdW  Elec       q    Type
REMARK                         _______ _______ _______ _____ _____    ______ ____
ROOT
ATOM      1  C   UNL     1       4.329   5.760 -12.046  0.00  0.00    -0.022 C 
ATOM      2  C   UNL     1       3.028   5.760 -11.782  0.00  0.00    -0.004 C 
ENDROOT
BRANCH   2   3
ATOM      3  C   UNL     1       2.093   5.899 -12.907  0.00  0.00    -0.000 A 
ATOM      4  C   UNL     1       1.356   4.756 -13.192  0.00  0.00    -0.000 A 
ATOM      5  C   UNL     1       0.603   4.804 -14.359  0.00  0.00    -0.000 A 
ATOM      6  C   UNL     1       0.207   6.010 -14.902  0.00  0.00    -0.000 A 
ATOM      7  C   UNL     1       0.666   7.157 -14.274  0.00  0.00    -0.000 A 
ATOM      8  C   UNL     1       1.680   7.145 -13.339  0.00  0.00    -0.000 A 
ENDBRANCH   2   3
BRANCH   1   9
ATOM      9  C   UNL     1       5.215   6.347 -11.050  0.00  0.00    -0.004 A 
ATOM     10  C   UNL     1       6.001   5.582 -10.200  0.00  0.00    -0.000 A 
ATOM     11  C   UNL     1       7.252   6.013  -9.778  0.00  0.00    -0.000 A 
ATOM     12  C   UNL     1       7.736   7.215 -10.223  0.00  0.00    -0.000 A 
ATOM     13  C   UNL     1       6.943   8.055 -10.956  0.00  0.00    -0.000 A 
ATOM     14  C   UNL     1       5.647   7.654 -11.235  0.00  0.00    -0.000 A 
ENDBRANCH   1   9
BRANCH   2  15
ATOM     15  C   UNL     1       2.505   5.738 -10.408  0.00  0.00    -0.000 A 
ATOM     16  C   UNL     1       2.888   4.653  -9.635  0.00  0.00    +0.003 A 
ATOM     17  C   UNL     1       2.975   4.749  -8.260  0.00  0.00    +0.037 A 
ATOM     18  C   UNL     1       3.163   5.991  -7.678  0.00  0.00    +0.139 A 
ATOM     19  C   UNL     1       2.745   7.085  -8.399  0.00  0.00    +0.037 A 
ATOM     20  C   UNL     1       2.496   6.966  -9.759  0.00  0.00    +0.003 A 
BRANCH  18  21
ATOM     21  O   UNL     1       3.469   6.158  -6.333  0.00  0.00    -0.474 OA
BRANCH  21  22
ATOM     22  C   UNL     1       2.431   6.632  -5.479  0.00  0.00    +0.223 C 
BRANCH  22  23
ATOM     23  C   UNL     1       2.427   5.877  -4.155  0.00  0.00    +0.120 C 
BRANCH  23  24
ATOM     24  N   UNL     1       1.134   5.254  -4.033  0.00  0.00    -0.267 NA
ATOM     25  C   UNL     1       0.444   5.101  -5.289  0.00  0.00    +0.090 C 
ATOM     26  C   UNL     1       0.348   6.011  -3.090  0.00  0.00    +0.090 C 
ENDBRANCH  23  24
ENDBRANCH  22  23
ENDBRANCH  21  22
ENDBRANCH  18  21
ENDBRANCH   2  15
BRANCH   1  28
ATOM     27  C   UNL     1       6.054   5.502 -13.825  0.00  0.00    +0.005 C 
ATOM     28  C   UNL     1       4.783   4.987 -13.215  0.00  0.00    +0.026 C 
ENDBRANCH   1  28
TORSDOF 8
ENDMDL
