MODEL 1
REMARK VINA RESULT:      -8.0      0.000      0.000
REMARK  Name = 
REMARK  5 active torsions:
REMARK  status: ('A' for Active; 'I' for Inactive)
REMARK    1  A    between atoms: N_2  and  C_3
REMARK    2  A    between atoms: N_2  and  C_12
REMARK    3  A    between atoms: C_3  and  C_4
REMARK    4  A    between atoms: C_5  and  C_6
REMARK    5  A    between atoms: C_12  and  C_13
REMARK                            x       y       z     vdW  Elec       q    Type
REMARK                         _______ _______ _______ _____ _____    ______ ____
ROOT
ATOM      1  C   UNL     1       1.556   4.681  -8.718  0.00  0.00    +0.090 C 
ATOM      2  N   UNL     1       2.014   4.770  -7.356  0.00  0.00    -0.264 NA
ENDROOT
BRANCH   2   3
ATOM      3  C   UNL     1       1.071   4.280  -6.390  0.00  0.00    +0.099 C 
BRANCH   3   4
ATOM      4  C   UNL     1       0.004   5.256  -6.054  0.00  0.00    -0.006 A 
ATOM      5  C   UNL     1      -0.231   5.542  -4.715  0.00  0.00    -0.003 A 
ATOM      6  C   UNL     1      -1.511   5.697  -4.205  0.00  0.00    -0.000 A 
ATOM      7  C   UNL     1      -1.694   5.819  -2.832  0.00  0.00    -0.000 A 
ATOM      8  C   UNL     1      -0.628   5.390  -2.051  0.00  0.00    -0.000 A 
ATOM      9  C   UNL     1       0.679   5.544  -2.488  0.00  0.00    -0.000 A 
ATOM     10  C   UNL     1      -2.487   6.132  -5.093  0.00  0.00    -0.000 A 
ATOM     11  C   UNL     1      -2.347   5.751  -6.410  0.00  0.00    -0.000 A 
ATOM     12  C   UNL     1       0.850   5.634  -3.865  0.00  0.00    -0.000 A 
ATOM     13  C   UNL     1      -1.114   5.320  -6.878  0.00  0.00    -0.003 A 
ENDBRANCH   3   4
ENDBRANCH   2   3
BRANCH   2  14
ATOM     14  C   UNL     1       2.252   6.176  -7.029  0.00  0.00    +0.099 C 
BRANCH  14  15
ATOM     15  C   UNL     1       3.701   6.417  -7.323  0.00  0.00    -0.009 C 
ATOM     16  C   UNL     1       4.538   5.702  -6.569  0.00  0.00    -0.003 C 
BRANCH  16  17
ATOM     17  C   UNL     1       4.368   5.914  -5.125  0.00  0.00    -0.000 A 
ATOM     18  C   UNL     1       4.335   4.894  -4.214  0.00  0.00    -0.000 A 
ATOM     19  C   UNL     1       4.432   5.200  -2.864  0.00  0.00    -0.000 A 
ATOM     20  C   UNL     1       4.329   6.524  -2.462  0.00  0.00    -0.000 A 
ATOM     21  C   UNL     1       4.428   7.553  -3.375  0.00  0.00    -0.000 A 
ATOM     22  C   UNL     1       4.682   7.193  -4.682  0.00  0.00    -0.000 A 
ENDBRANCH  16  17
ENDBRANCH  14  15
ENDBRANCH   2  14
TORSDOF 5
ENDMDL
MODEL 2
REMARK VINA RESULT:      -8.0      2.634      4.735
REMARK  Name = 
REMARK  5 active torsions:
REMARK  status: ('A' for Active; 'I' for Inactive)
REMARK    1  A    between atoms: N_2  and  C_3
REMARK    2  A    between atoms: N_2  and  C_12
REMARK    3  A    between atoms: C_3  and  C_4
REMARK    4  A    between atoms: C_5  and  C_6
REMARK    5  A    between atoms: C_12  and  C_13
REMARK                            x       y       z     vdW  Elec       q    Type
REMARK                         _______ _______ _______ _____ _____    ______ ____
ROOT
ATOM      1  C   UNL     1       0.653   4.487 -10.323  0.00  0.00    +0.090 C 
ATOM      2  N   UNL     1       1.594   4.883  -9.308  0.00  0.00    -0.264 NA
ENDROOT
BRANCH   2   3
ATOM      3  C   UNL     1       1.219   6.073  -8.597  0.00  0.00    +0.099 C 
BRANCH   3   4
ATOM      4  C   UNL     1       1.255   5.918  -7.121  0.00  0.00    -0.006 A 
ATOM      5  C   UNL     1       0.054   5.962  -6.423  0.00  0.00    -0.003 A 
ATOM      6  C   UNL     1      -0.073   6.616  -5.207  0.00  0.00    -0.000 A 
ATOM      7  C   UNL     1      -1.331   6.768  -4.635  0.00  0.00    -0.000 A 
ATOM      8  C   UNL     1      -2.402   6.596  -5.504  0.00  0.00    -0.000 A 
ATOM      9  C   UNL     1      -2.332   5.681  -6.544  0.00  0.00    -0.000 A 
ATOM     10  C   UNL     1       1.076   6.721  -4.433  0.00  0.00    -0.000 A 
ATOM     11  C   UNL     1       2.276   6.811  -5.106  0.00  0.00    -0.000 A 
ATOM     12  C   UNL     1      -1.053   5.364  -6.986  0.00  0.00    -0.000 A 
ATOM     13  C   UNL     1       2.357   6.413  -6.433  0.00  0.00    -0.003 A 
ENDBRANCH   3   4
ENDBRANCH   2   3
BRANCH   2  14
ATOM     14  C   UNL     1       2.882   5.163  -9.940  0.00  0.00    +0.099 C 
BRANCH  14  15
ATOM     15  C   UNL     1       3.902   4.448  -9.109  0.00  0.00    -0.009 C 
ATOM     16  C   UNL     1       4.887   5.230  -8.659  0.00  0.00    -0.003 C 
BRANCH  16  17
ATOM     17  C   UNL     1       5.629   5.922  -9.722  0.00  0.00    -0.000 A 
ATOM     18  C   UNL     1       5.150   7.021 -10.381  0.00  0.00    -0.000 A 
ATOM     19  C   UNL     1       6.018   7.755 -11.176  0.00  0.00    -0.000 A 
ATOM     20  C   UNL     1       7.273   7.238 -11.463  0.00  0.00    -0.000 A 
ATOM     21  C   UNL     1       7.781   6.171 -10.752  0.00  0.00    -0.000 A 
ATOM     22  C   UNL     1       7.000   5.690  -9.723  0.00  0.00    -0.000 A 
ENDBRANCH  16  17
ENDBRANCH  14  15
ENDBRANCH   2  14
TORSDOF 5
ENDMDL
MODEL 3
REMARK VINA RESULT:      -7.9      3.855      8.579
REMARK  Name = 
REMARK  5 active torsions:
REMARK  status: ('A' for Active; 'I' for Inactive)
REMARK    1  A    between atoms: N_2  and  C_3
REMARK    2  A    between atoms: N_2  and  C_12
REMARK    3  A    between atoms: C_3  and  C_4
REMARK    4  A    between atoms: C_5  and  C_6
REMARK    5  A    between atoms: C_12  and  C_13
REMARK                            x       y       z     vdW  Elec       q    Type
REMARK                         _______ _______ _______ _____ _____    ______ ____
ROOT
ATOM      1  C   UNL     1       3.094   6.641  -8.057  0.00  0.00    +0.090 C 
ATOM      2  N   UNL     1       3.299   5.216  -8.080  0.00  0.00    -0.264 NA
ENDROOT
BRANCH   2   3
ATOM      3  C   UNL     1       3.926   4.736  -9.280  0.00  0.00    +0.099 C 
BRANCH   3   4
ATOM      4  C   UNL     1       5.108   5.535  -9.692  0.00  0.00    -0.006 A 
ATOM      5  C   UNL     1       5.338   5.720 -11.049  0.00  0.00    -0.003 A 
ATOM      6  C   UNL     1       6.610   5.669 -11.599  0.00  0.00    -0.000 A 
ATOM      7  C   UNL     1       6.765   5.699 -12.980  0.00  0.00    -0.000 A 
ATOM      8  C   UNL     1       5.624   5.388 -13.711  0.00  0.00    -0.000 A 
ATOM      9  C   UNL     1       4.367   5.745 -13.250  0.00  0.00    -0.000 A 
ATOM     10  C   UNL     1       7.665   6.004 -10.759  0.00  0.00    -0.000 A 
ATOM     11  C   UNL     1       7.515   5.710  -9.421  0.00  0.00    -0.000 A 
ATOM     12  C   UNL     1       4.254   5.924 -11.876  0.00  0.00    -0.000 A 
ATOM     13  C   UNL     1       6.249   5.480  -8.900  0.00  0.00    -0.003 A 
ENDBRANCH   3   4
ENDBRANCH   2   3
BRANCH   2  14
ATOM     14  C   UNL     1       2.000   4.551  -7.993  0.00  0.00    +0.099 C 
BRANCH  14  15
ATOM     15  C   UNL     1       0.998   5.648  -7.812  0.00  0.00    -0.009 C 
ATOM     16  C   UNL     1      -0.062   5.559  -8.618  0.00  0.00    -0.003 C 
BRANCH  16  17
ATOM     17  C   UNL     1       0.277   5.539 -10.048  0.00  0.00    -0.000 A 
ATOM     18  C   UNL     1       0.188   4.418 -10.826  0.00  0.00    -0.000 A 
ATOM     19  C   UNL     1       0.277   4.552 -12.204  0.00  0.00    -0.000 A 
ATOM     20  C   UNL     1       0.677   5.767 -12.741  0.00  0.00    -0.000 A 
ATOM     21  C   UNL     1       0.703   6.910 -11.970  0.00  0.00    -0.000 A 
ATOM     22  C   UNL     1       0.266   6.783 -10.668  0.00  0.00    -0.000 A 
ENDBRANCH  16  17
ENDBRANCH  14  15
ENDBRANCH   2  14
TORSDOF 5
ENDMDL
MODEL 4
REMARK VINA RESULT:      -7.9      2.349      3.951
REMARK  Name = 
REMARK  5 active torsions:
REMARK  status: ('A' for Active; 'I' for Inactive)
REMARK    1  A    between atoms: N_2  and  C_3
REMARK    2  A    between atoms: N_2  and  C_12
REMARK    3  A    between atoms: C_3  and  C_4
REMARK    4  A    between atoms: C_5  and  C_6
REMARK    5  A    between atoms: C_12  and  C_13
REMARK                            x       y       z     vdW  Elec       q    Type
REMARK                         _______ _______ _______ _____ _____    ______ ____
ROOT
ATOM      1  C   UNL     1       3.650   7.204  -5.223  0.00  0.00    +0.090 C 
ATOM      2  N   UNL     1       3.105   6.425  -6.305  0.00  0.00    -0.264 NA
ENDROOT
BRANCH   2   3
ATOM      3  C   UNL     1       2.142   5.443  -5.891  0.00  0.00    +0.099 C 
BRANCH   3   4
ATOM      4  C   UNL     1       0.734   5.883  -6.066  0.00  0.00    -0.006 A 
ATOM      5  C   UNL     1      -0.080   5.951  -4.942  0.00  0.00    -0.003 A 
ATOM      6  C   UNL     1      -1.405   5.543  -4.962  0.00  0.00    -0.000 A 
ATOM      7  C   UNL     1      -2.124   5.481  -3.774  0.00  0.00    -0.000 A 
ATOM      8  C   UNL     1      -1.355   5.459  -2.616  0.00  0.00    -0.000 A 
ATOM      9  C   UNL     1      -0.158   6.156  -2.547  0.00  0.00    -0.000 A 
ATOM     10  C   UNL     1      -2.060   5.614  -6.185  0.00  0.00    -0.000 A 
ATOM     11  C   UNL     1      -1.296   5.419  -7.315  0.00  0.00    -0.000 A 
ATOM     12  C   UNL     1       0.468   6.407  -3.762  0.00  0.00    -0.000 A 
ATOM     13  C   UNL     1       0.084   5.554  -7.249  0.00  0.00    -0.003 A 
ENDBRANCH   3   4
ENDBRANCH   2   3
BRANCH   2  14
ATOM     14  C   UNL     1       4.192   5.694  -6.955  0.00  0.00    +0.099 C 
BRANCH  14  15
ATOM     15  C   UNL     1       3.586   5.074  -8.176  0.00  0.00    -0.009 C 
ATOM     16  C   UNL     1       4.477   4.636  -9.067  0.00  0.00    -0.003 C 
BRANCH  16  17
ATOM     17  C   UNL     1       5.401   5.674  -9.545  0.00  0.00    -0.000 A 
ATOM     18  C   UNL     1       6.760   5.592  -9.410  0.00  0.00    -0.000 A 
ATOM     19  C   UNL     1       7.557   6.482 -10.114  0.00  0.00    -0.000 A 
ATOM     20  C   UNL     1       6.964   7.564 -10.749  0.00  0.00    -0.000 A 
ATOM     21  C   UNL     1       5.600   7.614 -10.943  0.00  0.00    -0.000 A 
ATOM     22  C   UNL     1       4.879   6.517 -10.519  0.00  0.00    -0.000 A 
ENDBRANCH  16  17
ENDBRANCH  14  15
ENDBRANCH   2  14
TORSDOF 5
ENDMDL
MODEL 5
REMARK VINA RESULT:      -7.8      2.204      4.425
REMARK  Name = 
REMARK  5 active torsions:
REMARK  status: ('A' for Active; 'I' for Inactive)
REMARK    1  A    between atoms: N_2  and  C_3
REMARK    2  A    between atoms: N_2  and  C_12
REMARK    3  A    between atoms: C_3  and  C_4
REMARK    4  A    between atoms: C_5  and  C_6
REMARK    5  A    between atoms: C_12  and  C_13
REMARK                            x       y       z     vdW  Elec       q    Type
REMARK                         _______ _______ _______ _____ _____    ______ ____
ROOT
ATOM      1  C   UNL     1       3.657   4.539  -4.957  0.00  0.00    +0.090 C 
ATOM      2  N   UNL     1       3.623   5.947  -5.258  0.00  0.00    -0.264 NA
ENDROOT
BRANCH   2   3
ATOM      3  C   UNL     1       2.300   6.473  -5.443  0.00  0.00    +0.099 C 
BRANCH   3   4
ATOM      4  C   UNL     1       1.283   5.841  -4.563  0.00  0.00    -0.006 A 
ATOM      5  C   UNL     1       0.022   5.587  -5.088  0.00  0.00    -0.003 A 
ATOM      6  C   UNL     1      -1.139   5.796  -4.360  0.00  0.00    -0.000 A 
ATOM      7  C   UNL     1      -2.374   5.682  -4.987  0.00  0.00    -0.000 A 
ATOM      8  C   UNL     1      -2.343   5.749  -6.375  0.00  0.00    -0.000 A 
ATOM      9  C   UNL     1      -1.270   5.233  -7.086  0.00  0.00    -0.000 A 
ATOM     10  C   UNL     1      -1.033   5.702  -2.978  0.00  0.00    -0.000 A 
ATOM     11  C   UNL     1       0.169   6.073  -2.417  0.00  0.00    -0.000 A 
ATOM     12  C   UNL     1      -0.069   5.149  -6.392  0.00  0.00    -0.000 A 
ATOM     13  C   UNL     1       1.310   6.140  -3.206  0.00  0.00    -0.003 A 
ENDBRANCH   3   4
ENDBRANCH   2   3
BRANCH   2  14
ATOM     14  C   UNL     1       4.342   6.179  -6.510  0.00  0.00    +0.099 C 
BRANCH  14  15
ATOM     15  C   UNL     1       3.540   5.488  -7.568  0.00  0.00    -0.009 C 
ATOM     16  C   UNL     1       4.275   4.867  -8.494  0.00  0.00    -0.003 C 
BRANCH  16  17
ATOM     17  C   UNL     1       5.216   5.750  -9.197  0.00  0.00    -0.000 A 
ATOM     18  C   UNL     1       6.571   5.556  -9.199  0.00  0.00    -0.000 A 
ATOM     19  C   UNL     1       7.348   6.278 -10.093  0.00  0.00    -0.000 A 
ATOM     20  C   UNL     1       6.773   7.328 -10.794  0.00  0.00    -0.000 A 
ATOM     21  C   UNL     1       5.404   7.483 -10.845  0.00  0.00    -0.000 A 
ATOM     22  C   UNL     1       4.652   6.517 -10.209  0.00  0.00    -0.000 A 
ENDBRANCH  16  17
ENDBRANCH  14  15
ENDBRANCH   2  14
TORSDOF 5
ENDMDL
MODEL 6
REMARK VINA RESULT:      -7.8      1.406      5.295
REMARK  Name = 
REMARK  5 active torsions:
REMARK  status: ('A' for Active; 'I' for Inactive)
REMARK    1  A    between atoms: N_2  and  C_3
REMARK    2  A    between atoms: N_2  and  C_12
REMARK    3  A    between atoms: C_3  and  C_4
REMARK    4  A    between atoms: C_5  and  C_6
REMARK    5  A    between atoms: C_12  and  C_13
REMARK                            x       y       z     vdW  Elec       q    Type
REMARK                         _______ _______ _______ _____ _____    ______ ____
ROOT
ATOM      1  C   UNL     1       1.403   4.947  -7.960  0.00  0.00    +0.090 C 
ATOM      2  N   UNL     1       1.541   5.760  -6.780  0.00  0.00    -0.264 NA
ENDROOT
BRANCH   2   3
ATOM      3  C   UNL     1       1.838   5.014  -5.589  0.00  0.00    +0.099 C 
BRANCH   3   4
ATOM      4  C   UNL     1       1.705   5.810  -4.342  0.00  0.00    -0.006 A 
ATOM      5  C   UNL     1       2.807   6.532  -3.900  0.00  0.00    -0.003 A 
ATOM      6  C   UNL     1       3.151   6.611  -2.559  0.00  0.00    -0.000 A 
ATOM      7  C   UNL     1       4.351   7.208  -2.190  0.00  0.00    -0.000 A 
ATOM      8  C   UNL     1       5.289   7.333  -3.208  0.00  0.00    -0.000 A 
ATOM      9  C   UNL     1       4.890   7.566  -4.515  0.00  0.00    -0.000 A 
ATOM     10  C   UNL     1       2.117   6.469  -1.642  0.00  0.00    -0.000 A 
ATOM     11  C   UNL     1       1.069   5.652  -2.004  0.00  0.00    -0.000 A 
ATOM     12  C   UNL     1       3.602   7.156  -4.838  0.00  0.00    -0.000 A 
ATOM     13  C   UNL     1       0.871   5.330  -3.340  0.00  0.00    -0.003 A 
ENDBRANCH   3   4
ENDBRANCH   2   3
BRANCH   2  14
ATOM     14  C   UNL     1       0.277   6.452  -6.533  0.00  0.00    +0.099 C 
BRANCH  14  15
ATOM     15  C   UNL     1      -0.793   5.432  -6.771  0.00  0.00    -0.009 C 
ATOM     16  C   UNL     1      -2.013   5.821  -6.393  0.00  0.00    -0.003 C 
BRANCH  16  17
ATOM     17  C   UNL     1      -2.106   6.197  -4.976  0.00  0.00    -0.000 A 
ATOM     18  C   UNL     1      -1.923   7.475  -4.523  0.00  0.00    -0.000 A 
ATOM     19  C   UNL     1      -2.283   7.779  -3.218  0.00  0.00    -0.000 A 
ATOM     20  C   UNL     1      -2.599   6.748  -2.345  0.00  0.00    -0.000 A 
ATOM     21  C   UNL     1      -2.847   5.474  -2.811  0.00  0.00    -0.000 A 
ATOM     22  C   UNL     1      -2.812   5.302  -4.179  0.00  0.00    -0.000 A 
ENDBRANCH  16  17
ENDBRANCH  14  15
ENDBRANCH   2  14
TORSDOF 5
ENDMDL
MODEL 7
REMARK VINA RESULT:      -7.8      2.673      6.776
REMARK  Name = 
REMARK  5 active torsions:
REMARK  status: ('A' for Active; 'I' for Inactive)
REMARK    1  A    between atoms: N_2  and  C_3
REMARK    2  A    between atoms: N_2  and  C_12
REMARK    3  A    between atoms: C_3  and  C_4
REMARK    4  A    between atoms: C_5  and  C_6
REMARK    5  A    between atoms: C_12  and  C_13
REMARK                            x       y       z     vdW  Elec       q    Type
REMARK                         _______ _______ _______ _____ _____    ______ ____
ROOT
ATOM      1  C   UNL     1       1.854   4.133  -6.318  0.00  0.00    +0.090 C 
ATOM      2  N   UNL     1       1.178   5.026  -7.223  0.00  0.00    -0.264 NA
ENDROOT
BRANCH   2   3
ATOM      3  C   UNL     1       2.047   5.968  -7.870  0.00  0.00    +0.099 C 
BRANCH   3   4
ATOM      4  C   UNL     1       2.394   5.593  -9.265  0.00  0.00    -0.006 A 
ATOM      5  C   UNL     1       3.735   5.559  -9.625  0.00  0.00    -0.003 A 
ATOM      6  C   UNL     1       4.186   6.026 -10.850  0.00  0.00    -0.000 A 
ATOM      7  C   UNL     1       5.552   6.118 -11.091  0.00  0.00    -0.000 A 
ATOM      8  C   UNL     1       6.357   6.101  -9.958  0.00  0.00    -0.000 A 
ATOM      9  C   UNL     1       6.002   5.350  -8.847  0.00  0.00    -0.000 A 
ATOM     10  C   UNL     1       3.280   5.990 -11.902  0.00  0.00    -0.000 A 
ATOM     11  C   UNL     1       1.949   6.153 -11.586  0.00  0.00    -0.000 A 
ATOM     12  C   UNL     1       4.647   5.075  -8.711  0.00  0.00    -0.000 A 
ATOM     13  C   UNL     1       1.518   5.956 -10.282  0.00  0.00    -0.003 A 
ENDBRANCH   3   4
ENDBRANCH   2   3
BRANCH   2  14
ATOM     14  C   UNL     1       0.200   5.810  -6.470  0.00  0.00    +0.099 C 
BRANCH  14  15
ATOM     15  C   UNL     1      -1.128   5.186  -6.766  0.00  0.00    -0.009 C 
ATOM     16  C   UNL     1      -2.175   5.925  -6.392  0.00  0.00    -0.003 C 
BRANCH  16  17
ATOM     17  C   UNL     1      -2.185   6.262  -4.962  0.00  0.00    -0.000 A 
ATOM     18  C   UNL     1      -1.990   7.530  -4.487  0.00  0.00    -0.000 A 
ATOM     19  C   UNL     1      -2.273   7.796  -3.155  0.00  0.00    -0.000 A 
ATOM     20  C   UNL     1      -2.522   6.739  -2.293  0.00  0.00    -0.000 A 
ATOM     21  C   UNL     1      -2.784   5.474  -2.777  0.00  0.00    -0.000 A 
ATOM     22  C   UNL     1      -2.831   5.339  -4.148  0.00  0.00    -0.000 A 
ENDBRANCH  16  17
ENDBRANCH  14  15
ENDBRANCH   2  14
TORSDOF 5
ENDMDL
MODEL 8
REMARK VINA RESULT:      -7.8      1.522      3.974
REMARK  Name = 
REMARK  5 active torsions:
REMARK  status: ('A' for Active; 'I' for Inactive)
REMARK    1  A    between atoms: N_2  and  C_3
REMARK    2  A    between atoms: N_2  and  C_12
REMARK    3  A    between atoms: C_3  and  C_4
REMARK    4  A    between atoms: C_5  and  C_6
REMARK    5  A    between atoms: C_12  and  C_13
REMARK                            x       y       z     vdW  Elec       q    Type
REMARK                         _______ _______ _______ _____ _____    ______ ____
ROOT
ATOM      1  C   UNL     1       3.652   4.692  -4.635  0.00  0.00    +0.090 C 
ATOM      2  N   UNL     1       2.452   5.448  -4.884  0.00  0.00    -0.264 NA
ENDROOT
BRANCH   2   3
ATOM      3  C   UNL     1       1.326   4.645  -5.270  0.00  0.00    +0.099 C 
BRANCH   3   4
ATOM      4  C   UNL     1       0.094   5.435  -5.522  0.00  0.00    -0.006 A 
ATOM      5  C   UNL     1      -0.758   5.686  -4.454  0.00  0.00    -0.003 A 
ATOM      6  C   UNL     1      -2.138   5.632  -4.578  0.00  0.00    -0.000 A 
ATOM      7  C   UNL     1      -2.936   5.731  -3.443  0.00  0.00    -0.000 A 
ATOM      8  C   UNL     1      -2.286   5.489  -2.239  0.00  0.00    -0.000 A 
ATOM      9  C   UNL     1      -0.960   5.854  -2.062  0.00  0.00    -0.000 A 
ATOM     10  C   UNL     1      -2.661   5.894  -5.838  0.00  0.00    -0.000 A 
ATOM     11  C   UNL     1      -1.889   5.533  -6.921  0.00  0.00    -0.000 A 
ATOM     12  C   UNL     1      -0.202   5.961  -3.223  0.00  0.00    -0.000 A 
ATOM     13  C   UNL     1      -0.529   5.308  -6.758  0.00  0.00    -0.003 A 
ENDBRANCH   3   4
ENDBRANCH   2   3
BRANCH   2  14
ATOM     14  C   UNL     1       2.700   6.377  -5.986  0.00  0.00    +0.099 C 
BRANCH  14  15
ATOM     15  C   UNL     1       3.743   5.722  -6.837  0.00  0.00    -0.009 C 
ATOM     16  C   UNL     1       3.755   6.137  -8.106  0.00  0.00    -0.003 C 
BRANCH  16  17
ATOM     17  C   UNL     1       2.475   5.952  -8.804  0.00  0.00    -0.000 A 
ATOM     18  C   UNL     1       1.710   6.991  -9.260  0.00  0.00    -0.000 A 
ATOM     19  C   UNL     1       0.661   6.718 -10.126  0.00  0.00    -0.000 A 
ATOM     20  C   UNL     1       0.274   5.401 -10.326  0.00  0.00    -0.000 A 
ATOM     21  C   UNL     1       1.078   4.356  -9.924  0.00  0.00    -0.000 A 
ATOM     22  C   UNL     1       2.293   4.694  -9.366  0.00  0.00    -0.000 A 
ENDBRANCH  16  17
ENDBRANCH  14  15
ENDBRANCH   2  14
TORSDOF 5
ENDMDL
MODEL 9
REMARK VINA RESULT:      -7.6      2.081      6.344
REMARK  Name = 
REMARK  5 active torsions:
REMARK  status: ('A' for Active; 'I' for Inactive)
REMARK    1  A    between atoms: N_2  and  C_3
REMARK    2  A    between atoms: N_2  and  C_12
REMARK    3  A    between atoms: C_3  and  C_4
REMARK    4  A    between atoms: C_5  and  C_6
REMARK    5  A    between atoms: C_12  and  C_13
REMARK                            x       y       z     vdW  Elec       q    Type
REMARK                         _______ _______ _______ _____ _____    ______ ____
ROOT
ATOM      1  C   UNL     1       0.616   6.929   0.336  0.00  0.00    +0.090 C 
ATOM      2  N   UNL     1       0.536   6.091  -0.831  0.00  0.00    -0.264 NA
ENDROOT
BRANCH   2   3
ATOM      3  C   UNL     1       0.885   6.758  -2.054  0.00  0.00    +0.099 C 
BRANCH   3   4
ATOM      4  C   UNL     1       1.590   5.884  -3.026  0.00  0.00    -0.006 A 
ATOM      5  C   UNL     1       2.863   6.252  -3.443  0.00  0.00    -0.003 A 
ATOM      6  C   UNL     1       3.280   6.119  -4.758  0.00  0.00    -0.000 A 
ATOM      7  C   UNL     1       4.502   6.653  -5.150  0.00  0.00    -0.000 A 
ATOM      8  C   UNL     1       5.033   7.611  -4.294  0.00  0.00    -0.000 A 
ATOM      9  C   UNL     1       4.839   7.522  -2.924  0.00  0.00    -0.000 A 
ATOM     10  C   UNL     1       2.667   5.122  -5.507  0.00  0.00    -0.000 A 
ATOM     11  C   UNL     1       1.357   4.826  -5.200  0.00  0.00    -0.000 A 
ATOM     12  C   UNL     1       3.721   6.804  -2.516  0.00  0.00    -0.000 A 
ATOM     13  C   UNL     1       0.831   5.205  -3.973  0.00  0.00    -0.003 A 
ENDBRANCH   3   4
ENDBRANCH   2   3
BRANCH   2  14
ATOM     14  C   UNL     1      -0.843   5.629  -0.987  0.00  0.00    +0.099 C 
BRANCH  14  15
ATOM     15  C   UNL     1      -1.686   6.866  -0.962  0.00  0.00    -0.009 C 
ATOM     16  C   UNL     1      -2.789   6.792  -1.711  0.00  0.00    -0.003 C 
BRANCH  16  17
ATOM     17  C   UNL     1      -2.529   6.496  -3.126  0.00  0.00    -0.000 A 
ATOM     18  C   UNL     1      -2.984   5.369  -3.755  0.00  0.00    -0.000 A 
ATOM     19  C   UNL     1      -2.914   5.302  -5.139  0.00  0.00    -0.000 A 
ATOM     20  C   UNL     1      -2.187   6.262  -5.827  0.00  0.00    -0.000 A 
ATOM     21  C   UNL     1      -1.786   7.428  -5.208  0.00  0.00    -0.000 A 
ATOM     22  C   UNL     1      -2.188   7.599  -3.901  0.00  0.00    -0.000 A 
ENDBRANCH  16  17
ENDBRANCH  14  15
ENDBRANCH   2  14
TORSDOF 5
ENDMDL
