MODEL 1
REMARK VINA RESULT:      -4.2      0.000      0.000
REMARK  Name = 
REMARK  8 active torsions:
REMARK  status: ('A' for Active; 'I' for Inactive)
REMARK    1  A    between atoms: C_2  and  C_3
REMARK    2  A    between atoms: C_3  and  N_4
REMARK    3  A    between atoms: N_4  and  C_5
REMARK    4  A    between atoms: C_5  and  C_6
REMARK    5  A    between atoms: N_14  and  C_15
REMARK    6  A    between atoms: N_14  and  C_18
REMARK    7  A    between atoms: C_15  and  C_16
REMARK    8  A    between atoms: C_18  and  C_19
REMARK                            x       y       z     vdW  Elec       q    Type
REMARK                         _______ _______ _______ _____ _____    ______ ____
ROOT
ATOM      1  N   UNL     1       1.128   4.305 -13.065  0.00  0.00    -0.273 N 
ATOM      2  C   UNL     1       2.034   5.356 -13.428  0.00  0.00    +0.222 A 
ATOM      3  N   UNL     1       3.277   5.388 -12.890  0.00  0.00    -0.197 NA
ATOM      4  C   UNL     1       4.321   5.963 -13.535  0.00  0.00    +0.154 A 
ATOM      5  N   UNL     1       5.447   6.501 -12.830  0.00  0.00    -0.292 N 
ATOM      6  C   UNL     1       6.747   5.899 -12.920  0.00  0.00    +0.092 C 
ATOM      7  C   UNL     1       7.705   6.566 -11.983  0.00  0.00    +0.022 C 
ATOM      8  C   UNL     1       7.185   6.722 -10.585  0.00  0.00    +0.004 C 
ATOM      9  C   UNL     1       5.701   6.951 -10.513  0.00  0.00    +0.022 C 
ATOM     10  C   UNL     1       5.193   7.527 -11.830  0.00  0.00    +0.092 C 
ATOM     11  C   UNL     1       4.014   6.491 -14.785  0.00  0.00    +0.136 A 
ATOM     12  N   UNL     1       5.010   6.869 -15.600  0.00  0.00    -0.209 NA
ATOM     13  C   UNL     1       4.667   7.408 -16.796  0.00  0.00    +0.222 A 
ATOM     14  N   UNL     1       3.475   8.046 -16.892  0.00  0.00    -0.197 NA
ATOM     15  C   UNL     1       2.402   7.645 -16.167  0.00  0.00    +0.154 A 
ATOM     16  N   UNL     1       1.254   8.497 -16.067  0.00  0.00    -0.292 N 
ATOM     17  C   UNL     1       0.648   9.033 -17.284  0.00  0.00    +0.092 C 
ATOM     18  C   UNL     1       0.323  10.514 -17.118  0.00  0.00    +0.022 C 
ATOM     19  C   UNL     1       1.419  11.232 -16.377  0.00  0.00    +0.004 C 
ATOM     20  C   UNL     1       1.617  10.672 -14.972  0.00  0.00    +0.022 C 
ATOM     21  C   UNL     1       0.987   9.288 -14.869  0.00  0.00    +0.092 C 
ATOM     22  N   UNL     1       5.559   7.389 -17.917  0.00  0.00    -0.273 N 
ATOM     23  C   UNL     1       2.696   6.730 -15.161  0.00  0.00    +0.136 A 
ATOM     24  N   UNL     1       1.706   6.272 -14.373  0.00  0.00    -0.209 NA
ENDROOT
BRANCH   1  25
ATOM     25  C   UNL     1       1.179   3.124 -13.924  0.00  0.00    +0.129 C 
BRANCH  25  27
ATOM     26  O   UNL     1      -0.518   4.013 -15.386  0.00  0.00    -0.219 OA
ATOM     27  C   UNL     1      -0.170   2.924 -14.603  0.00  0.00    +0.203 C 
ENDBRANCH  25  27
ENDBRANCH   1  25
BRANCH  22  28
ATOM     28  C   UNL     1       5.747   6.216 -18.746  0.00  0.00    +0.129 C 
BRANCH  28  29
ATOM     29  C   UNL     1       7.163   5.705 -18.641  0.00  0.00    +0.203 C 
ATOM     30  O   UNL     1       7.633   5.742 -17.319  0.00  0.00    -0.219 OA
ENDBRANCH  28  29
ENDBRANCH  22  28
BRANCH   1  31
ATOM     31  C   UNL     1      -0.183   4.595 -12.495  0.00  0.00    +0.129 C 
BRANCH  31  32
ATOM     32  C   UNL     1      -0.032   5.223 -11.116  0.00  0.00    +0.203 C 
ATOM     33  O   UNL     1       0.614   4.331 -10.275  0.00  0.00    -0.219 OA
ENDBRANCH  31  32
ENDBRANCH   1  31
BRANCH  22  34
ATOM     34  C   UNL     1       6.428   8.542 -18.110  0.00  0.00    +0.129 C 
BRANCH  34  35
ATOM     35  C   UNL     1       5.586   9.784 -18.227  0.00  0.00    +0.203 C 
ATOM     36  O   UNL     1       5.861  10.719 -17.236  0.00  0.00    -0.219 OA
ENDBRANCH  34  35
ENDBRANCH  22  34
TORSDOF 8
ENDMDL
MODEL 2
REMARK VINA RESULT:      -3.3     12.138     15.683
REMARK  Name = 
REMARK  8 active torsions:
REMARK  status: ('A' for Active; 'I' for Inactive)
REMARK    1  A    between atoms: C_2  and  C_3
REMARK    2  A    between atoms: C_3  and  N_4
REMARK    3  A    between atoms: N_4  and  C_5
REMARK    4  A    between atoms: C_5  and  C_6
REMARK    5  A    between atoms: N_14  and  C_15
REMARK    6  A    between atoms: N_14  and  C_18
REMARK    7  A    between atoms: C_15  and  C_16
REMARK    8  A    between atoms: C_18  and  C_19
REMARK                            x       y       z     vdW  Elec       q    Type
REMARK                         _______ _______ _______ _____ _____    ______ ____
ROOT
ATOM      1  N   UNL     1      -1.132   6.263  -3.823  0.00  0.00    -0.273 N 
ATOM      2  C   UNL     1      -0.476   6.309  -2.549  0.00  0.00    +0.222 A 
ATOM      3  N   UNL     1       0.772   5.798  -2.416  0.00  0.00    -0.197 NA
ATOM      4  C   UNL     1       1.636   6.255  -1.477  0.00  0.00    +0.154 A 
ATOM      5  N   UNL     1       2.683   5.434  -0.945  0.00  0.00    -0.292 N 
ATOM      6  C   UNL     1       4.066   5.711  -1.213  0.00  0.00    +0.092 C 
ATOM      7  C   UNL     1       4.939   4.628  -0.660  0.00  0.00    +0.022 C 
ATOM      8  C   UNL     1       4.499   3.241  -1.023  0.00  0.00    +0.004 C 
ATOM      9  C   UNL     1       3.007   3.090  -1.136  0.00  0.00    +0.022 C 
ATOM     10  C   UNL     1       2.306   4.173  -0.324  0.00  0.00    +0.092 C 
ATOM     11  C   UNL     1       1.145   7.291  -0.688  0.00  0.00    +0.136 A 
ATOM     12  N   UNL     1       1.989   7.967   0.105  0.00  0.00    -0.209 NA
ATOM     13  C   UNL     1       1.464   8.947   0.882  0.00  0.00    +0.222 A 
ATOM     14  N   UNL     1       0.167   8.839   1.260  0.00  0.00    -0.197 NA
ATOM     15  C   UNL     1      -0.754   8.253   0.454  0.00  0.00    +0.154 A 
ATOM     16  N   UNL     1      -2.035   7.894   0.986  0.00  0.00    -0.292 N 
ATOM     17  C   UNL     1      -2.818   8.893   1.711  0.00  0.00    +0.092 C 
ATOM     18  C   UNL     1      -3.412   8.293   2.982  0.00  0.00    +0.022 C 
ATOM     19  C   UNL     1      -2.427   7.384   3.668  0.00  0.00    +0.004 C 
ATOM     20  C   UNL     1      -2.026   6.210   2.781  0.00  0.00    +0.022 C 
ATOM     21  C   UNL     1      -2.366   6.514   1.327  0.00  0.00    +0.092 C 
ATOM     22  N   UNL     1       2.261  10.032   1.370  0.00  0.00    -0.273 N 
ATOM     23  C   UNL     1      -0.217   7.565  -0.629  0.00  0.00    +0.136 A 
ATOM     24  N   UNL     1      -1.042   6.938  -1.488  0.00  0.00    -0.209 NA
ENDROOT
BRANCH   1  25
ATOM     25  C   UNL     1      -0.913   7.434  -4.671  0.00  0.00    +0.129 C 
BRANCH  25  27
ATOM     26  O   UNL     1      -1.950   9.517  -4.043  0.00  0.00    -0.219 OA
ATOM     27  C   UNL     1      -2.164   8.304  -4.678  0.00  0.00    +0.203 C 
ENDBRANCH  25  27
ENDBRANCH   1  25
BRANCH  22  28
ATOM     28  C   UNL     1       2.616  11.173   0.550  0.00  0.00    +0.129 C 
BRANCH  28  29
ATOM     29  C   UNL     1       4.067  11.114   0.144  0.00  0.00    +0.203 C 
ATOM     30  O   UNL     1       4.654  12.388   0.117  0.00  0.00    -0.219 OA
ENDBRANCH  28  29
ENDBRANCH  22  28
BRANCH   1  31
ATOM     31  C   UNL     1      -2.432   5.620  -3.986  0.00  0.00    +0.129 C 
BRANCH  31  32
ATOM     32  C   UNL     1      -3.134   5.498  -2.640  0.00  0.00    +0.203 C 
ATOM     33  O   UNL     1      -4.154   6.433  -2.571  0.00  0.00    -0.219 OA
ENDBRANCH  31  32
ENDBRANCH   1  31
BRANCH  22  34
ATOM     34  C   UNL     1       2.875   9.885   2.683  0.00  0.00    +0.129 C 
BRANCH  34  35
ATOM     35  C   UNL     1       2.454  11.037   3.557  0.00  0.00    +0.203 C 
ATOM     36  O   UNL     1       1.077  11.104   3.737  0.00  0.00    -0.219 OA
ENDBRANCH  34  35
ENDBRANCH  22  34
TORSDOF 8
ENDMDL
MODEL 3
REMARK VINA RESULT:      -2.8     11.956     15.784
REMARK  Name = 
REMARK  8 active torsions:
REMARK  status: ('A' for Active; 'I' for Inactive)
REMARK    1  A    between atoms: C_2  and  C_3
REMARK    2  A    between atoms: C_3  and  N_4
REMARK    3  A    between atoms: N_4  and  C_5
REMARK    4  A    between atoms: C_5  and  C_6
REMARK    5  A    between atoms: N_14  and  C_15
REMARK    6  A    between atoms: N_14  and  C_18
REMARK    7  A    between atoms: C_15  and  C_16
REMARK    8  A    between atoms: C_18  and  C_19
REMARK                            x       y       z     vdW  Elec       q    Type
REMARK                         _______ _______ _______ _____ _____    ______ ____
ROOT
ATOM      1  N   UNL     1       3.336  10.506   0.788  0.00  0.00    -0.273 N 
ATOM      2  C   UNL     1       2.618   9.298   0.505  0.00  0.00    +0.222 A 
ATOM      3  N   UNL     1       1.422   9.072   1.100  0.00  0.00    -0.197 NA
ATOM      4  C   UNL     1       0.472   8.295   0.525  0.00  0.00    +0.154 A 
ATOM      5  N   UNL     1      -0.512   7.599   1.300  0.00  0.00    -0.292 N 
ATOM      6  C   UNL     1      -1.901   7.959   1.248  0.00  0.00    +0.092 C 
ATOM      7  C   UNL     1      -2.689   7.175   2.252  0.00  0.00    +0.022 C 
ATOM      8  C   UNL     1      -2.096   7.174   3.629  0.00  0.00    +0.004 C 
ATOM      9  C   UNL     1      -0.593   7.212   3.641  0.00  0.00    +0.022 C 
ATOM     10  C   UNL     1      -0.043   6.677   2.323  0.00  0.00    +0.092 C 
ATOM     11  C   UNL     1       0.819   7.775  -0.718  0.00  0.00    +0.136 A 
ATOM     12  N   UNL     1      -0.125   7.193  -1.472  0.00  0.00    -0.209 NA
ATOM     13  C   UNL     1       0.261   6.671  -2.662  0.00  0.00    +0.222 A 
ATOM     14  N   UNL     1       1.543   6.249  -2.791  0.00  0.00    -0.197 NA
ATOM     15  C   UNL     1       2.555   6.863  -2.130  0.00  0.00    +0.154 A 
ATOM     16  N   UNL     1       3.838   6.231  -2.052  0.00  0.00    -0.292 N 
ATOM     17  C   UNL     1       4.482   5.757  -3.276  0.00  0.00    +0.092 C 
ATOM     18  C   UNL     1       5.071   4.365  -3.071  0.00  0.00    +0.022 C 
ATOM     19  C   UNL     1       4.149   3.498  -2.256  0.00  0.00    +0.004 C 
ATOM     20  C   UNL     1       3.910   4.075  -0.865  0.00  0.00    +0.022 C 
ATOM     21  C   UNL     1       4.288   5.551  -0.840  0.00  0.00    +0.092 C 
ATOM     22  N   UNL     1      -0.663   6.484  -3.741  0.00  0.00    -0.273 N 
ATOM     23  C   UNL     1       2.142   7.754  -1.145  0.00  0.00    +0.136 A 
ATOM     24  N   UNL     1       3.066   8.414  -0.421  0.00  0.00    -0.209 NA
ENDROOT
BRANCH   1  25
ATOM     25  C   UNL     1       3.043  11.622  -0.110  0.00  0.00    +0.129 C 
BRANCH  25  27
ATOM     26  O   UNL     1       4.172  13.288  -1.436  0.00  0.00    -0.219 OA
ATOM     27  C   UNL     1       4.313  12.426  -0.360  0.00  0.00    +0.203 C 
ENDBRANCH  25  27
ENDBRANCH   1  25
BRANCH  22  28
ATOM     28  C   UNL     1      -1.088   7.569  -4.603  0.00  0.00    +0.129 C 
BRANCH  28  29
ATOM     29  C   UNL     1      -2.165   8.392  -3.940  0.00  0.00    +0.203 C 
ATOM     30  O   UNL     1      -1.937   9.769  -4.093  0.00  0.00    -0.219 OA
ENDBRANCH  28  29
ENDBRANCH  22  28
BRANCH   1  31
ATOM     31  C   UNL     1       4.700  10.476   1.308  0.00  0.00    +0.129 C 
BRANCH  31  32
ATOM     32  C   UNL     1       4.691  10.145   2.794  0.00  0.00    +0.203 C 
ATOM     33  O   UNL     1       3.785  10.970   3.441  0.00  0.00    -0.219 OA
ENDBRANCH  31  32
ENDBRANCH   1  31
BRANCH  22  34
ATOM     34  C   UNL     1      -1.321   5.190  -3.853  0.00  0.00    +0.129 C 
BRANCH  34  35
ATOM     35  C   UNL     1      -2.676   5.266  -3.202  0.00  0.00    +0.203 C 
ATOM     36  O   UNL     1      -2.657   4.876  -1.867  0.00  0.00    -0.219 OA
ENDBRANCH  34  35
ENDBRANCH  22  34
TORSDOF 8
ENDMDL
