MODEL 1
REMARK VINA RESULT:      -7.7      0.000      0.000
REMARK  Name = 
REMARK  8 active torsions:
REMARK  status: ('A' for Active; 'I' for Inactive)
REMARK    1  A    between atoms: O_2  and  C_3
REMARK    2  A    between atoms: C_3  and  C_4
REMARK    3  A    between atoms: C_4  and  C_5
REMARK    4  A    between atoms: C_5  and  O_6
REMARK    5  A    between atoms: O_6  and  C_7
REMARK    6  A    between atoms: C_11  and  C_12
REMARK    7  A    between atoms: C_12  and  S_13
REMARK    8  A    between atoms: S_13  and  C_15
REMARK                            x       y       z     vdW  Elec       q    Type
REMARK                         _______ _______ _______ _____ _____    ______ ____
ROOT
ATOM      1  C   UNL     1       1.895   5.846  -4.253  0.00  0.00    +0.137 A 
ATOM      2  C   UNL     1       1.297   5.885  -5.495  0.00  0.00    +0.027 A 
ATOM      3  C   UNL     1      -0.101   5.412  -5.669  0.00  0.00    +0.035 C 
ATOM      4  C   UNL     1       2.032   6.418  -6.530  0.00  0.00    +0.072 A 
ATOM      5  N   UNL     1       3.159   7.143  -6.334  0.00  0.00    -0.247 NA
ATOM      6  C   UNL     1       3.625   7.253  -5.075  0.00  0.00    +0.102 A 
ATOM      7  C   UNL     1       3.050   6.567  -4.026  0.00  0.00    +0.057 A 
ENDROOT
BRANCH   4   8
ATOM      8  C   UNL     1       1.457   6.420  -7.908  0.00  0.00    +0.145 C 
BRANCH   8   9
ATOM      9  S   UNL     1       1.981   4.848  -8.710  0.00  0.00    +0.107 S 
ATOM     10  O   UNL     1       1.004   4.838  -9.925  0.00  0.00    -0.248 OA
BRANCH   9  11
ATOM     11  C   UNL     1       3.504   5.345  -9.552  0.00  0.00    +0.221 A 
ATOM     12  N   UNL     1       3.704   6.378 -10.364  0.00  0.00    -0.218 NA
ATOM     13  C   UNL     1       5.015   6.616 -10.535  0.00  0.00    +0.101 A 
ATOM     14  C   UNL     1       5.665   5.730  -9.689  0.00  0.00    +0.101 A 
ATOM     15  C   UNL     1       7.039   5.805  -9.630  0.00  0.00    +0.021 A 
ATOM     16  C   UNL     1       7.726   6.856 -10.219  0.00  0.00    +0.002 A 
ATOM     17  C   UNL     1       7.048   7.781 -10.975  0.00  0.00    +0.002 A 
ATOM     18  C   UNL     1       5.705   7.602 -11.193  0.00  0.00    +0.021 A 
ATOM     19  N   UNL     1       4.702   5.115  -8.963  0.00  0.00    -0.218 NA
ENDBRANCH   9  11
ENDBRANCH   8   9
ENDBRANCH   4   8
BRANCH   1  20
ATOM     20  O   UNL     1       1.170   5.323  -3.189  0.00  0.00    -0.476 OA
BRANCH  20  21
ATOM     21  C   UNL     1       0.645   6.150  -2.172  0.00  0.00    +0.208 C 
BRANCH  21  22
ATOM     22  C   UNL     1      -0.371   5.309  -1.410  0.00  0.00    +0.079 C 
BRANCH  22  23
ATOM     23  C   UNL     1      -1.751   5.891  -1.671  0.00  0.00    +0.146 C 
BRANCH  23  25
ATOM     24  C   UNL     1      -3.088   5.226  -3.418  0.00  0.00    +0.174 C 
ATOM     25  O   UNL     1      -2.519   4.876  -2.216  0.00  0.00    -0.351 OA
ENDBRANCH  23  25
ENDBRANCH  22  23
ENDBRANCH  21  22
ENDBRANCH  20  21
ENDBRANCH   1  20
TORSDOF 8
ENDMDL
MODEL 2
REMARK VINA RESULT:      -7.7      2.642      8.364
REMARK  Name = 
REMARK  8 active torsions:
REMARK  status: ('A' for Active; 'I' for Inactive)
REMARK    1  A    between atoms: O_2  and  C_3
REMARK    2  A    between atoms: C_3  and  C_4
REMARK    3  A    between atoms: C_4  and  C_5
REMARK    4  A    between atoms: C_5  and  O_6
REMARK    5  A    between atoms: O_6  and  C_7
REMARK    6  A    between atoms: C_11  and  C_12
REMARK    7  A    between atoms: C_12  and  S_13
REMARK    8  A    between atoms: S_13  and  C_15
REMARK                            x       y       z     vdW  Elec       q    Type
REMARK                         _______ _______ _______ _____ _____    ______ ____
ROOT
ATOM      1  C   UNL     1       3.426   5.890  -9.151  0.00  0.00    +0.137 A 
ATOM      2  C   UNL     1       4.067   5.781  -7.935  0.00  0.00    +0.027 A 
ATOM      3  C   UNL     1       5.309   4.973  -7.812  0.00  0.00    +0.035 C 
ATOM      4  C   UNL     1       3.534   6.483  -6.877  0.00  0.00    +0.072 A 
ATOM      5  N   UNL     1       2.617   7.467  -7.037  0.00  0.00    -0.247 NA
ATOM      6  C   UNL     1       2.140   7.687  -8.277  0.00  0.00    +0.102 A 
ATOM      7  C   UNL     1       2.480   6.877  -9.339  0.00  0.00    +0.057 A 
ENDROOT
BRANCH   4   8
ATOM      8  C   UNL     1       4.150   6.345  -5.524  0.00  0.00    +0.145 C 
BRANCH   8   9
ATOM      9  S   UNL     1       3.447   4.820  -4.769  0.00  0.00    +0.107 S 
ATOM     10  O   UNL     1       3.829   5.070  -3.278  0.00  0.00    -0.248 OA
BRANCH   9  11
ATOM     11  C   UNL     1       1.683   5.216  -4.697  0.00  0.00    +0.221 A 
ATOM     12  N   UNL     1       1.093   6.288  -4.179  0.00  0.00    -0.218 NA
ATOM     13  C   UNL     1      -0.182   6.390  -4.595  0.00  0.00    +0.101 A 
ATOM     14  C   UNL     1      -0.356   5.363  -5.510  0.00  0.00    +0.101 A 
ATOM     15  C   UNL     1      -1.579   5.276  -6.137  0.00  0.00    +0.021 A 
ATOM     16  C   UNL     1      -2.517   6.291  -6.022  0.00  0.00    +0.002 A 
ATOM     17  C   UNL     1      -2.282   7.351  -5.181  0.00  0.00    +0.002 A 
ATOM     18  C   UNL     1      -1.147   7.346  -4.411  0.00  0.00    +0.021 A 
ATOM     19  N   UNL     1       0.861   4.799  -5.691  0.00  0.00    -0.218 NA
ENDBRANCH   9  11
ENDBRANCH   8   9
ENDBRANCH   4   8
BRANCH   1  20
ATOM     20  O   UNL     1       3.950   5.199 -10.237  0.00  0.00    -0.476 OA
BRANCH  20  21
ATOM     21  C   UNL     1       4.390   5.869 -11.398  0.00  0.00    +0.208 C 
BRANCH  21  22
ATOM     22  C   UNL     1       5.912   5.806 -11.387  0.00  0.00    +0.079 C 
BRANCH  22  23
ATOM     23  C   UNL     1       6.370   5.292 -12.742  0.00  0.00    +0.146 C 
BRANCH  23  25
ATOM     24  C   UNL     1       8.599   5.641 -12.304  0.00  0.00    +0.174 C 
ATOM     25  O   UNL     1       7.613   4.714 -12.555  0.00  0.00    -0.351 OA
ENDBRANCH  23  25
ENDBRANCH  22  23
ENDBRANCH  21  22
ENDBRANCH  20  21
ENDBRANCH   1  20
TORSDOF 8
ENDMDL
MODEL 3
REMARK VINA RESULT:      -7.6      1.819      2.768
REMARK  Name = 
REMARK  8 active torsions:
REMARK  status: ('A' for Active; 'I' for Inactive)
REMARK    1  A    between atoms: O_2  and  C_3
REMARK    2  A    between atoms: C_3  and  C_4
REMARK    3  A    between atoms: C_4  and  C_5
REMARK    4  A    between atoms: C_5  and  O_6
REMARK    5  A    between atoms: O_6  and  C_7
REMARK    6  A    between atoms: C_11  and  C_12
REMARK    7  A    between atoms: C_12  and  S_13
REMARK    8  A    between atoms: S_13  and  C_15
REMARK                            x       y       z     vdW  Elec       q    Type
REMARK                         _______ _______ _______ _____ _____    ______ ____
ROOT
ATOM      1  C   UNL     1      -1.158   6.560  -4.848  0.00  0.00    +0.137 A 
ATOM      2  C   UNL     1       0.126   6.415  -5.329  0.00  0.00    +0.027 A 
ATOM      3  C   UNL     1       1.290   6.757  -4.471  0.00  0.00    +0.035 C 
ATOM      4  C   UNL     1       0.268   5.904  -6.599  0.00  0.00    +0.072 A 
ATOM      5  N   UNL     1      -0.741   5.288  -7.260  0.00  0.00    -0.247 NA
ATOM      6  C   UNL     1      -1.957   5.274  -6.681  0.00  0.00    +0.102 A 
ATOM      7  C   UNL     1      -2.208   5.952  -5.507  0.00  0.00    +0.057 A 
ENDROOT
BRANCH   4   8
ATOM      8  C   UNL     1       1.633   5.791  -7.193  0.00  0.00    +0.145 C 
BRANCH   8   9
ATOM      9  S   UNL     1       1.696   6.957  -8.617  0.00  0.00    +0.107 S 
ATOM     10  O   UNL     1       2.110   8.260  -7.868  0.00  0.00    -0.248 OA
BRANCH   9  11
ATOM     11  C   UNL     1       3.281   6.533  -9.380  0.00  0.00    +0.221 A 
ATOM     12  N   UNL     1       3.906   7.135 -10.386  0.00  0.00    -0.218 NA
ATOM     13  C   UNL     1       5.191   6.749 -10.462  0.00  0.00    +0.101 A 
ATOM     14  C   UNL     1       5.395   5.927  -9.365  0.00  0.00    +0.101 A 
ATOM     15  C   UNL     1       6.667   5.432  -9.173  0.00  0.00    +0.021 A 
ATOM     16  C   UNL     1       7.739   5.904  -9.915  0.00  0.00    +0.002 A 
ATOM     17  C   UNL     1       7.526   6.796 -10.939  0.00  0.00    +0.002 A 
ATOM     18  C   UNL     1       6.238   7.145 -11.255  0.00  0.00    +0.021 A 
ATOM     19  N   UNL     1       4.263   5.984  -8.624  0.00  0.00    -0.218 NA
ENDBRANCH   9  11
ENDBRANCH   8   9
ENDBRANCH   4   8
BRANCH   1  20
ATOM     20  O   UNL     1      -1.329   7.064  -3.564  0.00  0.00    -0.476 OA
BRANCH  20  21
ATOM     21  C   UNL     1      -2.525   6.864  -2.842  0.00  0.00    +0.208 C 
BRANCH  21  22
ATOM     22  C   UNL     1      -2.167   6.000  -1.639  0.00  0.00    +0.079 C 
BRANCH  22  23
ATOM     23  C   UNL     1      -0.663   6.083  -1.435  0.00  0.00    +0.146 C 
BRANCH  23  25
ATOM     24  C   UNL     1       1.138   4.676  -1.195  0.00  0.00    +0.174 C 
ATOM     25  O   UNL     1      -0.159   4.810  -1.633  0.00  0.00    -0.351 OA
ENDBRANCH  23  25
ENDBRANCH  22  23
ENDBRANCH  21  22
ENDBRANCH  20  21
ENDBRANCH   1  20
TORSDOF 8
ENDMDL
MODEL 4
REMARK VINA RESULT:      -7.5      1.623      2.421
REMARK  Name = 
REMARK  8 active torsions:
REMARK  status: ('A' for Active; 'I' for Inactive)
REMARK    1  A    between atoms: O_2  and  C_3
REMARK    2  A    between atoms: C_3  and  C_4
REMARK    3  A    between atoms: C_4  and  C_5
REMARK    4  A    between atoms: C_5  and  O_6
REMARK    5  A    between atoms: O_6  and  C_7
REMARK    6  A    between atoms: C_11  and  C_12
REMARK    7  A    between atoms: C_12  and  S_13
REMARK    8  A    between atoms: S_13  and  C_15
REMARK                            x       y       z     vdW  Elec       q    Type
REMARK                         _______ _______ _______ _____ _____    ______ ____
ROOT
ATOM      1  C   UNL     1       0.309   5.316  -5.122  0.00  0.00    +0.137 A 
ATOM      2  C   UNL     1       1.317   5.051  -6.026  0.00  0.00    +0.027 A 
ATOM      3  C   UNL     1       2.627   4.530  -5.556  0.00  0.00    +0.035 C 
ATOM      4  C   UNL     1       1.034   5.247  -7.359  0.00  0.00    +0.072 A 
ATOM      5  N   UNL     1      -0.228   5.401  -7.827  0.00  0.00    -0.247 NA
ATOM      6  C   UNL     1      -1.229   5.466  -6.928  0.00  0.00    +0.102 A 
ATOM      7  C   UNL     1      -0.985   5.487  -5.571  0.00  0.00    +0.057 A 
ENDROOT
BRANCH   4   8
ATOM      8  C   UNL     1       2.111   5.041  -8.372  0.00  0.00    +0.145 C 
BRANCH   8   9
ATOM      9  S   UNL     1       2.178   6.568  -9.399  0.00  0.00    +0.107 S 
ATOM     10  O   UNL     1       2.089   7.642  -8.273  0.00  0.00    -0.248 OA
BRANCH   9  11
ATOM     11  C   UNL     1       3.943   6.683  -9.785  0.00  0.00    +0.221 A 
ATOM     12  N   UNL     1       4.952   5.990  -9.268  0.00  0.00    -0.218 NA
ATOM     13  C   UNL     1       6.061   6.113 -10.019  0.00  0.00    +0.101 A 
ATOM     14  C   UNL     1       5.677   6.852 -11.127  0.00  0.00    +0.101 A 
ATOM     15  C   UNL     1       6.629   7.077 -12.097  0.00  0.00    +0.021 A 
ATOM     16  C   UNL     1       7.848   6.416 -12.073  0.00  0.00    +0.002 A 
ATOM     17  C   UNL     1       8.170   5.609 -11.008  0.00  0.00    +0.002 A 
ATOM     18  C   UNL     1       7.301   5.532  -9.949  0.00  0.00    +0.021 A 
ATOM     19  N   UNL     1       4.335   7.006 -11.041  0.00  0.00    -0.218 NA
ENDBRANCH   9  11
ENDBRANCH   8   9
ENDBRANCH   4   8
BRANCH   1  20
ATOM     20  O   UNL     1       0.566   5.116  -3.771  0.00  0.00    -0.476 OA
BRANCH  20  21
ATOM     21  C   UNL     1       0.287   6.109  -2.809  0.00  0.00    +0.208 C 
BRANCH  21  22
ATOM     22  C   UNL     1      -0.143   5.379  -1.543  0.00  0.00    +0.079 C 
BRANCH  22  23
ATOM     23  C   UNL     1      -1.591   5.746  -1.261  0.00  0.00    +0.146 C 
BRANCH  23  25
ATOM     24  C   UNL     1      -3.330   5.767  -2.763  0.00  0.00    +0.174 C 
ATOM     25  O   UNL     1      -2.371   5.008  -2.134  0.00  0.00    -0.351 OA
ENDBRANCH  23  25
ENDBRANCH  22  23
ENDBRANCH  21  22
ENDBRANCH  20  21
ENDBRANCH   1  20
TORSDOF 8
ENDMDL
MODEL 5
REMARK VINA RESULT:      -7.5      2.768      8.172
REMARK  Name = 
REMARK  8 active torsions:
REMARK  status: ('A' for Active; 'I' for Inactive)
REMARK    1  A    between atoms: O_2  and  C_3
REMARK    2  A    between atoms: C_3  and  C_4
REMARK    3  A    between atoms: C_4  and  C_5
REMARK    4  A    between atoms: C_5  and  O_6
REMARK    5  A    between atoms: O_6  and  C_7
REMARK    6  A    between atoms: C_11  and  C_12
REMARK    7  A    between atoms: C_12  and  S_13
REMARK    8  A    between atoms: S_13  and  C_15
REMARK                            x       y       z     vdW  Elec       q    Type
REMARK                         _______ _______ _______ _____ _____    ______ ____
ROOT
ATOM      1  C   UNL     1       5.252   5.641 -10.323  0.00  0.00    +0.137 A 
ATOM      2  C   UNL     1       4.384   5.237  -9.331  0.00  0.00    +0.027 A 
ATOM      3  C   UNL     1       4.892   4.939  -7.966  0.00  0.00    +0.035 C 
ATOM      4  C   UNL     1       3.047   5.171  -9.652  0.00  0.00    +0.072 A 
ATOM      5  N   UNL     1       2.531   5.743 -10.767  0.00  0.00    -0.247 NA
ATOM      6  C   UNL     1       3.388   6.307 -11.639  0.00  0.00    +0.102 A 
ATOM      7  C   UNL     1       4.754   6.218 -11.474  0.00  0.00    +0.057 A 
ENDROOT
BRANCH   4   8
ATOM      8  C   UNL     1       2.075   4.673  -8.635  0.00  0.00    +0.145 C 
BRANCH   8   9
ATOM      9  S   UNL     1       1.163   6.143  -8.002  0.00  0.00    +0.107 S 
ATOM     10  O   UNL     1      -0.152   5.449  -7.531  0.00  0.00    -0.248 OA
BRANCH   9  11
ATOM     11  C   UNL     1       1.953   6.411  -6.396  0.00  0.00    +0.221 A 
ATOM     12  N   UNL     1       2.082   5.562  -5.382  0.00  0.00    -0.218 NA
ATOM     13  C   UNL     1       2.997   5.996  -4.498  0.00  0.00    +0.101 A 
ATOM     14  C   UNL     1       3.538   7.143  -5.058  0.00  0.00    +0.101 A 
ATOM     15  C   UNL     1       4.555   7.765  -4.368  0.00  0.00    +0.021 A 
ATOM     16  C   UNL     1       5.156   7.157  -3.276  0.00  0.00    +0.002 A 
ATOM     17  C   UNL     1       4.664   5.968  -2.795  0.00  0.00    +0.002 A 
ATOM     18  C   UNL     1       3.532   5.441  -3.363  0.00  0.00    +0.021 A 
ATOM     19  N   UNL     1       3.016   7.246  -6.303  0.00  0.00    -0.218 NA
ENDBRANCH   9  11
ENDBRANCH   8   9
ENDBRANCH   4   8
BRANCH   1  20
ATOM     20  O   UNL     1       6.606   5.727 -10.020  0.00  0.00    -0.476 OA
BRANCH  20  21
ATOM     21  C   UNL     1       7.477   6.562 -10.751  0.00  0.00    +0.208 C 
BRANCH  21  22
ATOM     22  C   UNL     1       8.538   5.655 -11.361  0.00  0.00    +0.079 C 
BRANCH  22  23
ATOM     23  C   UNL     1       8.525   5.866 -12.866  0.00  0.00    +0.146 C 
BRANCH  23  25
ATOM     24  C   UNL     1       6.807   5.572 -14.365  0.00  0.00    +0.174 C 
ATOM     25  O   UNL     1       7.584   4.995 -13.387  0.00  0.00    -0.351 OA
ENDBRANCH  23  25
ENDBRANCH  22  23
ENDBRANCH  21  22
ENDBRANCH  20  21
ENDBRANCH   1  20
TORSDOF 8
ENDMDL
MODEL 6
REMARK VINA RESULT:      -7.5      1.270      2.000
REMARK  Name = 
REMARK  8 active torsions:
REMARK  status: ('A' for Active; 'I' for Inactive)
REMARK    1  A    between atoms: O_2  and  C_3
REMARK    2  A    between atoms: C_3  and  C_4
REMARK    3  A    between atoms: C_4  and  C_5
REMARK    4  A    between atoms: C_5  and  O_6
REMARK    5  A    between atoms: O_6  and  C_7
REMARK    6  A    between atoms: C_11  and  C_12
REMARK    7  A    between atoms: C_12  and  S_13
REMARK    8  A    between atoms: S_13  and  C_15
REMARK                            x       y       z     vdW  Elec       q    Type
REMARK                         _______ _______ _______ _____ _____    ______ ____
ROOT
ATOM      1  C   UNL     1       1.402   5.613  -5.064  0.00  0.00    +0.137 A 
ATOM      2  C   UNL     1       0.871   5.720  -6.332  0.00  0.00    +0.027 A 
ATOM      3  C   UNL     1      -0.520   5.273  -6.602  0.00  0.00    +0.035 C 
ATOM      4  C   UNL     1       1.665   6.293  -7.300  0.00  0.00    +0.072 A 
ATOM      5  N   UNL     1       2.788   6.993  -7.009  0.00  0.00    -0.247 NA
ATOM      6  C   UNL     1       3.187   7.036  -5.724  0.00  0.00    +0.102 A 
ATOM      7  C   UNL     1       2.550   6.308  -4.741  0.00  0.00    +0.057 A 
ENDROOT
BRANCH   4   8
ATOM      8  C   UNL     1       1.164   6.370  -8.704  0.00  0.00    +0.145 C 
BRANCH   8   9
ATOM      9  S   UNL     1       1.758   4.856  -9.568  0.00  0.00    +0.107 S 
ATOM     10  O   UNL     1       0.953   4.983 -10.897  0.00  0.00    -0.248 OA
BRANCH   9  11
ATOM     11  C   UNL     1       3.390   5.374 -10.154  0.00  0.00    +0.221 A 
ATOM     12  N   UNL     1       3.717   6.459 -10.847  0.00  0.00    -0.218 NA
ATOM     13  C   UNL     1       5.044   6.673 -10.819  0.00  0.00    +0.101 A 
ATOM     14  C   UNL     1       5.556   5.708  -9.966  0.00  0.00    +0.101 A 
ATOM     15  C   UNL     1       6.910   5.740  -9.714  0.00  0.00    +0.021 A 
ATOM     16  C   UNL     1       7.689   6.813 -10.120  0.00  0.00    +0.002 A 
ATOM     17  C   UNL     1       7.137   7.812 -10.886  0.00  0.00    +0.002 A 
ATOM     18  C   UNL     1       5.834   7.687 -11.298  0.00  0.00    +0.021 A 
ATOM     19  N   UNL     1       4.492   5.066  -9.428  0.00  0.00    -0.218 NA
ENDBRANCH   9  11
ENDBRANCH   8   9
ENDBRANCH   4   8
BRANCH   1  20
ATOM     20  O   UNL     1       0.617   5.048  -4.066  0.00  0.00    -0.476 OA
BRANCH  20  21
ATOM     21  C   UNL     1       0.086   5.823  -3.012  0.00  0.00    +0.208 C 
BRANCH  21  22
ATOM     22  C   UNL     1       0.337   5.041  -1.729  0.00  0.00    +0.079 C 
BRANCH  22  23
ATOM     23  C   UNL     1       1.577   5.618  -1.065  0.00  0.00    +0.146 C 
BRANCH  23  25
ATOM     24  C   UNL     1       3.599   4.542  -1.255  0.00  0.00    +0.174 C 
ATOM     25  O   UNL     1       2.356   4.545  -0.666  0.00  0.00    -0.351 OA
ENDBRANCH  23  25
ENDBRANCH  22  23
ENDBRANCH  21  22
ENDBRANCH  20  21
ENDBRANCH   1  20
TORSDOF 8
ENDMDL
MODEL 7
REMARK VINA RESULT:      -7.4      1.938      3.407
REMARK  Name = 
REMARK  8 active torsions:
REMARK  status: ('A' for Active; 'I' for Inactive)
REMARK    1  A    between atoms: O_2  and  C_3
REMARK    2  A    between atoms: C_3  and  C_4
REMARK    3  A    between atoms: C_4  and  C_5
REMARK    4  A    between atoms: C_5  and  O_6
REMARK    5  A    between atoms: O_6  and  C_7
REMARK    6  A    between atoms: C_11  and  C_12
REMARK    7  A    between atoms: C_12  and  S_13
REMARK    8  A    between atoms: S_13  and  C_15
REMARK                            x       y       z     vdW  Elec       q    Type
REMARK                         _______ _______ _______ _____ _____    ______ ____
ROOT
ATOM      1  C   UNL     1       0.659   6.451  -5.523  0.00  0.00    +0.137 A 
ATOM      2  C   UNL     1       1.250   6.649  -6.753  0.00  0.00    +0.027 A 
ATOM      3  C   UNL     1       2.633   7.186  -6.843  0.00  0.00    +0.035 C 
ATOM      4  C   UNL     1       0.524   6.286  -7.865  0.00  0.00    +0.072 A 
ATOM      5  N   UNL     1      -0.581   5.506  -7.799  0.00  0.00    -0.247 NA
ATOM      6  C   UNL     1      -1.036   5.161  -6.579  0.00  0.00    +0.102 A 
ATOM      7  C   UNL     1      -0.473   5.668  -5.426  0.00  0.00    +0.057 A 
ENDROOT
BRANCH   4   8
ATOM      8  C   UNL     1       1.090   6.544  -9.223  0.00  0.00    +0.145 C 
BRANCH   8   9
ATOM      9  S   UNL     1       1.770   4.944  -9.832  0.00  0.00    +0.107 S 
ATOM     10  O   UNL     1       1.091   4.891 -11.234  0.00  0.00    -0.248 OA
BRANCH   9  11
ATOM     11  C   UNL     1       3.446   5.414 -10.327  0.00  0.00    +0.221 A 
ATOM     12  N   UNL     1       3.839   6.471 -11.029  0.00  0.00    -0.218 NA
ATOM     13  C   UNL     1       5.165   6.661 -10.921  0.00  0.00    +0.101 A 
ATOM     14  C   UNL     1       5.602   5.713 -10.009  0.00  0.00    +0.101 A 
ATOM     15  C   UNL     1       6.938   5.727  -9.673  0.00  0.00    +0.021 A 
ATOM     16  C   UNL     1       7.763   6.773 -10.059  0.00  0.00    +0.002 A 
ATOM     17  C   UNL     1       7.281   7.757 -10.887  0.00  0.00    +0.002 A 
ATOM     18  C   UNL     1       6.006   7.645 -11.378  0.00  0.00    +0.021 A 
ATOM     19  N   UNL     1       4.493   5.108  -9.522  0.00  0.00    -0.218 NA
ENDBRANCH   9  11
ENDBRANCH   8   9
ENDBRANCH   4   8
BRANCH   1  20
ATOM     20  O   UNL     1       1.376   6.798  -4.384  0.00  0.00    -0.476 OA
BRANCH  20  21
ATOM     21  C   UNL     1       1.690   5.849  -3.388  0.00  0.00    +0.208 C 
BRANCH  21  22
ATOM     22  C   UNL     1       3.067   5.296  -3.734  0.00  0.00    +0.079 C 
BRANCH  22  23
ATOM     23  C   UNL     1       4.107   6.176  -3.060  0.00  0.00    +0.146 C 
BRANCH  23  25
ATOM     24  C   UNL     1       5.198   7.826  -4.230  0.00  0.00    +0.174 C 
ATOM     25  O   UNL     1       5.063   6.475  -4.016  0.00  0.00    -0.351 OA
ENDBRANCH  23  25
ENDBRANCH  22  23
ENDBRANCH  21  22
ENDBRANCH  20  21
ENDBRANCH   1  20
TORSDOF 8
ENDMDL
MODEL 8
REMARK VINA RESULT:      -7.3      2.630      7.520
REMARK  Name = 
REMARK  8 active torsions:
REMARK  status: ('A' for Active; 'I' for Inactive)
REMARK    1  A    between atoms: O_2  and  C_3
REMARK    2  A    between atoms: C_3  and  C_4
REMARK    3  A    between atoms: C_4  and  C_5
REMARK    4  A    between atoms: C_5  and  O_6
REMARK    5  A    between atoms: O_6  and  C_7
REMARK    6  A    between atoms: C_11  and  C_12
REMARK    7  A    between atoms: C_12  and  S_13
REMARK    8  A    between atoms: S_13  and  C_15
REMARK                            x       y       z     vdW  Elec       q    Type
REMARK                         _______ _______ _______ _____ _____    ______ ____
ROOT
ATOM      1  C   UNL     1       3.992   6.365  -9.758  0.00  0.00    +0.137 A 
ATOM      2  C   UNL     1       3.472   6.584  -8.499  0.00  0.00    +0.027 A 
ATOM      3  C   UNL     1       2.137   7.217  -8.340  0.00  0.00    +0.035 C 
ATOM      4  C   UNL     1       4.218   6.151  -7.427  0.00  0.00    +0.072 A 
ATOM      5  N   UNL     1       5.260   5.295  -7.554  0.00  0.00    -0.247 NA
ATOM      6  C   UNL     1       5.634   4.940  -8.798  0.00  0.00    +0.102 A 
ATOM      7  C   UNL     1       5.059   5.505  -9.917  0.00  0.00    +0.057 A 
ENDROOT
BRANCH   4   8
ATOM      8  C   UNL     1       3.733   6.425  -6.041  0.00  0.00    +0.145 C 
BRANCH   8   9
ATOM      9  S   UNL     1       3.051   4.843  -5.390  0.00  0.00    +0.107 S 
ATOM     10  O   UNL     1       3.537   4.940  -3.912  0.00  0.00    -0.248 OA
BRANCH   9  11
ATOM     11  C   UNL     1       1.304   5.255  -5.160  0.00  0.00    +0.221 A 
ATOM     12  N   UNL     1       0.773   6.298  -4.532  0.00  0.00    -0.218 NA
ATOM     13  C   UNL     1      -0.527   6.442  -4.842  0.00  0.00    +0.101 A 
ATOM     14  C   UNL     1      -0.787   5.479  -5.804  0.00  0.00    +0.101 A 
ATOM     15  C   UNL     1      -2.055   5.447  -6.341  0.00  0.00    +0.021 A 
ATOM     16  C   UNL     1      -2.965   6.464  -6.091  0.00  0.00    +0.002 A 
ATOM     17  C   UNL     1      -2.649   7.465  -5.204  0.00  0.00    +0.002 A 
ATOM     18  C   UNL     1      -1.460   7.396  -4.524  0.00  0.00    +0.021 A 
ATOM     19  N   UNL     1       0.403   4.912  -6.113  0.00  0.00    -0.218 NA
ENDBRANCH   9  11
ENDBRANCH   8   9
ENDBRANCH   4   8
BRANCH   1  20
ATOM     20  O   UNL     1       3.253   6.783 -10.858  0.00  0.00    -0.476 OA
BRANCH  20  21
ATOM     21  C   UNL     1       2.817   5.874 -11.846  0.00  0.00    +0.208 C 
BRANCH  21  22
ATOM     22  C   UNL     1       1.415   6.312 -12.251  0.00  0.00    +0.079 C 
BRANCH  22  23
ATOM     23  C   UNL     1       0.419   5.496 -11.444  0.00  0.00    +0.146 C 
BRANCH  23  25
ATOM     24  C   UNL     1      -0.563   7.570 -11.587  0.00  0.00    +0.174 C 
ATOM     25  O   UNL     1      -0.474   6.392 -10.881  0.00  0.00    -0.351 OA
ENDBRANCH  23  25
ENDBRANCH  22  23
ENDBRANCH  21  22
ENDBRANCH  20  21
ENDBRANCH   1  20
TORSDOF 8
ENDMDL
MODEL 9
REMARK VINA RESULT:      -7.1      1.927      3.126
REMARK  Name = 
REMARK  8 active torsions:
REMARK  status: ('A' for Active; 'I' for Inactive)
REMARK    1  A    between atoms: O_2  and  C_3
REMARK    2  A    between atoms: C_3  and  C_4
REMARK    3  A    between atoms: C_4  and  C_5
REMARK    4  A    between atoms: C_5  and  O_6
REMARK    5  A    between atoms: O_6  and  C_7
REMARK    6  A    between atoms: C_11  and  C_12
REMARK    7  A    between atoms: C_12  and  S_13
REMARK    8  A    between atoms: S_13  and  C_15
REMARK                            x       y       z     vdW  Elec       q    Type
REMARK                         _______ _______ _______ _____ _____    ______ ____
ROOT
ATOM      1  C   UNL     1       1.378   5.957  -4.105  0.00  0.00    +0.137 A 
ATOM      2  C   UNL     1       2.079   5.339  -5.119  0.00  0.00    +0.027 A 
ATOM      3  C   UNL     1       3.529   5.052  -4.961  0.00  0.00    +0.035 C 
ATOM      4  C   UNL     1       1.370   4.968  -6.239  0.00  0.00    +0.072 A 
ATOM      5  N   UNL     1       0.016   4.921  -6.268  0.00  0.00    -0.247 NA
ATOM      6  C   UNL     1      -0.653   5.356  -5.183  0.00  0.00    +0.102 A 
ATOM      7  C   UNL     1      -0.002   5.934  -4.114  0.00  0.00    +0.057 A 
ENDROOT
BRANCH   4   8
ATOM      8  C   UNL     1       2.093   4.358  -7.393  0.00  0.00    +0.145 C 
BRANCH   8   9
ATOM      9  S   UNL     1       1.652   5.345  -8.884  0.00  0.00    +0.107 S 
ATOM     10  O   UNL     1       1.428   6.736  -8.217  0.00  0.00    -0.248 OA
BRANCH   9  11
ATOM     11  C   UNL     1       3.273   5.631  -9.637  0.00  0.00    +0.221 A 
ATOM     12  N   UNL     1       3.641   6.597 -10.472  0.00  0.00    -0.218 NA
ATOM     13  C   UNL     1       4.980   6.680 -10.560  0.00  0.00    +0.101 A 
ATOM     14  C   UNL     1       5.468   5.766  -9.639  0.00  0.00    +0.101 A 
ATOM     15  C   UNL     1       6.835   5.690  -9.487  0.00  0.00    +0.021 A 
ATOM     16  C   UNL     1       7.674   6.629 -10.067  0.00  0.00    +0.002 A 
ATOM     17  C   UNL     1       7.156   7.589 -10.903  0.00  0.00    +0.002 A 
ATOM     18  C   UNL     1       5.819   7.551 -11.206  0.00  0.00    +0.021 A 
ATOM     19  N   UNL     1       4.396   5.296  -8.958  0.00  0.00    -0.218 NA
ENDBRANCH   9  11
ENDBRANCH   8   9
ENDBRANCH   4   8
BRANCH   1  20
ATOM     20  O   UNL     1       2.070   6.331  -2.959  0.00  0.00    -0.476 OA
BRANCH  20  21
ATOM     21  C   UNL     1       1.541   6.109  -1.669  0.00  0.00    +0.208 C 
BRANCH  21  22
ATOM     22  C   UNL     1       2.288   4.911  -1.094  0.00  0.00    +0.079 C 
BRANCH  22  23
ATOM     23  C   UNL     1       3.777   5.202  -1.182  0.00  0.00    +0.146 C 
BRANCH  23  25
ATOM     24  C   UNL     1       4.803   7.007  -0.197  0.00  0.00    +0.174 C 
ATOM     25  O   UNL     1       4.138   5.820   0.002  0.00  0.00    -0.351 OA
ENDBRANCH  23  25
ENDBRANCH  22  23
ENDBRANCH  21  22
ENDBRANCH  20  21
ENDBRANCH   1  20
TORSDOF 8
ENDMDL
