MODEL 1
REMARK VINA RESULT:      -8.9      0.000      0.000
REMARK  Name = 
REMARK  1 active torsions:
REMARK  status: ('A' for Active; 'I' for Inactive)
REMARK    1  A    between atoms: N_14  and  C_15
REMARK                            x       y       z     vdW  Elec       q    Type
REMARK                         _______ _______ _______ _____ _____    ______ ____
ROOT
ATOM      1  O   UNL     1       0.337   4.950  -1.192  0.00  0.00    -0.270 OA
ATOM      2  C   UNL     1       0.271   5.161  -2.364  0.00  0.00    +0.249 C 
ATOM      3  N   UNL     1       1.484   5.445  -3.083  0.00  0.00    -0.276 N 
ATOM      4  C   UNL     1       1.365   6.000  -4.434  0.00  0.00    +0.098 C 
ATOM      5  C   UNL     1       0.156   5.036  -5.034  0.00  0.00    +0.042 C 
ATOM      6  C   UNL     1       0.026   5.979  -6.394  0.00  0.00    +0.006 C 
ATOM      7  C   UNL     1      -1.164   5.375  -7.118  0.00  0.00    +0.005 C 
ATOM      8  C   UNL     1      -2.393   5.806  -6.375  0.00  0.00    +0.026 C 
ATOM      9  C   UNL     1      -2.213   5.891  -4.923  0.00  0.00    -0.026 A 
ATOM     10  C   UNL     1      -3.297   6.321  -4.171  0.00  0.00    -0.005 A 
ATOM     11  C   UNL     1      -3.248   6.143  -2.797  0.00  0.00    -0.000 A 
ATOM     12  C   UNL     1      -2.226   5.375  -2.254  0.00  0.00    +0.004 A 
ATOM     13  C   UNL     1      -0.990   5.906  -4.266  0.00  0.00    -0.020 A 
ATOM     14  C   UNL     1      -1.048   5.384  -2.975  0.00  0.00    +0.049 A 
ENDROOT
BRANCH   3  15
ATOM     15  C   UNL     1       2.383   6.523  -2.310  0.00  0.00    +0.092 C 
ATOM     16  C   UNL     1       3.593   5.402  -2.057  0.00  0.00    +0.022 C 
ATOM     17  C   UNL     1       4.117   5.024  -3.389  0.00  0.00    +0.019 C 
ATOM     18  C   UNL     1       5.125   6.115  -3.750  0.00  0.00    +0.072 C 
ATOM     19  N   UNL     1       4.437   7.352  -3.384  0.00  0.00    -0.271 NA
ATOM     20  C   UNL     1       4.525   7.625  -1.963  0.00  0.00    +0.072 C 
ATOM     21  C   UNL     1       4.556   6.275  -1.262  0.00  0.00    +0.019 C 
ATOM     22  C   UNL     1       3.042   7.088  -3.737  0.00  0.00    +0.092 C 
ENDBRANCH   3  15
TORSDOF 1
ENDMDL
MODEL 2
REMARK VINA RESULT:      -8.6      6.463      8.216
REMARK  Name = 
REMARK  1 active torsions:
REMARK  status: ('A' for Active; 'I' for Inactive)
REMARK    1  A    between atoms: N_14  and  C_15
REMARK                            x       y       z     vdW  Elec       q    Type
REMARK                         _______ _______ _______ _____ _____    ______ ____
ROOT
ATOM      1  O   UNL     1       3.036   6.151 -12.963  0.00  0.00    -0.270 OA
ATOM      2  C   UNL     1       3.024   6.284 -11.778  0.00  0.00    +0.249 C 
ATOM      3  N   UNL     1       4.259   6.580 -11.105  0.00  0.00    -0.276 N 
ATOM      4  C   UNL     1       4.296   6.437  -9.647  0.00  0.00    +0.098 C 
ATOM      5  C   UNL     1       2.851   7.150  -9.253  0.00  0.00    +0.042 C 
ATOM      6  C   UNL     1       2.990   6.651  -7.675  0.00  0.00    +0.006 C 
ATOM      7  C   UNL     1       1.668   7.077  -7.063  0.00  0.00    +0.005 C 
ATOM      8  C   UNL     1       0.628   6.117  -7.555  0.00  0.00    +0.026 C 
ATOM      9  C   UNL     1       0.840   5.664  -8.933  0.00  0.00    -0.026 A 
ATOM     10  C   UNL     1      -0.063   4.742  -9.446  0.00  0.00    -0.005 A 
ATOM     11  C   UNL     1      -0.055   4.515 -10.814  0.00  0.00    -0.000 A 
ATOM     12  C   UNL     1       0.701   5.348 -11.629  0.00  0.00    +0.004 A 
ATOM     13  C   UNL     1       2.019   5.804  -9.652  0.00  0.00    -0.020 A 
ATOM     14  C   UNL     1       1.823   5.886 -11.029  0.00  0.00    +0.049 A 
ENDROOT
BRANCH   3  15
ATOM     15  C   UNL     1       5.443   5.625 -11.607  0.00  0.00    +0.092 C 
ATOM     16  C   UNL     1       6.249   6.910 -12.302  0.00  0.00    +0.022 C 
ATOM     17  C   UNL     1       6.636   7.823 -11.202  0.00  0.00    +0.019 C 
ATOM     18  C   UNL     1       7.932   7.243 -10.635  0.00  0.00    +0.072 C 
ATOM     19  N   UNL     1       7.657   5.809 -10.546  0.00  0.00    -0.271 NA
ATOM     20  C   UNL     1       7.818   5.142 -11.823  0.00  0.00    +0.072 C 
ATOM     21  C   UNL     1       7.431   6.152 -12.893  0.00  0.00    +0.019 C 
ATOM     22  C   UNL     1       6.249   5.753 -10.150  0.00  0.00    +0.092 C 
ENDBRANCH   3  15
TORSDOF 1
ENDMDL
MODEL 3
REMARK VINA RESULT:      -8.3      1.679      2.567
REMARK  Name = 
REMARK  1 active torsions:
REMARK  status: ('A' for Active; 'I' for Inactive)
REMARK    1  A    between atoms: N_14  and  C_15
REMARK                            x       y       z     vdW  Elec       q    Type
REMARK                         _______ _______ _______ _____ _____    ______ ____
ROOT
ATOM      1  O   UNL     1       2.353   5.985  -0.563  0.00  0.00    -0.270 OA
ATOM      2  C   UNL     1       1.482   5.953  -1.377  0.00  0.00    +0.249 C 
ATOM      3  N   UNL     1       1.838   5.885  -2.768  0.00  0.00    -0.276 N 
ATOM      4  C   UNL     1       0.792   6.157  -3.757  0.00  0.00    +0.098 C 
ATOM      5  C   UNL     1      -0.459   5.291  -3.095  0.00  0.00    +0.042 C 
ATOM      6  C   UNL     1      -1.533   5.937  -4.183  0.00  0.00    +0.006 C 
ATOM      7  C   UNL     1      -2.869   5.389  -3.713  0.00  0.00    +0.005 C 
ATOM      8  C   UNL     1      -3.245   6.155  -2.480  0.00  0.00    +0.026 C 
ATOM      9  C   UNL     1      -2.107   6.513  -1.630  0.00  0.00    -0.026 A 
ATOM     10  C   UNL     1      -2.373   7.257  -0.489  0.00  0.00    -0.005 A 
ATOM     11  C   UNL     1      -1.373   7.365   0.466  0.00  0.00    -0.000 A 
ATOM     12  C   UNL     1      -0.237   6.576   0.341  0.00  0.00    +0.004 A 
ATOM     13  C   UNL     1      -0.774   6.473  -2.015  0.00  0.00    -0.020 A 
ATOM     14  C   UNL     1       0.104   6.248  -0.956  0.00  0.00    +0.049 A 
ENDROOT
BRANCH   3  15
ATOM     15  C   UNL     1       2.983   6.945  -3.131  0.00  0.00    +0.092 C 
ATOM     16  C   UNL     1       4.130   5.739  -3.242  0.00  0.00    +0.022 C 
ATOM     17  C   UNL     1       3.735   4.869  -4.373  0.00  0.00    +0.019 C 
ATOM     18  C   UNL     1       4.266   5.568  -5.624  0.00  0.00    +0.072 C 
ATOM     19  N   UNL     1       3.907   6.970  -5.413  0.00  0.00    -0.271 NA
ATOM     20  C   UNL     1       4.843   7.647  -4.536  0.00  0.00    +0.072 C 
ATOM     21  C   UNL     1       5.347   6.603  -3.550  0.00  0.00    +0.019 C 
ATOM     22  C   UNL     1       2.602   6.896  -4.756  0.00  0.00    +0.092 C 
ENDBRANCH   3  15
TORSDOF 1
ENDMDL
MODEL 4
REMARK VINA RESULT:      -8.2      1.668      3.197
REMARK  Name = 
REMARK  1 active torsions:
REMARK  status: ('A' for Active; 'I' for Inactive)
REMARK    1  A    between atoms: N_14  and  C_15
REMARK                            x       y       z     vdW  Elec       q    Type
REMARK                         _______ _______ _______ _____ _____    ______ ____
ROOT
ATOM      1  O   UNL     1       1.142   6.965  -6.470  0.00  0.00    -0.270 OA
ATOM      2  C   UNL     1       0.594   6.754  -5.432  0.00  0.00    +0.249 C 
ATOM      3  N   UNL     1       1.389   6.672  -4.236  0.00  0.00    -0.276 N 
ATOM      4  C   UNL     1       0.762   6.115  -3.035  0.00  0.00    +0.098 C 
ATOM      5  C   UNL     1      -0.710   6.879  -3.099  0.00  0.00    +0.042 C 
ATOM      6  C   UNL     1      -1.297   5.937  -1.865  0.00  0.00    +0.006 C 
ATOM      7  C   UNL     1      -2.755   6.349  -1.782  0.00  0.00    +0.005 C 
ATOM      8  C   UNL     1      -3.454   5.723  -2.951  0.00  0.00    +0.026 C 
ATOM      9  C   UNL     1      -2.639   5.657  -4.167  0.00  0.00    -0.026 A 
ATOM     10  C   UNL     1      -3.205   5.054  -5.282  0.00  0.00    -0.005 A 
ATOM     11  C   UNL     1      -2.577   5.228  -6.506  0.00  0.00    -0.000 A 
ATOM     12  C   UNL     1      -1.539   6.145  -6.604  0.00  0.00    +0.004 A 
ATOM     13  C   UNL     1      -1.263   5.832  -4.221  0.00  0.00    -0.020 A 
ATOM     14  C   UNL     1      -0.814   6.329  -5.444  0.00  0.00    +0.049 A 
ENDROOT
BRANCH   3  15
ATOM     15  C   UNL     1       2.677   5.746  -4.453  0.00  0.00    +0.092 C 
ATOM     16  C   UNL     1       3.684   7.076  -4.495  0.00  0.00    +0.022 C 
ATOM     17  C   UNL     1       3.617   7.711  -3.159  0.00  0.00    +0.019 C 
ATOM     18  C   UNL     1       4.597   6.925  -2.289  0.00  0.00    +0.072 C 
ATOM     19  N   UNL     1       4.312   5.530  -2.625  0.00  0.00    -0.271 NA
ATOM     20  C   UNL     1       4.954   5.125  -3.861  0.00  0.00    +0.072 C 
ATOM     21  C   UNL     1       5.005   6.359  -4.749  0.00  0.00    +0.019 C 
ATOM     22  C   UNL     1       2.861   5.510  -2.810  0.00  0.00    +0.092 C 
ENDBRANCH   3  15
TORSDOF 1
ENDMDL
MODEL 5
REMARK VINA RESULT:      -8.1      3.756      5.377
REMARK  Name = 
REMARK  1 active torsions:
REMARK  status: ('A' for Active; 'I' for Inactive)
REMARK    1  A    between atoms: N_14  and  C_15
REMARK                            x       y       z     vdW  Elec       q    Type
REMARK                         _______ _______ _______ _____ _____    ______ ____
ROOT
ATOM      1  O   UNL     1       0.367   5.031  -6.811  0.00  0.00    -0.270 OA
ATOM      2  C   UNL     1       1.348   5.234  -7.458  0.00  0.00    +0.249 C 
ATOM      3  N   UNL     1       2.593   5.455  -6.773  0.00  0.00    -0.276 N 
ATOM      4  C   UNL     1       3.711   6.003  -7.546  0.00  0.00    +0.098 C 
ATOM      5  C   UNL     1       3.581   5.090  -8.925  0.00  0.00    +0.042 C 
ATOM      6  C   UNL     1       4.713   6.026  -9.698  0.00  0.00    +0.006 C 
ATOM      7  C   UNL     1       4.710   5.471 -11.111  0.00  0.00    +0.005 C 
ATOM      8  C   UNL     1       3.459   5.966 -11.772  0.00  0.00    +0.026 C 
ATOM      9  C   UNL     1       2.305   6.056 -10.873  0.00  0.00    -0.026 A 
ATOM     10  C   UNL     1       1.119   6.543 -11.405  0.00  0.00    -0.005 A 
ATOM     11  C   UNL     1      -0.043   6.375 -10.668  0.00  0.00    -0.000 A 
ATOM     12  C   UNL     1      -0.012   5.565  -9.540  0.00  0.00    +0.004 A 
ATOM     13  C   UNL     1       2.363   6.020  -9.487  0.00  0.00    -0.020 A 
ATOM     14  C   UNL     1       1.207   5.513  -8.895  0.00  0.00    +0.049 A 
ENDROOT
BRANCH   3  15
ATOM     15  C   UNL     1       2.421   6.496  -5.569  0.00  0.00    +0.092 C 
ATOM     16  C   UNL     1       2.528   5.276  -4.436  0.00  0.00    +0.022 C 
ATOM     17  C   UNL     1       3.888   4.702  -4.547  0.00  0.00    +0.019 C 
ATOM     18  C   UNL     1       4.783   5.625  -3.720  0.00  0.00    +0.072 C 
ATOM     19  N   UNL     1       4.350   6.966  -4.113  0.00  0.00    -0.271 NA
ATOM     20  C   UNL     1       3.145   7.374  -3.417  0.00  0.00    +0.072 C 
ATOM     21  C   UNL     1       2.333   6.110  -3.176  0.00  0.00    +0.019 C 
ATOM     22  C   UNL     1       4.058   6.829  -5.539  0.00  0.00    +0.092 C 
ENDBRANCH   3  15
TORSDOF 1
ENDMDL
MODEL 6
REMARK VINA RESULT:      -8.0      1.831      3.537
REMARK  Name = 
REMARK  1 active torsions:
REMARK  status: ('A' for Active; 'I' for Inactive)
REMARK    1  A    between atoms: N_14  and  C_15
REMARK                            x       y       z     vdW  Elec       q    Type
REMARK                         _______ _______ _______ _____ _____    ______ ____
ROOT
ATOM      1  O   UNL     1       3.338   7.116  -5.596  0.00  0.00    -0.270 OA
ATOM      2  C   UNL     1       2.220   6.866  -5.265  0.00  0.00    +0.249 C 
ATOM      3  N   UNL     1       1.933   6.713  -3.863  0.00  0.00    -0.276 N 
ATOM      4  C   UNL     1       0.652   6.110  -3.489  0.00  0.00    +0.098 C 
ATOM      5  C   UNL     1      -0.356   6.901  -4.543  0.00  0.00    +0.042 C 
ATOM      6  C   UNL     1      -1.624   5.911  -4.134  0.00  0.00    +0.006 C 
ATOM      7  C   UNL     1      -2.720   6.344  -5.092  0.00  0.00    +0.005 C 
ATOM      8  C   UNL     1      -2.369   5.786  -6.438  0.00  0.00    +0.026 C 
ATOM      9  C   UNL     1      -0.931   5.764  -6.718  0.00  0.00    -0.026 A 
ATOM     10  C   UNL     1      -0.526   5.226  -7.932  0.00  0.00    -0.005 A 
ATOM     11  C   UNL     1       0.781   5.447  -8.340  0.00  0.00    -0.000 A 
ATOM     12  C   UNL     1       1.562   6.350  -7.630  0.00  0.00    +0.004 A 
ATOM     13  C   UNL     1       0.074   5.918  -5.773  0.00  0.00    -0.020 A 
ATOM     14  C   UNL     1       1.246   6.466  -6.291  0.00  0.00    +0.049 A 
ENDROOT
BRANCH   3  15
ATOM     15  C   UNL     1       3.015   5.776  -3.145  0.00  0.00    +0.092 C 
ATOM     16  C   UNL     1       3.727   7.089  -2.401  0.00  0.00    +0.022 C 
ATOM     17  C   UNL     1       2.720   7.663  -1.480  0.00  0.00    +0.019 C 
ATOM     18  C   UNL     1       2.811   6.821  -0.208  0.00  0.00    +0.072 C 
ATOM     19  N   UNL     1       2.878   5.448  -0.708  0.00  0.00    -0.271 NA
ATOM     20  C   UNL     1       4.215   5.091  -1.141  0.00  0.00    +0.072 C 
ATOM     21  C   UNL     1       4.854   6.364  -1.676  0.00  0.00    +0.019 C 
ATOM     22  C   UNL     1       1.986   5.461  -1.868  0.00  0.00    +0.092 C 
ENDBRANCH   3  15
TORSDOF 1
ENDMDL
MODEL 7
REMARK VINA RESULT:      -7.9      7.037      9.992
REMARK  Name = 
REMARK  1 active torsions:
REMARK  status: ('A' for Active; 'I' for Inactive)
REMARK    1  A    between atoms: N_14  and  C_15
REMARK                            x       y       z     vdW  Elec       q    Type
REMARK                         _______ _______ _______ _____ _____    ______ ____
ROOT
ATOM      1  O   UNL     1       4.008   6.543  -8.813  0.00  0.00    -0.270 OA
ATOM      2  C   UNL     1       4.334   6.410  -9.952  0.00  0.00    +0.249 C 
ATOM      3  N   UNL     1       3.311   6.223 -10.945  0.00  0.00    -0.276 N 
ATOM      4  C   UNL     1       3.722   5.758 -12.272  0.00  0.00    +0.098 C 
ATOM      5  C   UNL     1       5.057   6.714 -12.510  0.00  0.00    +0.042 C 
ATOM      6  C   UNL     1       5.473   5.861 -13.873  0.00  0.00    +0.006 C 
ATOM      7  C   UNL     1       6.809   6.468 -14.262  0.00  0.00    +0.005 C 
ATOM      8  C   UNL     1       7.826   5.940 -13.296  0.00  0.00    +0.026 C 
ATOM      9  C   UNL     1       7.319   5.762 -11.933  0.00  0.00    -0.026 A 
ATOM     10  C   UNL     1       8.194   5.240 -10.991  0.00  0.00    -0.005 A 
ATOM     11  C   UNL     1       7.837   5.326  -9.653  0.00  0.00    -0.000 A 
ATOM     12  C   UNL     1       6.735   6.094  -9.299  0.00  0.00    +0.004 A 
ATOM     13  C   UNL     1       5.979   5.749 -11.571  0.00  0.00    -0.020 A 
ATOM     14  C   UNL     1       5.753   6.179 -10.265  0.00  0.00    +0.049 A 
ENDROOT
BRANCH   3  15
ATOM     15  C   UNL     1       2.237   5.131 -10.479  0.00  0.00    +0.092 C 
ATOM     16  C   UNL     1       1.241   6.311  -9.847  0.00  0.00    +0.022 C 
ATOM     17  C   UNL     1       0.793   7.151 -10.981  0.00  0.00    +0.019 C 
ATOM     18  C   UNL     1      -0.390   6.401 -11.594  0.00  0.00    +0.072 C 
ATOM     19  N   UNL     1       0.071   5.014 -11.644  0.00  0.00    -0.271 NA
ATOM     20  C   UNL     1      -0.065   4.349 -10.362  0.00  0.00    +0.072 C 
ATOM     21  C   UNL     1       0.139   5.415  -9.296  0.00  0.00    +0.019 C 
ATOM     22  C   UNL     1       1.491   5.134 -11.973  0.00  0.00    +0.092 C 
ENDBRANCH   3  15
TORSDOF 1
ENDMDL
MODEL 8
REMARK VINA RESULT:      -7.8      4.471      7.048
REMARK  Name = 
REMARK  1 active torsions:
REMARK  status: ('A' for Active; 'I' for Inactive)
REMARK    1  A    between atoms: N_14  and  C_15
REMARK                            x       y       z     vdW  Elec       q    Type
REMARK                         _______ _______ _______ _____ _____    ______ ____
ROOT
ATOM      1  O   UNL     1       0.143   4.998  -9.518  0.00  0.00    -0.270 OA
ATOM      2  C   UNL     1       1.278   5.143  -9.183  0.00  0.00    +0.249 C 
ATOM      3  N   UNL     1       1.569   5.310  -7.784  0.00  0.00    -0.276 N 
ATOM      4  C   UNL     1       2.903   5.791  -7.415  0.00  0.00    +0.098 C 
ATOM      5  C   UNL     1       3.832   4.869  -8.434  0.00  0.00    +0.042 C 
ATOM      6  C   UNL     1       5.192   5.737  -8.043  0.00  0.00    +0.006 C 
ATOM      7  C   UNL     1       6.244   5.165  -8.976  0.00  0.00    +0.005 C 
ATOM      8  C   UNL     1       5.962   5.713 -10.342  0.00  0.00    +0.026 C 
ATOM      9  C   UNL     1       4.535   5.872 -10.637  0.00  0.00    -0.026 A 
ATOM     10  C   UNL     1       4.196   6.411 -11.871  0.00  0.00    -0.005 A 
ATOM     11  C   UNL     1       2.876   6.311 -12.285  0.00  0.00    -0.000 A 
ATOM     12  C   UNL     1       2.002   5.515 -11.556  0.00  0.00    +0.004 A 
ATOM     13  C   UNL     1       3.514   5.851  -9.698  0.00  0.00    -0.020 A 
ATOM     14  C   UNL     1       2.295   5.410 -10.211  0.00  0.00    +0.049 A 
ENDROOT
BRANCH   3  15
ATOM     15  C   UNL     1       0.583   6.374  -7.105  0.00  0.00    +0.092 C 
ATOM     16  C   UNL     1      -0.234   5.169  -6.292  0.00  0.00    +0.022 C 
ATOM     17  C   UNL     1       0.728   4.552  -5.351  0.00  0.00    +0.019 C 
ATOM     18  C   UNL     1       0.727   5.461  -4.122  0.00  0.00    +0.072 C 
ATOM     19  N   UNL     1       0.777   6.808  -4.689  0.00  0.00    -0.271 NA
ATOM     20  C   UNL     1      -0.527   7.262  -5.130  0.00  0.00    +0.072 C 
ATOM     21  C   UNL     1      -1.283   6.027  -5.596  0.00  0.00    +0.019 C 
ATOM     22  C   UNL     1       1.651   6.658  -5.853  0.00  0.00    +0.092 C 
ENDBRANCH   3  15
TORSDOF 1
ENDMDL
MODEL 9
REMARK VINA RESULT:      -7.7      3.273      4.630
REMARK  Name = 
REMARK  1 active torsions:
REMARK  status: ('A' for Active; 'I' for Inactive)
REMARK    1  A    between atoms: N_14  and  C_15
REMARK                            x       y       z     vdW  Elec       q    Type
REMARK                         _______ _______ _______ _____ _____    ______ ____
ROOT
ATOM      1  O   UNL     1       3.275   4.632  -5.078  0.00  0.00    -0.270 OA
ATOM      2  C   UNL     1       2.172   4.882  -5.458  0.00  0.00    +0.249 C 
ATOM      3  N   UNL     1       1.951   5.060  -6.867  0.00  0.00    -0.276 N 
ATOM      4  C   UNL     1       0.684   5.663  -7.290  0.00  0.00    +0.098 C 
ATOM      5  C   UNL     1      -0.366   4.844  -6.301  0.00  0.00    +0.042 C 
ATOM      6  C   UNL     1      -1.621   5.834  -6.750  0.00  0.00    +0.006 C 
ATOM      7  C   UNL     1      -2.757   5.375  -5.854  0.00  0.00    +0.005 C 
ATOM      8  C   UNL     1      -2.475   5.908  -4.482  0.00  0.00    +0.026 C 
ATOM      9  C   UNL     1      -1.052   5.934  -4.134  0.00  0.00    -0.026 A 
ATOM     10  C   UNL     1      -0.709   6.451  -2.892  0.00  0.00    -0.005 A 
ATOM     11  C   UNL     1       0.579   6.230  -2.427  0.00  0.00    -0.000 A 
ATOM     12  C   UNL     1       1.400   5.346  -3.117  0.00  0.00    +0.004 A 
ATOM     13  C   UNL     1      -0.003   5.805  -5.034  0.00  0.00    -0.020 A 
ATOM     14  C   UNL     1       1.148   5.255  -4.471  0.00  0.00    +0.049 A 
ENDROOT
BRANCH   3  15
ATOM     15  C   UNL     1       3.059   6.018  -7.516  0.00  0.00    +0.092 C 
ATOM     16  C   UNL     1       3.669   4.768  -8.437  0.00  0.00    +0.022 C 
ATOM     17  C   UNL     1       2.599   4.362  -9.376  0.00  0.00    +0.019 C 
ATOM     18  C   UNL     1       2.694   5.343 -10.544  0.00  0.00    +0.072 C 
ATOM     19  N   UNL     1       2.856   6.641  -9.889  0.00  0.00    -0.271 NA
ATOM     20  C   UNL     1       4.225   6.874  -9.473  0.00  0.00    +0.072 C 
ATOM     21  C   UNL     1       4.809   5.515  -9.118  0.00  0.00    +0.019 C 
ATOM     22  C   UNL     1       2.005   6.537  -8.704  0.00  0.00    +0.092 C 
ENDBRANCH   3  15
TORSDOF 1
ENDMDL
