MODEL 1
REMARK VINA RESULT:      -8.9      0.000      0.000
REMARK  Name = 
REMARK  12 active torsions:
REMARK  status: ('A' for Active; 'I' for Inactive)
REMARK    1  A    between atoms: C_2  and  C_4
REMARK    2  A    between atoms: C_5  and  C_6
REMARK    3  A    between atoms: N_8  and  C_9
REMARK    4  A    between atoms: C_15  and  C_16
REMARK    5  A    between atoms: C_22  and  C_23
REMARK    6  A    between atoms: N_30  and  C_31
REMARK    7  A    between atoms: C_31  and  C_32
REMARK    8  A    between atoms: C_32  and  C_33
REMARK    9  A    between atoms: C_33  and  C_35
REMARK   10  A    between atoms: C_35  and  C_36
REMARK   11  A    between atoms: C_36  and  C_38
REMARK   12  A    between atoms: C_38  and  C_39
REMARK                            x       y       z     vdW  Elec       q    Type
REMARK                         _______ _______ _______ _____ _____    ______ ____
ROOT
ATOM      1  C   UNL     1       3.193   6.007  -3.931  0.00  0.00    +0.041 A 
ATOM      2  N   UNL     1       2.448   6.295  -2.835  0.00  0.00    -0.330 N 
ATOM      3  C   UNL     1       1.148   6.022  -3.113  0.00  0.00    +0.060 A 
ATOM      4  C   UNL     1       1.022   6.228  -4.482  0.00  0.00    +0.021 A 
ATOM      5  C   UNL     1       2.297   6.015  -4.992  0.00  0.00    +0.068 A 
ENDROOT
BRANCH   3   6
ATOM      6  C   UNL     1       0.026   5.890  -2.196  0.00  0.00    +0.016 A 
ATOM      7  C   UNL     1      -1.143   5.220  -2.542  0.00  0.00    +0.004 A 
ATOM      8  C   UNL     1      -2.299   5.456  -1.805  0.00  0.00    +0.030 A 
ATOM      9  C   UNL     1      -2.283   6.329  -0.724  0.00  0.00    +0.140 A 
ATOM     10  F   UNL     1      -3.331   7.163  -0.459  0.00  0.00    -0.204 F 
ATOM     11  C   UNL     1      -1.047   6.481  -0.106  0.00  0.00    +0.030 A 
ATOM     12  C   UNL     1       0.101   6.247  -0.855  0.00  0.00    +0.004 A 
ENDBRANCH   3   6
BRANCH   4  13
ATOM     13  C   UNL     1      -0.103   6.829  -5.211  0.00  0.00    +0.002 A 
ATOM     14  C   UNL     1      -0.785   7.942  -4.731  0.00  0.00    +0.000 A 
ATOM     15  C   UNL     1      -2.144   8.062  -4.734  0.00  0.00    +0.000 A 
ATOM     16  C   UNL     1      -2.907   7.119  -5.366  0.00  0.00    +0.000 A 
ATOM     17  C   UNL     1      -2.267   6.164  -6.108  0.00  0.00    +0.000 A 
ATOM     18  C   UNL     1      -0.917   5.997  -5.971  0.00  0.00    +0.000 A 
ENDBRANCH   4  13
BRANCH   1  20
ATOM     19  C   UNL     1       5.171   5.077  -4.188  0.00  0.00    +0.006 C 
ATOM     20  C   UNL     1       4.662   5.892  -4.019  0.00  0.00    +0.038 C 
ATOM     21  C   UNL     1       5.312   7.154  -4.572  0.00  0.00    +0.006 C 
ENDBRANCH   1  20
BRANCH   5  22
ATOM     22  C   UNL     1       2.516   5.405  -6.310  0.00  0.00    +0.270 C 
ATOM     23  N   UNL     1       3.120   6.084  -7.390  0.00  0.00    -0.175 NA
ATOM     24  O   UNL     1       2.642   4.142  -6.323  0.00  0.00    -0.268 OA
BRANCH  23  25
ATOM     25  C   UNL     1       3.918   5.487  -8.382  0.00  0.00    +0.074 A 
ATOM     26  C   UNL     1       3.456   5.445  -9.672  0.00  0.00    +0.017 A 
ATOM     27  C   UNL     1       4.357   5.416 -10.729  0.00  0.00    +0.001 A 
ATOM     28  C   UNL     1       5.719   5.565 -10.500  0.00  0.00    +0.000 A 
ATOM     29  C   UNL     1       6.162   5.457  -9.213  0.00  0.00    +0.001 A 
ATOM     30  C   UNL     1       5.259   5.262  -8.185  0.00  0.00    +0.017 A 
ENDBRANCH  23  25
ENDBRANCH   5  22
BRANCH   2  31
ATOM     31  C   UNL     1       2.984   6.614  -1.519  0.00  0.00    +0.108 C 
BRANCH  31  32
ATOM     32  C   UNL     1       3.386   8.082  -1.596  0.00  0.00    +0.057 C 
BRANCH  32  33
ATOM     33  C   UNL     1       4.348   8.306  -0.271  0.00  0.00    +0.156 C 
ATOM     34  O   UNL     1       5.191   7.091  -0.626  0.00  0.00    -0.223 OA
BRANCH  33  35
ATOM     35  C   UNL     1       3.339   7.410   0.681  0.00  0.00    +0.066 C 
BRANCH  35  36
ATOM     36  C   UNL     1       3.192   8.440   1.964  0.00  0.00    +0.166 C 
ATOM     37  O   UNL     1       3.196   7.292   2.963  0.00  0.00    -0.222 OA
BRANCH  36  38
ATOM     38  C   UNL     1       1.551   8.471   1.840  0.00  0.00    +0.147 C 
BRANCH  38  39
ATOM     39  C   UNL     1       1.141   9.637   1.103  0.00  0.00    +0.367 C 
ATOM     40  O   UNL     1       1.887  10.638   0.542  0.00  0.00    -0.246 OA
ATOM     41  O   UNL     1      -0.112   9.733   0.925  0.00  0.00    -0.246 OA
ENDBRANCH  38  39
ENDBRANCH  36  38
ENDBRANCH  35  36
ENDBRANCH  33  35
ENDBRANCH  32  33
ENDBRANCH  31  32
ENDBRANCH   2  31
TORSDOF 12
ENDMDL
MODEL 2
REMARK VINA RESULT:      -8.9      6.080     12.121
REMARK  Name = 
REMARK  12 active torsions:
REMARK  status: ('A' for Active; 'I' for Inactive)
REMARK    1  A    between atoms: C_2  and  C_4
REMARK    2  A    between atoms: C_5  and  C_6
REMARK    3  A    between atoms: N_8  and  C_9
REMARK    4  A    between atoms: C_15  and  C_16
REMARK    5  A    between atoms: C_22  and  C_23
REMARK    6  A    between atoms: N_30  and  C_31
REMARK    7  A    between atoms: C_31  and  C_32
REMARK    8  A    between atoms: C_32  and  C_33
REMARK    9  A    between atoms: C_33  and  C_35
REMARK   10  A    between atoms: C_35  and  C_36
REMARK   11  A    between atoms: C_36  and  C_38
REMARK   12  A    between atoms: C_38  and  C_39
REMARK                            x       y       z     vdW  Elec       q    Type
REMARK                         _______ _______ _______ _____ _____    ______ ____
ROOT
ATOM      1  C   UNL     1       1.581   5.616 -11.500  0.00  0.00    +0.041 A 
ATOM      2  N   UNL     1       2.218   5.940 -12.653  0.00  0.00    -0.330 N 
ATOM      3  C   UNL     1       3.552   5.774 -12.472  0.00  0.00    +0.060 A 
ATOM      4  C   UNL     1       3.763   6.016 -11.118  0.00  0.00    +0.021 A 
ATOM      5  C   UNL     1       2.551   5.714 -10.510  0.00  0.00    +0.068 A 
ENDROOT
BRANCH   3   6
ATOM      6  C   UNL     1       4.609   5.712 -13.468  0.00  0.00    +0.016 A 
ATOM      7  C   UNL     1       5.788   5.003 -13.261  0.00  0.00    +0.004 A 
ATOM      8  C   UNL     1       6.896   5.292 -14.050  0.00  0.00    +0.030 A 
ATOM      9  C   UNL     1       6.823   6.255 -15.049  0.00  0.00    +0.140 A 
ATOM     10  F   UNL     1       7.864   7.099 -15.309  0.00  0.00    -0.204 F 
ATOM     11  C   UNL     1       5.552   6.474 -15.567  0.00  0.00    +0.030 A 
ATOM     12  C   UNL     1       4.451   6.185 -14.766  0.00  0.00    +0.004 A 
ENDBRANCH   3   6
BRANCH   4  13
ATOM     13  C   UNL     1       4.889   6.715 -10.486  0.00  0.00    +0.002 A 
ATOM     14  C   UNL     1       5.471   7.844 -11.052  0.00  0.00    +0.000 A 
ATOM     15  C   UNL     1       6.818   8.045 -11.136  0.00  0.00    +0.000 A 
ATOM     16  C   UNL     1       7.674   7.179 -10.512  0.00  0.00    +0.000 A 
ATOM     17  C   UNL     1       7.138   6.223  -9.694  0.00  0.00    +0.000 A 
ATOM     18  C   UNL     1       5.796   5.970  -9.741  0.00  0.00    +0.000 A 
ENDBRANCH   4  13
BRANCH   1  20
ATOM     19  C   UNL     1      -0.299   4.532 -11.130  0.00  0.00    +0.006 C 
ATOM     20  C   UNL     1       0.137   5.389 -11.299  0.00  0.00    +0.038 C 
ATOM     21  C   UNL     1      -0.550   6.574 -10.632  0.00  0.00    +0.006 C 
ENDBRANCH   1  20
BRANCH   5  22
ATOM     22  C   UNL     1       2.480   5.114  -9.172  0.00  0.00    +0.270 C 
ATOM     23  N   UNL     1       2.044   5.817  -8.027  0.00  0.00    -0.175 NA
ATOM     24  O   UNL     1       2.309   3.857  -9.135  0.00  0.00    -0.268 OA
BRANCH  23  25
ATOM     25  C   UNL     1       1.358   5.251  -6.938  0.00  0.00    +0.074 A 
ATOM     26  C   UNL     1       2.034   5.035  -5.765  0.00  0.00    +0.017 A 
ATOM     27  C   UNL     1       1.345   5.039  -4.558  0.00  0.00    +0.001 A 
ATOM     28  C   UNL     1       0.003   5.392  -4.513  0.00  0.00    +0.000 A 
ATOM     29  C   UNL     1      -0.677   5.457  -5.696  0.00  0.00    +0.001 A 
ATOM     30  C   UNL     1      -0.015   5.230  -6.887  0.00  0.00    +0.017 A 
ENDBRANCH  23  25
ENDBRANCH   5  22
BRANCH   2  31
ATOM     31  C   UNL     1       1.560   6.192 -13.929  0.00  0.00    +0.108 C 
BRANCH  31  32
ATOM     32  C   UNL     1       1.025   7.615 -13.829  0.00  0.00    +0.057 C 
BRANCH  32  33
ATOM     33  C   UNL     1       0.202   7.834 -15.245  0.00  0.00    +0.156 C 
ATOM     34  O   UNL     1       0.719   6.516 -15.798  0.00  0.00    -0.223 OA
BRANCH  33  35
ATOM     35  C   UNL     1       1.456   8.680 -15.908  0.00  0.00    +0.066 C 
BRANCH  35  36
ATOM     36  C   UNL     1       0.612   9.927 -16.587  0.00  0.00    +0.166 C 
ATOM     37  O   UNL     1       1.721  10.210 -17.590  0.00  0.00    -0.222 OA
BRANCH  36  38
ATOM     38  C   UNL     1       1.184  11.006 -15.484  0.00  0.00    +0.147 C 
BRANCH  38  39
ATOM     39  C   UNL     1       0.277  12.119 -15.376  0.00  0.00    +0.367 C 
ATOM     40  O   UNL     1       0.229  13.136 -14.461  0.00  0.00    -0.246 OA
ATOM     41  O   UNL     1      -0.598  12.176 -16.294  0.00  0.00    -0.246 OA
ENDBRANCH  38  39
ENDBRANCH  36  38
ENDBRANCH  35  36
ENDBRANCH  33  35
ENDBRANCH  32  33
ENDBRANCH  31  32
ENDBRANCH   2  31
TORSDOF 12
ENDMDL
MODEL 3
REMARK VINA RESULT:      -8.7      5.362      9.843
REMARK  Name = 
REMARK  12 active torsions:
REMARK  status: ('A' for Active; 'I' for Inactive)
REMARK    1  A    between atoms: C_2  and  C_4
REMARK    2  A    between atoms: C_5  and  C_6
REMARK    3  A    between atoms: N_8  and  C_9
REMARK    4  A    between atoms: C_15  and  C_16
REMARK    5  A    between atoms: C_22  and  C_23
REMARK    6  A    between atoms: N_30  and  C_31
REMARK    7  A    between atoms: C_31  and  C_32
REMARK    8  A    between atoms: C_32  and  C_33
REMARK    9  A    between atoms: C_33  and  C_35
REMARK   10  A    between atoms: C_35  and  C_36
REMARK   11  A    between atoms: C_36  and  C_38
REMARK   12  A    between atoms: C_38  and  C_39
REMARK                            x       y       z     vdW  Elec       q    Type
REMARK                         _______ _______ _______ _____ _____    ______ ____
ROOT
ATOM      1  C   UNL     1       1.602   5.483 -11.584  0.00  0.00    +0.041 A 
ATOM      2  N   UNL     1       2.707   5.412 -10.800  0.00  0.00    -0.330 N 
ATOM      3  C   UNL     1       3.728   6.043 -11.434  0.00  0.00    +0.060 A 
ATOM      4  C   UNL     1       3.460   5.887 -12.789  0.00  0.00    +0.021 A 
ATOM      5  C   UNL     1       2.081   5.734 -12.864  0.00  0.00    +0.068 A 
ENDROOT
BRANCH   3   6
ATOM      6  C   UNL     1       5.005   6.482 -10.895  0.00  0.00    +0.016 A 
ATOM      7  C   UNL     1       5.530   7.744 -11.156  0.00  0.00    +0.004 A 
ATOM      8  C   UNL     1       6.888   7.965 -10.956  0.00  0.00    +0.030 A 
ATOM      9  C   UNL     1       7.707   6.949 -10.478  0.00  0.00    +0.140 A 
ATOM     10  F   UNL     1       8.982   6.780 -10.936  0.00  0.00    -0.204 F 
ATOM     11  C   UNL     1       7.063   5.977  -9.720  0.00  0.00    +0.030 A 
ATOM     12  C   UNL     1       5.706   5.763  -9.933  0.00  0.00    +0.004 A 
ENDBRANCH   3   6
BRANCH   4  13
ATOM     13  C   UNL     1       4.411   5.633 -13.880  0.00  0.00    +0.002 A 
ATOM     14  C   UNL     1       5.647   5.036 -13.659  0.00  0.00    +0.000 A 
ATOM     15  C   UNL     1       6.814   5.472 -14.214  0.00  0.00    +0.000 A 
ATOM     16  C   UNL     1       6.787   6.462 -15.158  0.00  0.00    +0.000 A 
ATOM     17  C   UNL     1       5.569   6.873 -15.625  0.00  0.00    +0.000 A 
ATOM     18  C   UNL     1       4.434   6.514 -14.955  0.00  0.00    +0.000 A 
ENDBRANCH   4  13
BRANCH   1  20
ATOM     19  C   UNL     1      -0.117   4.356 -10.797  0.00  0.00    +0.006 C 
ATOM     20  C   UNL     1       0.208   5.179 -11.208  0.00  0.00    +0.038 C 
ATOM     21  C   UNL     1      -0.567   6.424 -10.793  0.00  0.00    +0.006 C 
ENDBRANCH   1  20
BRANCH   5  22
ATOM     22  C   UNL     1       1.299   6.263 -13.988  0.00  0.00    +0.270 C 
ATOM     23  N   UNL     1       1.230   7.636 -14.310  0.00  0.00    -0.175 NA
ATOM     24  O   UNL     1       1.115   5.468 -14.960  0.00  0.00    -0.268 OA
BRANCH  23  25
ATOM     25  C   UNL     1       1.089   8.162 -15.606  0.00  0.00    +0.074 A 
ATOM     26  C   UNL     1       2.214   8.488 -16.319  0.00  0.00    +0.017 A 
ATOM     27  C   UNL     1       2.187   8.451 -17.708  0.00  0.00    +0.001 A 
ATOM     28  C   UNL     1       1.076   7.960 -18.380  0.00  0.00    +0.000 A 
ATOM     29  C   UNL     1      -0.073   7.783 -17.664  0.00  0.00    +0.001 A 
ATOM     30  C   UNL     1      -0.087   8.039 -16.306  0.00  0.00    +0.017 A 
ENDBRANCH  23  25
ENDBRANCH   5  22
BRANCH   2  31
ATOM     31  C   UNL     1       2.724   4.948  -9.419  0.00  0.00    +0.108 C 
BRANCH  31  32
ATOM     32  C   UNL     1       2.363   6.168  -8.581  0.00  0.00    +0.057 C 
BRANCH  32  33
ATOM     33  C   UNL     1       2.116   5.557  -7.066  0.00  0.00    +0.156 C 
ATOM     34  O   UNL     1       2.373   4.139  -7.552  0.00  0.00    -0.223 OA
BRANCH  33  35
ATOM     35  C   UNL     1       0.491   5.422  -7.325  0.00  0.00    +0.066 C 
BRANCH  35  36
ATOM     36  C   UNL     1      -0.062   6.167  -5.959  0.00  0.00    +0.166 C 
ATOM     37  O   UNL     1       0.320   4.981  -5.085  0.00  0.00    -0.222 OA
BRANCH  36  38
ATOM     38  C   UNL     1      -1.598   5.630  -6.205  0.00  0.00    +0.147 C 
BRANCH  38  39
ATOM     39  C   UNL     1      -2.441   6.051  -5.116  0.00  0.00    +0.367 C 
ATOM     40  O   UNL     1      -2.953   5.337  -4.066  0.00  0.00    -0.246 OA
ATOM     41  O   UNL     1      -2.730   7.287  -5.120  0.00  0.00    -0.246 OA
ENDBRANCH  38  39
ENDBRANCH  36  38
ENDBRANCH  35  36
ENDBRANCH  33  35
ENDBRANCH  32  33
ENDBRANCH  31  32
ENDBRANCH   2  31
TORSDOF 12
ENDMDL
MODEL 4
REMARK VINA RESULT:      -8.5      5.106      9.826
REMARK  Name = 
REMARK  12 active torsions:
REMARK  status: ('A' for Active; 'I' for Inactive)
REMARK    1  A    between atoms: C_2  and  C_4
REMARK    2  A    between atoms: C_5  and  C_6
REMARK    3  A    between atoms: N_8  and  C_9
REMARK    4  A    between atoms: C_15  and  C_16
REMARK    5  A    between atoms: C_22  and  C_23
REMARK    6  A    between atoms: N_30  and  C_31
REMARK    7  A    between atoms: C_31  and  C_32
REMARK    8  A    between atoms: C_32  and  C_33
REMARK    9  A    between atoms: C_33  and  C_35
REMARK   10  A    between atoms: C_35  and  C_36
REMARK   11  A    between atoms: C_36  and  C_38
REMARK   12  A    between atoms: C_38  and  C_39
REMARK                            x       y       z     vdW  Elec       q    Type
REMARK                         _______ _______ _______ _____ _____    ______ ____
ROOT
ATOM      1  C   UNL     1       1.506   5.740 -11.811  0.00  0.00    +0.041 A 
ATOM      2  N   UNL     1       2.566   5.589 -10.979  0.00  0.00    -0.330 N 
ATOM      3  C   UNL     1       3.654   6.159 -11.556  0.00  0.00    +0.060 A 
ATOM      4  C   UNL     1       3.440   6.036 -12.925  0.00  0.00    +0.021 A 
ATOM      5  C   UNL     1       2.059   5.973 -13.064  0.00  0.00    +0.068 A 
ENDROOT
BRANCH   3   6
ATOM      6  C   UNL     1       4.931   6.508 -10.954  0.00  0.00    +0.016 A 
ATOM      7  C   UNL     1       5.504   7.767 -11.101  0.00  0.00    +0.004 A 
ATOM      8  C   UNL     1       6.863   7.923 -10.852  0.00  0.00    +0.030 A 
ATOM      9  C   UNL     1       7.635   6.844 -10.436  0.00  0.00    +0.140 A 
ATOM     10  F   UNL     1       8.915   6.666 -10.876  0.00  0.00    -0.204 F 
ATOM     11  C   UNL     1       6.938   5.840  -9.774  0.00  0.00    +0.030 A 
ATOM     12  C   UNL     1       5.580   5.692 -10.035  0.00  0.00    +0.004 A 
ENDBRANCH   3   6
BRANCH   4  13
ATOM     13  C   UNL     1       4.422   5.732 -13.974  0.00  0.00    +0.002 A 
ATOM     14  C   UNL     1       5.618   5.079 -13.701  0.00  0.00    +0.000 A 
ATOM     15  C   UNL     1       6.826   5.459 -14.208  0.00  0.00    +0.000 A 
ATOM     16  C   UNL     1       6.885   6.444 -15.155  0.00  0.00    +0.000 A 
ATOM     17  C   UNL     1       5.708   6.909 -15.673  0.00  0.00    +0.000 A 
ATOM     18  C   UNL     1       4.530   6.606 -15.050  0.00  0.00    +0.000 A 
ENDBRANCH   4  13
BRANCH   1  20
ATOM     19  C   UNL     1      -0.314   4.725 -11.102  0.00  0.00    +0.006 C 
ATOM     20  C   UNL     1       0.079   5.522 -11.503  0.00  0.00    +0.038 C 
ATOM     21  C   UNL     1      -0.640   6.816 -11.140  0.00  0.00    +0.006 C 
ENDBRANCH   1  20
BRANCH   5  22
ATOM     22  C   UNL     1       1.365   6.564 -14.215  0.00  0.00    +0.270 C 
ATOM     23  N   UNL     1       1.408   7.940 -14.526  0.00  0.00    -0.175 NA
ATOM     24  O   UNL     1       1.168   5.790 -15.202  0.00  0.00    -0.268 OA
BRANCH  23  25
ATOM     25  C   UNL     1       1.360   8.483 -15.822  0.00  0.00    +0.074 A 
ATOM     26  C   UNL     1       0.140   8.697 -16.410  0.00  0.00    +0.017 A 
ATOM     27  C   UNL     1      -0.003   9.699 -17.362  0.00  0.00    +0.001 A 
ATOM     28  C   UNL     1       1.042  10.574 -17.628  0.00  0.00    +0.000 A 
ATOM     29  C   UNL     1       2.279  10.253 -17.146  0.00  0.00    +0.001 A 
ATOM     30  C   UNL     1       2.446   9.118 -16.375  0.00  0.00    +0.017 A 
ENDBRANCH  23  25
ENDBRANCH   5  22
BRANCH   2  31
ATOM     31  C   UNL     1       2.490   5.109  -9.605  0.00  0.00    +0.108 C 
BRANCH  31  32
ATOM     32  C   UNL     1       2.148   6.337  -8.770  0.00  0.00    +0.057 C 
BRANCH  32  33
ATOM     33  C   UNL     1       3.207   6.270  -7.504  0.00  0.00    +0.156 C 
ATOM     34  O   UNL     1       3.269   4.753  -7.583  0.00  0.00    -0.223 OA
BRANCH  33  35
ATOM     35  C   UNL     1       1.976   6.229  -6.404  0.00  0.00    +0.066 C 
BRANCH  35  36
ATOM     36  C   UNL     1       2.243   4.734  -5.755  0.00  0.00    +0.166 C 
ATOM     37  O   UNL     1       0.756   4.500  -5.531  0.00  0.00    -0.222 OA
BRANCH  36  38
ATOM     38  C   UNL     1       2.484   5.353  -4.250  0.00  0.00    +0.147 C 
BRANCH  38  39
ATOM     39  C   UNL     1       3.817   5.044  -3.804  0.00  0.00    +0.367 C 
ATOM     40  O   UNL     1       4.935   4.707  -4.520  0.00  0.00    -0.246 OA
ATOM     41  O   UNL     1       3.985   5.124  -2.548  0.00  0.00    -0.246 OA
ENDBRANCH  38  39
ENDBRANCH  36  38
ENDBRANCH  35  36
ENDBRANCH  33  35
ENDBRANCH  32  33
ENDBRANCH  31  32
ENDBRANCH   2  31
TORSDOF 12
ENDMDL
MODEL 5
REMARK VINA RESULT:      -8.3      1.624      2.020
REMARK  Name = 
REMARK  12 active torsions:
REMARK  status: ('A' for Active; 'I' for Inactive)
REMARK    1  A    between atoms: C_2  and  C_4
REMARK    2  A    between atoms: C_5  and  C_6
REMARK    3  A    between atoms: N_8  and  C_9
REMARK    4  A    between atoms: C_15  and  C_16
REMARK    5  A    between atoms: C_22  and  C_23
REMARK    6  A    between atoms: N_30  and  C_31
REMARK    7  A    between atoms: C_31  and  C_32
REMARK    8  A    between atoms: C_32  and  C_33
REMARK    9  A    between atoms: C_33  and  C_35
REMARK   10  A    between atoms: C_35  and  C_36
REMARK   11  A    between atoms: C_36  and  C_38
REMARK   12  A    between atoms: C_38  and  C_39
REMARK                            x       y       z     vdW  Elec       q    Type
REMARK                         _______ _______ _______ _____ _____    ______ ____
ROOT
ATOM      1  C   UNL     1       3.158   6.102  -3.974  0.00  0.00    +0.041 A 
ATOM      2  N   UNL     1       2.396   6.382  -2.889  0.00  0.00    -0.330 N 
ATOM      3  C   UNL     1       1.105   6.078  -3.176  0.00  0.00    +0.060 A 
ATOM      4  C   UNL     1       0.988   6.270  -4.549  0.00  0.00    +0.021 A 
ATOM      5  C   UNL     1       2.272   6.081  -5.044  0.00  0.00    +0.068 A 
ENDROOT
BRANCH   3   6
ATOM      6  C   UNL     1      -0.023   5.929  -2.270  0.00  0.00    +0.016 A 
ATOM      7  C   UNL     1      -1.143   5.170  -2.593  0.00  0.00    +0.004 A 
ATOM      8  C   UNL     1      -2.323   5.375  -1.887  0.00  0.00    +0.030 A 
ATOM      9  C   UNL     1      -2.379   6.306  -0.856  0.00  0.00    +0.140 A 
ATOM     10  F   UNL     1      -3.480   7.087  -0.655  0.00  0.00    -0.204 F 
ATOM     11  C   UNL     1      -1.166   6.569  -0.232  0.00  0.00    +0.030 A 
ATOM     12  C   UNL     1       0.008   6.364  -0.950  0.00  0.00    +0.004 A 
ENDBRANCH   3   6
BRANCH   4  13
ATOM     13  C   UNL     1      -0.143   6.838  -5.293  0.00  0.00    +0.002 A 
ATOM     14  C   UNL     1      -0.870   7.924  -4.818  0.00  0.00    +0.000 A 
ATOM     15  C   UNL     1      -2.232   7.999  -4.845  0.00  0.00    +0.000 A 
ATOM     16  C   UNL     1      -2.952   7.036  -5.498  0.00  0.00    +0.000 A 
ATOM     17  C   UNL     1      -2.267   6.109  -6.235  0.00  0.00    +0.000 A 
ATOM     18  C   UNL     1      -0.915   5.986  -6.074  0.00  0.00    +0.000 A 
ENDBRANCH   4  13
BRANCH   1  20
ATOM     19  C   UNL     1       5.157   5.225  -4.254  0.00  0.00    +0.006 C 
ATOM     20  C   UNL     1       4.630   6.019  -4.047  0.00  0.00    +0.038 C 
ATOM     21  C   UNL     1       5.262   7.322  -4.520  0.00  0.00    +0.006 C 
ENDBRANCH   1  20
BRANCH   5  22
ATOM     22  C   UNL     1       2.518   5.465  -6.354  0.00  0.00    +0.270 C 
ATOM     23  N   UNL     1       3.143   6.139  -7.425  0.00  0.00    -0.175 NA
ATOM     24  O   UNL     1       2.646   4.202  -6.359  0.00  0.00    -0.268 OA
BRANCH  23  25
ATOM     25  C   UNL     1       3.961   5.538  -8.399  0.00  0.00    +0.074 A 
ATOM     26  C   UNL     1       3.497   5.430  -9.684  0.00  0.00    +0.017 A 
ATOM     27  C   UNL     1       4.396   5.398 -10.743  0.00  0.00    +0.001 A 
ATOM     28  C   UNL     1       5.751   5.609 -10.526  0.00  0.00    +0.000 A 
ATOM     29  C   UNL     1       6.202   5.566  -9.238  0.00  0.00    +0.001 A 
ATOM     30  C   UNL     1       5.311   5.374  -8.200  0.00  0.00    +0.017 A 
ENDBRANCH  23  25
ENDBRANCH   5  22
BRANCH   2  31
ATOM     31  C   UNL     1       2.912   6.725  -1.570  0.00  0.00    +0.108 C 
BRANCH  31  32
ATOM     32  C   UNL     1       3.253   8.208  -1.647  0.00  0.00    +0.057 C 
BRANCH  32  33
ATOM     33  C   UNL     1       3.964   8.533  -0.191  0.00  0.00    +0.156 C 
ATOM     34  O   UNL     1       2.910   7.726   0.550  0.00  0.00    -0.223 OA
BRANCH  33  35
ATOM     35  C   UNL     1       3.106   9.934  -0.022  0.00  0.00    +0.066 C 
BRANCH  35  36
ATOM     36  C   UNL     1       4.254  10.868   0.710  0.00  0.00    +0.166 C 
ATOM     37  O   UNL     1       3.261  11.389   1.739  0.00  0.00    -0.222 OA
BRANCH  36  38
ATOM     38  C   UNL     1       4.000  12.118  -0.329  0.00  0.00    +0.147 C 
BRANCH  38  39
ATOM     39  C   UNL     1       4.984  13.145  -0.106  0.00  0.00    +0.367 C 
ATOM     40  O   UNL     1       5.481  13.656   1.063  0.00  0.00    -0.246 OA
ATOM     41  O   UNL     1       5.487  13.631  -1.165  0.00  0.00    -0.246 OA
ENDBRANCH  38  39
ENDBRANCH  36  38
ENDBRANCH  35  36
ENDBRANCH  33  35
ENDBRANCH  32  33
ENDBRANCH  31  32
ENDBRANCH   2  31
TORSDOF 12
ENDMDL
MODEL 6
REMARK VINA RESULT:      -8.2      3.178      8.495
REMARK  Name = 
REMARK  12 active torsions:
REMARK  status: ('A' for Active; 'I' for Inactive)
REMARK    1  A    between atoms: C_2  and  C_4
REMARK    2  A    between atoms: C_5  and  C_6
REMARK    3  A    between atoms: N_8  and  C_9
REMARK    4  A    between atoms: C_15  and  C_16
REMARK    5  A    between atoms: C_22  and  C_23
REMARK    6  A    between atoms: N_30  and  C_31
REMARK    7  A    between atoms: C_31  and  C_32
REMARK    8  A    between atoms: C_32  and  C_33
REMARK    9  A    between atoms: C_33  and  C_35
REMARK   10  A    between atoms: C_35  and  C_36
REMARK   11  A    between atoms: C_36  and  C_38
REMARK   12  A    between atoms: C_38  and  C_39
REMARK                            x       y       z     vdW  Elec       q    Type
REMARK                         _______ _______ _______ _____ _____    ______ ____
ROOT
ATOM      1  C   UNL     1       3.360   5.673  -4.658  0.00  0.00    +0.041 A 
ATOM      2  N   UNL     1       2.934   5.320  -5.896  0.00  0.00    -0.330 N 
ATOM      3  C   UNL     1       1.795   6.002  -6.173  0.00  0.00    +0.060 A 
ATOM      4  C   UNL     1       1.192   6.210  -4.937  0.00  0.00    +0.021 A 
ATOM      5  C   UNL     1       2.239   6.194  -4.024  0.00  0.00    +0.068 A 
ENDROOT
BRANCH   3   6
ATOM      6  C   UNL     1       1.128   6.187  -7.452  0.00  0.00    +0.016 A 
ATOM      7  C   UNL     1      -0.063   5.543  -7.772  0.00  0.00    +0.004 A 
ATOM      8  C   UNL     1      -0.439   5.444  -9.107  0.00  0.00    +0.030 A 
ATOM      9  C   UNL     1       0.348   6.001 -10.107  0.00  0.00    +0.140 A 
ATOM     10  F   UNL     1       0.524   5.380 -11.311  0.00  0.00    -0.204 F 
ATOM     11  C   UNL     1       1.142   7.070  -9.709  0.00  0.00    +0.030 A 
ATOM     12  C   UNL     1       1.515   7.156  -8.372  0.00  0.00    +0.004 A 
ENDBRANCH   3   6
BRANCH   4  13
ATOM     13  C   UNL     1      -0.238   6.158  -4.604  0.00  0.00    +0.002 A 
ATOM     14  C   UNL     1      -1.077   7.253  -4.772  0.00  0.00    +0.000 A 
ATOM     15  C   UNL     1      -1.999   7.655  -3.850  0.00  0.00    +0.000 A 
ATOM     16  C   UNL     1      -2.240   6.880  -2.749  0.00  0.00    +0.000 A 
ATOM     17  C   UNL     1      -1.653   5.646  -2.690  0.00  0.00    +0.000 A 
ATOM     18  C   UNL     1      -0.642   5.338  -3.556  0.00  0.00    +0.000 A 
ENDBRANCH   4  13
BRANCH   1  20
ATOM     19  C   UNL     1       5.126   4.538  -3.998  0.00  0.00    +0.006 C 
ATOM     20  C   UNL     1       4.673   5.401  -4.043  0.00  0.00    +0.038 C 
ATOM     21  C   UNL     1       5.620   6.591  -4.143  0.00  0.00    +0.006 C 
ENDBRANCH   1  20
BRANCH   5  22
ATOM     22  C   UNL     1       2.243   7.048  -2.830  0.00  0.00    +0.270 C 
ATOM     23  N   UNL     1       2.026   6.560  -1.524  0.00  0.00    -0.175 NA
ATOM     24  O   UNL     1       2.944   8.104  -2.905  0.00  0.00    -0.268 OA
BRANCH  23  25
ATOM     25  C   UNL     1       2.604   7.081  -0.353  0.00  0.00    +0.074 A 
ATOM     26  C   UNL     1       3.921   6.809  -0.082  0.00  0.00    +0.017 A 
ATOM     27  C   UNL     1       4.670   7.702   0.675  0.00  0.00    +0.001 A 
ATOM     28  C   UNL     1       4.140   8.930   1.047  0.00  0.00    +0.000 A 
ATOM     29  C   UNL     1       2.795   9.113   0.897  0.00  0.00    +0.001 A 
ATOM     30  C   UNL     1       2.020   8.115   0.338  0.00  0.00    +0.017 A 
ENDBRANCH  23  25
ENDBRANCH   5  22
BRANCH   2  31
ATOM     31  C   UNL     1       3.700   4.526  -6.849  0.00  0.00    +0.108 C 
BRANCH  31  32
ATOM     32  C   UNL     1       4.733   5.485  -7.429  0.00  0.00    +0.057 C 
BRANCH  32  33
ATOM     33  C   UNL     1       4.386   5.519  -9.045  0.00  0.00    +0.156 C 
ATOM     34  O   UNL     1       4.144   4.018  -9.066  0.00  0.00    -0.223 OA
BRANCH  33  35
ATOM     35  C   UNL     1       5.977   5.335  -9.446  0.00  0.00    +0.066 C 
BRANCH  35  36
ATOM     36  C   UNL     1       6.146   6.617 -10.474  0.00  0.00    +0.166 C 
ATOM     37  O   UNL     1       4.641   6.833 -10.548  0.00  0.00    -0.222 OA
BRANCH  36  38
ATOM     38  C   UNL     1       6.181   5.640 -11.798  0.00  0.00    +0.147 C 
BRANCH  38  39
ATOM     39  C   UNL     1       7.544   5.415 -12.202  0.00  0.00    +0.367 C 
ATOM     40  O   UNL     1       8.715   5.884 -11.668  0.00  0.00    -0.246 OA
ATOM     41  O   UNL     1       7.678   4.635 -13.194  0.00  0.00    -0.246 OA
ENDBRANCH  38  39
ENDBRANCH  36  38
ENDBRANCH  35  36
ENDBRANCH  33  35
ENDBRANCH  32  33
ENDBRANCH  31  32
ENDBRANCH   2  31
TORSDOF 12
ENDMDL
MODEL 7
REMARK VINA RESULT:      -8.2      3.675      9.697
REMARK  Name = 
REMARK  12 active torsions:
REMARK  status: ('A' for Active; 'I' for Inactive)
REMARK    1  A    between atoms: C_2  and  C_4
REMARK    2  A    between atoms: C_5  and  C_6
REMARK    3  A    between atoms: N_8  and  C_9
REMARK    4  A    between atoms: C_15  and  C_16
REMARK    5  A    between atoms: C_22  and  C_23
REMARK    6  A    between atoms: N_30  and  C_31
REMARK    7  A    between atoms: C_31  and  C_32
REMARK    8  A    between atoms: C_32  and  C_33
REMARK    9  A    between atoms: C_33  and  C_35
REMARK   10  A    between atoms: C_35  and  C_36
REMARK   11  A    between atoms: C_36  and  C_38
REMARK   12  A    between atoms: C_38  and  C_39
REMARK                            x       y       z     vdW  Elec       q    Type
REMARK                         _______ _______ _______ _____ _____    ______ ____
ROOT
ATOM      1  C   UNL     1       0.043   6.413  -5.467  0.00  0.00    +0.041 A 
ATOM      2  N   UNL     1       0.860   6.393  -6.550  0.00  0.00    -0.330 N 
ATOM      3  C   UNL     1       2.013   5.764  -6.211  0.00  0.00    +0.060 A 
ATOM      4  C   UNL     1       2.171   6.013  -4.852  0.00  0.00    +0.021 A 
ATOM      5  C   UNL     1       0.883   6.223  -4.377  0.00  0.00    +0.068 A 
ENDROOT
BRANCH   3   6
ATOM      6  C   UNL     1       3.060   5.245  -7.077  0.00  0.00    +0.016 A 
ATOM      7  C   UNL     1       4.378   5.682  -6.998  0.00  0.00    +0.004 A 
ATOM      8  C   UNL     1       5.230   5.457  -8.073  0.00  0.00    +0.030 A 
ATOM      9  C   UNL     1       4.781   4.781  -9.202  0.00  0.00    +0.140 A 
ATOM     10  F   UNL     1       5.172   5.146 -10.458  0.00  0.00    -0.204 F 
ATOM     11  C   UNL     1       3.722   3.907  -8.985  0.00  0.00    +0.030 A 
ATOM     12  C   UNL     1       2.875   4.146  -7.908  0.00  0.00    +0.004 A 
ENDBRANCH   3   6
BRANCH   4  13
ATOM     13  C   UNL     1       3.412   6.297  -4.119  0.00  0.00    +0.002 A 
ATOM     14  C   UNL     1       3.956   5.398  -3.208  0.00  0.00    +0.000 A 
ATOM     15  C   UNL     1       4.445   5.754  -1.985  0.00  0.00    +0.000 A 
ATOM     16  C   UNL     1       4.554   7.077  -1.657  0.00  0.00    +0.000 A 
ATOM     17  C   UNL     1       4.311   8.004  -2.633  0.00  0.00    +0.000 A 
ATOM     18  C   UNL     1       3.699   7.618  -3.793  0.00  0.00    +0.000 A 
ENDBRANCH   4  13
BRANCH   1  20
ATOM     19  C   UNL     1      -2.136   6.115  -5.402  0.00  0.00    +0.006 C 
ATOM     20  C   UNL     1      -1.393   6.747  -5.426  0.00  0.00    +0.038 C 
ATOM     21  C   UNL     1      -1.666   8.049  -4.684  0.00  0.00    +0.006 C 
ENDBRANCH   1  20
BRANCH   5  22
ATOM     22  C   UNL     1       0.468   5.794  -3.035  0.00  0.00    +0.270 C 
ATOM     23  N   UNL     1       0.549   6.621  -1.894  0.00  0.00    -0.175 NA
ATOM     24  O   UNL     1      -0.427   4.895  -2.991  0.00  0.00    -0.268 OA
BRANCH  23  25
ATOM     25  C   UNL     1      -0.336   6.590  -0.802  0.00  0.00    +0.074 A 
ATOM     26  C   UNL     1       0.172   6.678   0.469  0.00  0.00    +0.017 A 
ATOM     27  C   UNL     1      -0.606   7.213   1.489  0.00  0.00    +0.001 A 
ATOM     28  C   UNL     1      -1.841   7.782   1.210  0.00  0.00    +0.000 A 
ATOM     29  C   UNL     1      -2.384   7.552  -0.022  0.00  0.00    +0.001 A 
ATOM     30  C   UNL     1      -1.681   6.820  -0.961  0.00  0.00    +0.017 A 
ENDBRANCH  23  25
ENDBRANCH   5  22
BRANCH   2  31
ATOM     31  C   UNL     1       0.467   6.772  -7.901  0.00  0.00    +0.108 C 
BRANCH  31  32
ATOM     32  C   UNL     1      -0.089   5.498  -8.528  0.00  0.00    +0.057 C 
BRANCH  32  33
ATOM     33  C   UNL     1      -0.309   5.896 -10.117  0.00  0.00    +0.156 C 
ATOM     34  O   UNL     1       0.048   4.486 -10.561  0.00  0.00    -0.223 OA
BRANCH  33  35
ATOM     35  C   UNL     1       1.254   6.408 -10.262  0.00  0.00    +0.066 C 
BRANCH  35  36
ATOM     36  C   UNL     1       1.590   5.827 -11.771  0.00  0.00    +0.166 C 
ATOM     37  O   UNL     1       2.901   6.596 -11.841  0.00  0.00    -0.222 OA
BRANCH  36  38
ATOM     38  C   UNL     1       0.724   7.023 -12.500  0.00  0.00    +0.147 C 
BRANCH  38  39
ATOM     39  C   UNL     1       0.941   6.983 -13.922  0.00  0.00    +0.367 C 
ATOM     40  O   UNL     1       1.260   5.933 -14.741  0.00  0.00    -0.246 OA
ATOM     41  O   UNL     1       0.782   8.097 -14.510  0.00  0.00    -0.246 OA
ENDBRANCH  38  39
ENDBRANCH  36  38
ENDBRANCH  35  36
ENDBRANCH  33  35
ENDBRANCH  32  33
ENDBRANCH  31  32
ENDBRANCH   2  31
TORSDOF 12
ENDMDL
MODEL 8
REMARK VINA RESULT:      -7.9      3.351      8.785
REMARK  Name = 
REMARK  12 active torsions:
REMARK  status: ('A' for Active; 'I' for Inactive)
REMARK    1  A    between atoms: C_2  and  C_4
REMARK    2  A    between atoms: C_5  and  C_6
REMARK    3  A    between atoms: N_8  and  C_9
REMARK    4  A    between atoms: C_15  and  C_16
REMARK    5  A    between atoms: C_22  and  C_23
REMARK    6  A    between atoms: N_30  and  C_31
REMARK    7  A    between atoms: C_31  and  C_32
REMARK    8  A    between atoms: C_32  and  C_33
REMARK    9  A    between atoms: C_33  and  C_35
REMARK   10  A    between atoms: C_35  and  C_36
REMARK   11  A    between atoms: C_36  and  C_38
REMARK   12  A    between atoms: C_38  and  C_39
REMARK                            x       y       z     vdW  Elec       q    Type
REMARK                         _______ _______ _______ _____ _____    ______ ____
ROOT
ATOM      1  C   UNL     1       3.716   5.588  -5.680  0.00  0.00    +0.041 A 
ATOM      2  N   UNL     1       3.528   5.201  -6.967  0.00  0.00    -0.330 N 
ATOM      3  C   UNL     1       2.285   5.583  -7.356  0.00  0.00    +0.060 A 
ATOM      4  C   UNL     1       1.524   5.567  -6.192  0.00  0.00    +0.021 A 
ATOM      5  C   UNL     1       2.439   5.772  -5.167  0.00  0.00    +0.068 A 
ENDROOT
BRANCH   3   6
ATOM      6  C   UNL     1       1.730   5.657  -8.698  0.00  0.00    +0.016 A 
ATOM      7  C   UNL     1       1.466   6.869  -9.329  0.00  0.00    +0.004 A 
ATOM      8  C   UNL     1       0.596   6.889 -10.414  0.00  0.00    +0.030 A 
ATOM      9  C   UNL     1       0.018   5.714 -10.879  0.00  0.00    +0.140 A 
ATOM     10  F   UNL     1      -1.273   5.676 -11.321  0.00  0.00    -0.204 F 
ATOM     11  C   UNL     1       0.739   4.555 -10.614  0.00  0.00    +0.030 A 
ATOM     12  C   UNL     1       1.602   4.547  -9.524  0.00  0.00    +0.004 A 
ENDBRANCH   3   6
BRANCH   4  13
ATOM     13  C   UNL     1       0.131   5.135  -6.024  0.00  0.00    +0.002 A 
ATOM     14  C   UNL     1      -0.782   5.157  -7.073  0.00  0.00    +0.000 A 
ATOM     15  C   UNL     1      -2.062   5.616  -6.959  0.00  0.00    +0.000 A 
ATOM     16  C   UNL     1      -2.557   5.948  -5.728  0.00  0.00    +0.000 A 
ATOM     17  C   UNL     1      -1.794   5.661  -4.629  0.00  0.00    +0.000 A 
ATOM     18  C   UNL     1      -0.478   5.331  -4.789  0.00  0.00    +0.000 A 
ENDBRANCH   4  13
BRANCH   1  20
ATOM     19  C   UNL     1       5.457   6.427  -4.628  0.00  0.00    +0.006 C 
ATOM     20  C   UNL     1       4.984   5.628  -4.927  0.00  0.00    +0.038 C 
ATOM     21  C   UNL     1       5.146   4.431  -3.997  0.00  0.00    +0.006 C 
ENDBRANCH   1  20
BRANCH   5  22
ATOM     22  C   UNL     1       2.097   6.537  -3.961  0.00  0.00    +0.270 C 
ATOM     23  N   UNL     1       2.445   6.127  -2.655  0.00  0.00    -0.175 NA
ATOM     24  O   UNL     1       1.960   7.789  -4.117  0.00  0.00    -0.268 OA
BRANCH  23  25
ATOM     25  C   UNL     1       2.747   6.987  -1.585  0.00  0.00    +0.074 A 
ATOM     26  C   UNL     1       1.841   7.125  -0.565  0.00  0.00    +0.017 A 
ATOM     27  C   UNL     1       2.280   7.460   0.710  0.00  0.00    +0.001 A 
ATOM     28  C   UNL     1       3.638   7.525   0.994  0.00  0.00    +0.000 A 
ATOM     29  C   UNL     1       4.508   7.531  -0.058  0.00  0.00    +0.001 A 
ATOM     30  C   UNL     1       4.030   7.418  -1.350  0.00  0.00    +0.017 A 
ENDBRANCH  23  25
ENDBRANCH   5  22
BRANCH   2  31
ATOM     31  C   UNL     1       4.568   4.680  -7.844  0.00  0.00    +0.108 C 
BRANCH  31  32
ATOM     32  C   UNL     1       5.238   5.909  -8.445  0.00  0.00    +0.057 C 
BRANCH  32  33
ATOM     33  C   UNL     1       5.947   5.345  -9.827  0.00  0.00    +0.156 C 
ATOM     34  O   UNL     1       7.270   5.999  -9.465  0.00  0.00    -0.223 OA
BRANCH  33  35
ATOM     35  C   UNL     1       5.452   6.666 -10.686  0.00  0.00    +0.066 C 
BRANCH  35  36
ATOM     36  C   UNL     1       6.892   7.097 -11.371  0.00  0.00    +0.166 C 
ATOM     37  O   UNL     1       6.516   8.571 -11.379  0.00  0.00    -0.222 OA
BRANCH  36  38
ATOM     38  C   UNL     1       6.326   6.832 -12.894  0.00  0.00    +0.147 C 
BRANCH  38  39
ATOM     39  C   UNL     1       6.300   5.419 -13.165  0.00  0.00    +0.367 C 
ATOM     40  O   UNL     1       5.252   4.597 -13.485  0.00  0.00    -0.246 OA
ATOM     41  O   UNL     1       7.437   4.855 -13.129  0.00  0.00    -0.246 OA
ENDBRANCH  38  39
ENDBRANCH  36  38
ENDBRANCH  35  36
ENDBRANCH  33  35
ENDBRANCH  32  33
ENDBRANCH  31  32
ENDBRANCH   2  31
TORSDOF 12
ENDMDL
MODEL 9
REMARK VINA RESULT:      -7.5      1.694      2.686
REMARK  Name = 
REMARK  12 active torsions:
REMARK  status: ('A' for Active; 'I' for Inactive)
REMARK    1  A    between atoms: C_2  and  C_4
REMARK    2  A    between atoms: C_5  and  C_6
REMARK    3  A    between atoms: N_8  and  C_9
REMARK    4  A    between atoms: C_15  and  C_16
REMARK    5  A    between atoms: C_22  and  C_23
REMARK    6  A    between atoms: N_30  and  C_31
REMARK    7  A    between atoms: C_31  and  C_32
REMARK    8  A    between atoms: C_32  and  C_33
REMARK    9  A    between atoms: C_33  and  C_35
REMARK   10  A    between atoms: C_35  and  C_36
REMARK   11  A    between atoms: C_36  and  C_38
REMARK   12  A    between atoms: C_38  and  C_39
REMARK                            x       y       z     vdW  Elec       q    Type
REMARK                         _______ _______ _______ _____ _____    ______ ____
ROOT
ATOM      1  C   UNL     1       3.666   6.606  -4.942  0.00  0.00    +0.041 A 
ATOM      2  N   UNL     1       2.572   7.013  -4.251  0.00  0.00    -0.330 N 
ATOM      3  C   UNL     1       1.467   6.497  -4.846  0.00  0.00    +0.060 A 
ATOM      4  C   UNL     1       1.806   6.377  -6.190  0.00  0.00    +0.021 A 
ATOM      5  C   UNL     1       3.189   6.248  -6.197  0.00  0.00    +0.068 A 
ENDROOT
BRANCH   3   6
ATOM      6  C   UNL     1       0.110   6.405  -4.331  0.00  0.00    +0.016 A 
ATOM      7  C   UNL     1      -0.865   7.350  -4.629  0.00  0.00    +0.004 A 
ATOM      8  C   UNL     1      -1.994   7.433  -3.821  0.00  0.00    +0.030 A 
ATOM      9  C   UNL     1      -2.159   6.569  -2.745  0.00  0.00    +0.140 A 
ATOM     10  F   UNL     1      -2.703   6.989  -1.566  0.00  0.00    -0.204 F 
ATOM     11  C   UNL     1      -1.500   5.351  -2.860  0.00  0.00    +0.030 A 
ATOM     12  C   UNL     1      -0.370   5.282  -3.668  0.00  0.00    +0.004 A 
ENDBRANCH   3   6
BRANCH   4  13
ATOM     13  C   UNL     1       0.962   6.630  -7.365  0.00  0.00    +0.002 A 
ATOM     14  C   UNL     1      -0.022   5.737  -7.775  0.00  0.00    +0.000 A 
ATOM     15  C   UNL     1      -0.224   5.370  -9.073  0.00  0.00    +0.000 A 
ATOM     16  C   UNL     1       0.464   6.002 -10.072  0.00  0.00    +0.000 A 
ATOM     17  C   UNL     1       1.223   7.090  -9.741  0.00  0.00    +0.000 A 
ATOM     18  C   UNL     1       1.506   7.342  -8.428  0.00  0.00    +0.000 A 
ENDBRANCH   4  13
BRANCH   1  20
ATOM     19  C   UNL     1       5.593   7.509  -4.382  0.00  0.00    +0.006 C 
ATOM     20  C   UNL     1       5.079   6.692  -4.528  0.00  0.00    +0.038 C 
ATOM     21  C   UNL     1       5.494   5.533  -3.631  0.00  0.00    +0.006 C 
ENDBRANCH   1  20
BRANCH   5  22
ATOM     22  C   UNL     1       3.886   5.403  -7.175  0.00  0.00    +0.270 C 
ATOM     23  N   UNL     1       4.142   5.802  -8.505  0.00  0.00    -0.175 NA
ATOM     24  O   UNL     1       4.702   4.557  -6.696  0.00  0.00    -0.268 OA
BRANCH  23  25
ATOM     25  C   UNL     1       5.261   5.423  -9.267  0.00  0.00    +0.074 A 
ATOM     26  C   UNL     1       5.141   5.341 -10.631  0.00  0.00    +0.017 A 
ATOM     27  C   UNL     1       6.256   5.541 -11.436  0.00  0.00    +0.001 A 
ATOM     28  C   UNL     1       7.460   5.956 -10.884  0.00  0.00    +0.000 A 
ATOM     29  C   UNL     1       7.594   5.887  -9.527  0.00  0.00    +0.001 A 
ATOM     30  C   UNL     1       6.532   5.468  -8.748  0.00  0.00    +0.017 A 
ENDBRANCH  23  25
ENDBRANCH   5  22
BRANCH   2  31
ATOM     31  C   UNL     1       2.602   7.690  -2.961  0.00  0.00    +0.108 C 
BRANCH  31  32
ATOM     32  C   UNL     1       2.529   6.576  -1.923  0.00  0.00    +0.057 C 
BRANCH  32  33
ATOM     33  C   UNL     1       2.689   7.363  -0.479  0.00  0.00    +0.156 C 
ATOM     34  O   UNL     1       3.314   6.136   0.166  0.00  0.00    -0.223 OA
BRANCH  33  35
ATOM     35  C   UNL     1       1.170   6.918  -0.006  0.00  0.00    +0.066 C 
BRANCH  35  36
ATOM     36  C   UNL     1       0.830   8.168   1.020  0.00  0.00    +0.166 C 
ATOM     37  O   UNL     1       1.086   7.307   2.249  0.00  0.00    -0.222 OA
BRANCH  36  38
ATOM     38  C   UNL     1      -0.783   7.843   0.993  0.00  0.00    +0.147 C 
BRANCH  38  39
ATOM     39  C   UNL     1      -1.521   9.007   1.407  0.00  0.00    +0.367 C 
ATOM     40  O   UNL     1      -2.802   9.123   1.875  0.00  0.00    -0.246 OA
ATOM     41  O   UNL     1      -0.865  10.093   1.354  0.00  0.00    -0.246 OA
ENDBRANCH  38  39
ENDBRANCH  36  38
ENDBRANCH  35  36
ENDBRANCH  33  35
ENDBRANCH  32  33
ENDBRANCH  31  32
ENDBRANCH   2  31
TORSDOF 12
ENDMDL
