MODEL 1
REMARK VINA RESULT:      -4.8      0.000      0.000
REMARK  Name = 
REMARK  3 active torsions:
REMARK  status: ('A' for Active; 'I' for Inactive)
REMARK    1  A    between atoms: C_2  and  C_3
REMARK    2  A    between atoms: C_3  and  C_4
REMARK    3  A    between atoms: C_3  and  N_7
REMARK                            x       y       z     vdW  Elec       q    Type
REMARK                         _______ _______ _______ _____ _____    ______ ____
ROOT
ATOM      1  C   UNL     1       6.717   5.132 -12.085  0.00  0.00    +0.155 C 
ENDROOT
BRANCH   1   2
ATOM      2  N   UNL     1       6.027   5.964 -10.936  0.00  0.00    -0.273 N 
ATOM      3  C   UNL     1       6.462   5.769  -9.593  0.00  0.00    +0.226 C 
ATOM      4  O   UNL     1       7.629   5.464  -9.200  0.00  0.00    -0.275 OA
ATOM      5  C   UNL     1       5.226   5.536  -8.779  0.00  0.00    +0.087 C 
ATOM      6  C   UNL     1       4.304   4.963  -9.851  0.00  0.00    +0.031 C 
ATOM      7  C   UNL     1       4.564   5.967 -10.968  0.00  0.00    +0.094 C 
ENDBRANCH   1   2
BRANCH   1   8
ATOM      8  C   UNL     1       5.607   5.528 -13.182  0.00  0.00    +0.279 C 
ATOM      9  O   UNL     1       4.841   4.659 -13.595  0.00  0.00    -0.270 OA
ATOM     10  N   UNL     1       5.936   6.694 -13.904  0.00  0.00    -0.086 NA
ENDBRANCH   1   8
BRANCH   1  12
ATOM     11  C   UNL     1       9.024   5.922 -12.330  0.00  0.00    +0.002 C 
ATOM     12  C   UNL     1       7.687   6.393 -12.497  0.00  0.00    +0.029 C 
ENDBRANCH   1  12
TORSDOF 3
ENDMDL
MODEL 2
REMARK VINA RESULT:      -4.7      9.074     11.002
REMARK  Name = 
REMARK  3 active torsions:
REMARK  status: ('A' for Active; 'I' for Inactive)
REMARK    1  A    between atoms: C_2  and  C_3
REMARK    2  A    between atoms: C_3  and  C_4
REMARK    3  A    between atoms: C_3  and  N_7
REMARK                            x       y       z     vdW  Elec       q    Type
REMARK                         _______ _______ _______ _____ _____    ______ ____
ROOT
ATOM      1  C   UNL     1      -0.928   6.501  -3.390  0.00  0.00    +0.155 C 
ENDROOT
BRANCH   1   2
ATOM      2  N   UNL     1      -1.224   5.434  -4.513  0.00  0.00    -0.273 N 
ATOM      3  C   UNL     1      -0.346   5.358  -5.633  0.00  0.00    +0.226 C 
ATOM      4  O   UNL     1       0.898   5.603  -5.654  0.00  0.00    -0.275 OA
ATOM      5  C   UNL     1      -1.216   5.388  -6.853  0.00  0.00    +0.087 C 
ATOM      6  C   UNL     1      -2.421   6.148  -6.303  0.00  0.00    +0.031 C 
ATOM      7  C   UNL     1      -2.607   5.402  -4.987  0.00  0.00    +0.094 C 
ENDBRANCH   1   2
BRANCH   1   8
ATOM      8  C   UNL     1      -2.292   6.194  -2.592  0.00  0.00    +0.279 C 
ATOM      9  O   UNL     1      -3.051   7.125  -2.327  0.00  0.00    -0.270 OA
ATOM     10  N   UNL     1      -2.246   4.986  -1.865  0.00  0.00    -0.086 NA
ENDBRANCH   1   8
BRANCH   1  12
ATOM     11  C   UNL     1       1.168   6.057  -2.201  0.00  0.00    +0.002 C 
ATOM     12  C   UNL     1      -0.071   5.417  -2.501  0.00  0.00    +0.029 C 
ENDBRANCH   1  12
TORSDOF 3
ENDMDL
MODEL 3
REMARK VINA RESULT:      -4.7      8.935     10.687
REMARK  Name = 
REMARK  3 active torsions:
REMARK  status: ('A' for Active; 'I' for Inactive)
REMARK    1  A    between atoms: C_2  and  C_3
REMARK    2  A    between atoms: C_3  and  C_4
REMARK    3  A    between atoms: C_3  and  N_7
REMARK                            x       y       z     vdW  Elec       q    Type
REMARK                         _______ _______ _______ _____ _____    ______ ____
ROOT
ATOM      1  C   UNL     1      -1.317   5.456  -4.331  0.00  0.00    +0.155 C 
ENDROOT
BRANCH   1   2
ATOM      2  N   UNL     1      -0.217   6.471  -3.833  0.00  0.00    -0.273 N 
ATOM      3  C   UNL     1       0.863   6.793  -4.706  0.00  0.00    +0.226 C 
ATOM      4  O   UNL     1       0.838   6.843  -5.973  0.00  0.00    -0.275 OA
ATOM      5  C   UNL     1       2.118   6.612  -3.909  0.00  0.00    +0.087 C 
ATOM      6  C   UNL     1       1.644   5.573  -2.896  0.00  0.00    +0.031 C 
ATOM      7  C   UNL     1       0.313   6.202  -2.497  0.00  0.00    +0.094 C 
ENDBRANCH   1   2
BRANCH   1   8
ATOM      8  C   UNL     1      -2.242   5.658  -3.029  0.00  0.00    +0.279 C 
ATOM      9  O   UNL     1      -2.688   4.666  -2.455  0.00  0.00    -0.270 OA
ATOM     10  N   UNL     1      -2.837   6.936  -2.967  0.00  0.00    -0.086 NA
ENDBRANCH   1   8
BRANCH   1  12
ATOM     11  C   UNL     1      -2.552   6.009  -6.375  0.00  0.00    +0.002 C 
ATOM     12  C   UNL     1      -2.105   6.629  -5.170  0.00  0.00    +0.029 C 
ENDBRANCH   1  12
TORSDOF 3
ENDMDL
MODEL 4
REMARK VINA RESULT:      -4.6      9.056     11.273
REMARK  Name = 
REMARK  3 active torsions:
REMARK  status: ('A' for Active; 'I' for Inactive)
REMARK    1  A    between atoms: C_2  and  C_3
REMARK    2  A    between atoms: C_3  and  C_4
REMARK    3  A    between atoms: C_3  and  N_7
REMARK                            x       y       z     vdW  Elec       q    Type
REMARK                         _______ _______ _______ _____ _____    ______ ____
ROOT
ATOM      1  C   UNL     1      -1.537   5.365  -3.163  0.00  0.00    +0.155 C 
ENDROOT
BRANCH   1   2
ATOM      2  N   UNL     1      -0.704   6.110  -4.277  0.00  0.00    -0.273 N 
ATOM      3  C   UNL     1      -1.248   6.205  -5.591  0.00  0.00    +0.226 C 
ATOM      4  O   UNL     1      -2.473   6.279  -5.912  0.00  0.00    -0.275 OA
ATOM      5  C   UNL     1      -0.173   5.744  -6.527  0.00  0.00    +0.087 C 
ATOM      6  C   UNL     1       0.608   4.816  -5.600  0.00  0.00    +0.031 C 
ATOM      7  C   UNL     1       0.700   5.711  -4.370  0.00  0.00    +0.094 C 
ENDBRANCH   1   2
BRANCH   1   8
ATOM      8  C   UNL     1      -0.378   5.506  -2.055  0.00  0.00    +0.279 C 
ATOM      9  O   UNL     1       0.168   4.489  -1.630  0.00  0.00    -0.270 OA
ATOM     10  N   UNL     1      -0.444   6.720  -1.339  0.00  0.00    -0.086 NA
ENDBRANCH   1   8
BRANCH   1  12
ATOM     11  C   UNL     1      -3.661   6.462  -2.626  0.00  0.00    +0.002 C 
ATOM     12  C   UNL     1      -2.267   6.760  -2.692  0.00  0.00    +0.029 C 
ENDBRANCH   1  12
TORSDOF 3
ENDMDL
MODEL 5
REMARK VINA RESULT:      -4.6      6.131      7.458
REMARK  Name = 
REMARK  3 active torsions:
REMARK  status: ('A' for Active; 'I' for Inactive)
REMARK    1  A    between atoms: C_2  and  C_3
REMARK    2  A    between atoms: C_3  and  C_4
REMARK    3  A    between atoms: C_3  and  N_7
REMARK                            x       y       z     vdW  Elec       q    Type
REMARK                         _______ _______ _______ _____ _____    ______ ____
ROOT
ATOM      1  C   UNL     1       1.022   6.830  -6.476  0.00  0.00    +0.155 C 
ENDROOT
BRANCH   1   2
ATOM      2  N   UNL     1       2.201   5.987  -5.854  0.00  0.00    -0.273 N 
ATOM      3  C   UNL     1       2.036   5.439  -4.548  0.00  0.00    +0.226 C 
ATOM      4  O   UNL     1       0.957   5.048  -4.010  0.00  0.00    -0.275 OA
ATOM      5  C   UNL     1       3.256   5.829  -3.770  0.00  0.00    +0.087 C 
ATOM      6  C   UNL     1       3.649   7.104  -4.511  0.00  0.00    +0.031 C 
ATOM      7  C   UNL     1       3.522   6.608  -5.947  0.00  0.00    +0.094 C 
ENDBRANCH   1   2
BRANCH   1   8
ATOM      8  C   UNL     1       1.884   7.284  -7.758  0.00  0.00    +0.279 C 
ATOM      9  O   UNL     1       2.131   8.478  -7.917  0.00  0.00    -0.270 OA
ATOM     10  N   UNL     1       1.854   6.341  -8.806  0.00  0.00    -0.086 NA
ENDBRANCH   1   8
BRANCH   1  12
ATOM     11  C   UNL     1      -0.963   5.451  -6.883  0.00  0.00    +0.002 C 
ATOM     12  C   UNL     1       0.414   5.515  -7.253  0.00  0.00    +0.029 C 
ENDBRANCH   1  12
TORSDOF 3
ENDMDL
MODEL 6
REMARK VINA RESULT:      -4.5      5.547      7.204
REMARK  Name = 
REMARK  3 active torsions:
REMARK  status: ('A' for Active; 'I' for Inactive)
REMARK    1  A    between atoms: C_2  and  C_3
REMARK    2  A    between atoms: C_3  and  C_4
REMARK    3  A    between atoms: C_3  and  N_7
REMARK                            x       y       z     vdW  Elec       q    Type
REMARK                         _______ _______ _______ _____ _____    ______ ____
ROOT
ATOM      1  C   UNL     1       2.089   4.357  -6.236  0.00  0.00    +0.155 C 
ENDROOT
BRANCH   1   2
ATOM      2  N   UNL     1       1.109   5.585  -6.369  0.00  0.00    -0.273 N 
ATOM      3  C   UNL     1       0.286   5.928  -5.257  0.00  0.00    +0.226 C 
ATOM      4  O   UNL     1       0.557   5.784  -4.026  0.00  0.00    -0.275 OA
ATOM      5  C   UNL     1      -1.109   6.055  -5.788  0.00  0.00    +0.087 C 
ATOM      6  C   UNL     1      -1.023   5.121  -6.992  0.00  0.00    +0.031 C 
ATOM      7  C   UNL     1       0.297   5.600  -7.586  0.00  0.00    +0.094 C 
ENDBRANCH   1   2
BRANCH   1   8
ATOM      8  C   UNL     1       2.625   4.486  -7.749  0.00  0.00    +0.279 C 
ATOM      9  O   UNL     1       2.574   3.503  -8.485  0.00  0.00    -0.270 OA
ATOM     10  N   UNL     1       3.528   5.555  -7.925  0.00  0.00    -0.086 NA
ENDBRANCH   1   8
BRANCH   1  12
ATOM     11  C   UNL     1       3.833   4.597  -4.530  0.00  0.00    +0.002 C 
ATOM     12  C   UNL     1       3.294   5.306  -5.645  0.00  0.00    +0.029 C 
ENDBRANCH   1  12
TORSDOF 3
ENDMDL
MODEL 7
REMARK VINA RESULT:      -4.5      3.519      5.745
REMARK  Name = 
REMARK  3 active torsions:
REMARK  status: ('A' for Active; 'I' for Inactive)
REMARK    1  A    between atoms: C_2  and  C_3
REMARK    2  A    between atoms: C_3  and  C_4
REMARK    3  A    between atoms: C_3  and  N_7
REMARK                            x       y       z     vdW  Elec       q    Type
REMARK                         _______ _______ _______ _____ _____    ______ ____
ROOT
ATOM      1  C   UNL     1       2.283   4.291  -8.914  0.00  0.00    +0.155 C 
ENDROOT
BRANCH   1   2
ATOM      2  N   UNL     1       3.267   5.523  -8.945  0.00  0.00    -0.273 N 
ATOM      3  C   UNL     1       4.008   5.778 -10.136  0.00  0.00    +0.226 C 
ATOM      4  O   UNL     1       3.651   5.540 -11.329  0.00  0.00    -0.275 OA
ATOM      5  C   UNL     1       5.437   5.940  -9.715  0.00  0.00    +0.087 C 
ATOM      6  C   UNL     1       5.438   5.101  -8.440  0.00  0.00    +0.031 C 
ATOM      7  C   UNL     1       4.163   5.628  -7.794  0.00  0.00    +0.094 C 
ENDBRANCH   1   2
BRANCH   1   8
ATOM      8  C   UNL     1       1.923   4.483  -7.357  0.00  0.00    +0.279 C 
ATOM      9  O   UNL     1       2.128   3.554  -6.579  0.00  0.00    -0.270 OA
ATOM     10  N   UNL     1       0.976   5.503  -7.131  0.00  0.00    -0.086 NA
ENDBRANCH   1   8
BRANCH   1  12
ATOM     11  C   UNL     1       0.449   4.535 -10.522  0.00  0.00    +0.002 C 
ATOM     12  C   UNL     1       1.015   5.215  -9.402  0.00  0.00    +0.029 C 
ENDBRANCH   1  12
TORSDOF 3
ENDMDL
MODEL 8
REMARK VINA RESULT:      -4.5      8.107      9.758
REMARK  Name = 
REMARK  3 active torsions:
REMARK  status: ('A' for Active; 'I' for Inactive)
REMARK    1  A    between atoms: C_2  and  C_3
REMARK    2  A    between atoms: C_3  and  C_4
REMARK    3  A    between atoms: C_3  and  N_7
REMARK                            x       y       z     vdW  Elec       q    Type
REMARK                         _______ _______ _______ _____ _____    ______ ____
ROOT
ATOM      1  C   UNL     1       0.558   5.020  -4.153  0.00  0.00    +0.155 C 
ENDROOT
BRANCH   1   2
ATOM      2  N   UNL     1      -0.386   5.990  -4.961  0.00  0.00    -0.273 N 
ATOM      3  C   UNL     1      -1.798   5.823  -4.849  0.00  0.00    +0.226 C 
ATOM      4  O   UNL     1      -2.444   5.408  -3.840  0.00  0.00    -0.275 OA
ATOM      5  C   UNL     1      -2.330   5.780  -6.249  0.00  0.00    +0.087 C 
ATOM      6  C   UNL     1      -1.101   5.257  -6.987  0.00  0.00    +0.031 C 
ATOM      7  C   UNL     1      -0.037   6.160  -6.372  0.00  0.00    +0.094 C 
ENDBRANCH   1   2
BRANCH   1   8
ATOM      8  C   UNL     1       1.907   5.676  -4.738  0.00  0.00    +0.279 C 
ATOM      9  O   UNL     1       2.728   4.951  -5.297  0.00  0.00    -0.270 OA
ATOM     10  N   UNL     1       2.229   6.908  -4.133  0.00  0.00    -0.086 NA
ENDBRANCH   1   8
BRANCH   1  12
ATOM     11  C   UNL     1       0.340   5.160  -1.716  0.00  0.00    +0.002 C 
ATOM     12  C   UNL     1       0.552   6.011  -2.842  0.00  0.00    +0.029 C 
ENDBRANCH   1  12
TORSDOF 3
ENDMDL
MODEL 9
REMARK VINA RESULT:      -4.4      6.685      7.942
REMARK  Name = 
REMARK  3 active torsions:
REMARK  status: ('A' for Active; 'I' for Inactive)
REMARK    1  A    between atoms: C_2  and  C_3
REMARK    2  A    between atoms: C_3  and  C_4
REMARK    3  A    between atoms: C_3  and  N_7
REMARK                            x       y       z     vdW  Elec       q    Type
REMARK                         _______ _______ _______ _____ _____    ______ ____
ROOT
ATOM      1  C   UNL     1       2.957   6.678  -4.382  0.00  0.00    +0.155 C 
ENDROOT
BRANCH   1   2
ATOM      2  N   UNL     1       2.501   5.908  -5.681  0.00  0.00    -0.273 N 
ATOM      3  C   UNL     1       2.130   6.666  -6.830  0.00  0.00    +0.226 C 
ATOM      4  O   UNL     1       2.592   7.790  -7.191  0.00  0.00    -0.275 OA
ATOM      5  C   UNL     1       0.802   6.134  -7.275  0.00  0.00    +0.087 C 
ATOM      6  C   UNL     1       0.268   5.602  -5.948  0.00  0.00    +0.031 C 
ATOM      7  C   UNL     1       1.506   4.859  -5.460  0.00  0.00    +0.094 C 
ENDBRANCH   1   2
BRANCH   1   8
ATOM      8  C   UNL     1       3.258   5.326  -3.560  0.00  0.00    +0.279 C 
ATOM      9  O   UNL     1       2.828   5.217  -2.414  0.00  0.00    -0.270 OA
ATOM     10  N   UNL     1       4.376   4.619  -4.052  0.00  0.00    -0.086 NA
ENDBRANCH   1   8
BRANCH   1  12
ATOM     11  C   UNL     1       5.071   7.911  -4.243  0.00  0.00    +0.002 C 
ATOM     12  C   UNL     1       4.506   6.789  -4.920  0.00  0.00    +0.029 C 
ENDBRANCH   1  12
TORSDOF 3
ENDMDL
