MODEL 1
REMARK VINA RESULT:      -6.6      0.000      0.000
REMARK  Name = 
REMARK  2 active torsions:
REMARK  status: ('A' for Active; 'I' for Inactive)
REMARK    1  A    between atoms: C_2  and  N_3
REMARK    2  A    between atoms: C_7  and  C_8
REMARK                            x       y       z     vdW  Elec       q    Type
REMARK                         _______ _______ _______ _____ _____    ______ ____
ROOT
ATOM      1  N   UNL     1       1.986   5.008  -9.836  0.00  0.00    -0.211 N 
ATOM      2  C   UNL     1       2.963   5.613 -10.636  0.00  0.00    +0.257 C 
ATOM      3  O   UNL     1       3.192   5.740 -11.827  0.00  0.00    -0.272 OA
ATOM      4  C   UNL     1       3.679   6.517  -9.486  0.00  0.00    +0.195 C 
ATOM      5  N   UNL     1       3.990   5.194  -8.653  0.00  0.00    -0.176 NA
ATOM      6  C   UNL     1       2.644   4.708  -8.599  0.00  0.00    +0.330 C 
ATOM      7  O   UNL     1       2.026   4.167  -7.639  0.00  0.00    -0.250 OA
ENDROOT
BRANCH   4   8
ATOM      8  C   UNL     1       5.146   6.508 -10.190  0.00  0.00    +0.006 A 
ATOM      9  C   UNL     1       6.015   5.629  -9.583  0.00  0.00    -0.002 A 
ATOM     10  C   UNL     1       7.363   5.928  -9.590  0.00  0.00    -0.000 A 
ATOM     11  C   UNL     1       7.784   6.993 -10.366  0.00  0.00    -0.000 A 
ATOM     12  C   UNL     1       6.880   7.659 -11.187  0.00  0.00    -0.000 A 
ATOM     13  C   UNL     1       5.516   7.588 -10.907  0.00  0.00    -0.002 A 
ENDBRANCH   4   8
BRANCH   1  15
ATOM     14  C   UNL     1      -0.113   5.603 -10.906  0.00  0.00    +0.024 C 
ATOM     15  C   UNL     1       0.731   4.559 -10.370  0.00  0.00    +0.103 C 
ENDBRANCH   1  15
TORSDOF 2
ENDMDL
MODEL 2
REMARK VINA RESULT:      -6.6      1.650      2.717
REMARK  Name = 
REMARK  2 active torsions:
REMARK  status: ('A' for Active; 'I' for Inactive)
REMARK    1  A    between atoms: C_2  and  N_3
REMARK    2  A    between atoms: C_7  and  C_8
REMARK                            x       y       z     vdW  Elec       q    Type
REMARK                         _______ _______ _______ _____ _____    ______ ____
ROOT
ATOM      1  N   UNL     1       2.282   5.030  -8.292  0.00  0.00    -0.211 N 
ATOM      2  C   UNL     1       3.584   5.519  -8.132  0.00  0.00    +0.257 C 
ATOM      3  O   UNL     1       4.226   6.088  -7.265  0.00  0.00    -0.272 OA
ATOM      4  C   UNL     1       4.267   4.791  -9.418  0.00  0.00    +0.195 C 
ATOM      5  N   UNL     1       3.219   5.517 -10.374  0.00  0.00    -0.176 NA
ATOM      6  C   UNL     1       2.037   5.065  -9.703  0.00  0.00    +0.330 C 
ATOM      7  O   UNL     1       0.943   4.664 -10.191  0.00  0.00    -0.250 OA
ENDROOT
BRANCH   4   8
ATOM      8  C   UNL     1       5.392   5.942  -9.654  0.00  0.00    +0.006 A 
ATOM      9  C   UNL     1       4.955   6.939 -10.496  0.00  0.00    -0.002 A 
ATOM     10  C   UNL     1       5.885   7.589 -11.285  0.00  0.00    -0.000 A 
ATOM     11  C   UNL     1       7.224   7.332 -11.048  0.00  0.00    -0.000 A 
ATOM     12  C   UNL     1       7.601   6.527  -9.979  0.00  0.00    -0.000 A 
ATOM     13  C   UNL     1       6.684   5.624  -9.441  0.00  0.00    -0.002 A 
ENDBRANCH   4   8
BRANCH   1  15
ATOM     14  C   UNL     1       1.782   3.856  -6.224  0.00  0.00    +0.024 C 
ATOM     15  C   UNL     1       1.387   4.864  -7.182  0.00  0.00    +0.103 C 
ENDBRANCH   1  15
TORSDOF 2
ENDMDL
MODEL 3
REMARK VINA RESULT:      -6.4      3.408      6.471
REMARK  Name = 
REMARK  2 active torsions:
REMARK  status: ('A' for Active; 'I' for Inactive)
REMARK    1  A    between atoms: C_2  and  N_3
REMARK    2  A    between atoms: C_7  and  C_8
REMARK                            x       y       z     vdW  Elec       q    Type
REMARK                         _______ _______ _______ _____ _____    ______ ____
ROOT
ATOM      1  N   UNL     1       2.479   4.848  -8.675  0.00  0.00    -0.211 N 
ATOM      2  C   UNL     1       1.981   5.028  -7.379  0.00  0.00    +0.257 C 
ATOM      3  O   UNL     1       2.211   4.593  -6.263  0.00  0.00    -0.272 OA
ATOM      4  C   UNL     1       1.100   6.370  -7.652  0.00  0.00    +0.195 C 
ATOM      5  N   UNL     1       0.266   5.586  -8.761  0.00  0.00    -0.176 NA
ATOM      6  C   UNL     1       1.387   5.161  -9.546  0.00  0.00    +0.330 C 
ATOM      7  O   UNL     1       1.513   5.118 -10.802  0.00  0.00    -0.250 OA
ENDROOT
BRANCH   4   8
ATOM      8  C   UNL     1      -0.001   6.056  -6.496  0.00  0.00    +0.006 A 
ATOM      9  C   UNL     1      -1.080   5.349  -6.975  0.00  0.00    -0.002 A 
ATOM     10  C   UNL     1      -2.311   5.546  -6.382  0.00  0.00    -0.000 A 
ATOM     11  C   UNL     1      -2.356   6.299  -5.222  0.00  0.00    -0.000 A 
ATOM     12  C   UNL     1      -1.177   6.741  -4.632  0.00  0.00    -0.000 A 
ATOM     13  C   UNL     1      -0.019   6.844  -5.402  0.00  0.00    -0.002 A 
ENDBRANCH   4   8
BRANCH   1  15
ATOM     14  C   UNL     1       4.905   4.976  -8.646  0.00  0.00    +0.024 C 
ATOM     15  C   UNL     1       3.728   4.186  -8.928  0.00  0.00    +0.103 C 
ENDBRANCH   1  15
TORSDOF 2
ENDMDL
MODEL 4
REMARK VINA RESULT:      -6.4      3.805      6.561
REMARK  Name = 
REMARK  2 active torsions:
REMARK  status: ('A' for Active; 'I' for Inactive)
REMARK    1  A    between atoms: C_2  and  N_3
REMARK    2  A    between atoms: C_7  and  C_8
REMARK                            x       y       z     vdW  Elec       q    Type
REMARK                         _______ _______ _______ _____ _____    ______ ____
ROOT
ATOM      1  N   UNL     1       2.714   4.756  -7.516  0.00  0.00    -0.211 N 
ATOM      2  C   UNL     1       1.368   5.089  -7.710  0.00  0.00    +0.257 C 
ATOM      3  O   UNL     1       0.643   5.375  -8.648  0.00  0.00    -0.272 OA
ATOM      4  C   UNL     1       0.805   4.651  -6.246  0.00  0.00    +0.195 C 
ATOM      5  N   UNL     1       1.822   5.670  -5.561  0.00  0.00    -0.176 NA
ATOM      6  C   UNL     1       3.012   5.158  -6.174  0.00  0.00    +0.330 C 
ATOM      7  O   UNL     1       4.156   4.976  -5.670  0.00  0.00    -0.250 OA
ENDROOT
BRANCH   4   8
ATOM      8  C   UNL     1      -0.408   5.735  -6.229  0.00  0.00    +0.006 A 
ATOM      9  C   UNL     1      -0.104   6.852  -5.484  0.00  0.00    -0.002 A 
ATOM     10  C   UNL     1      -1.133   7.516  -4.846  0.00  0.00    -0.000 A 
ATOM     11  C   UNL     1      -2.430   7.135  -5.142  0.00  0.00    -0.000 A 
ATOM     12  C   UNL     1      -2.669   6.187  -6.131  0.00  0.00    -0.000 A 
ATOM     13  C   UNL     1      -1.656   5.299  -6.492  0.00  0.00    -0.002 A 
ENDBRANCH   4   8
BRANCH   1  15
ATOM     14  C   UNL     1       4.234   5.498  -9.261  0.00  0.00    +0.024 C 
ATOM     15  C   UNL     1       3.575   4.391  -8.605  0.00  0.00    +0.103 C 
ENDBRANCH   1  15
TORSDOF 2
ENDMDL
MODEL 5
REMARK VINA RESULT:      -6.3      4.455      7.354
REMARK  Name = 
REMARK  2 active torsions:
REMARK  status: ('A' for Active; 'I' for Inactive)
REMARK    1  A    between atoms: C_2  and  N_3
REMARK    2  A    between atoms: C_7  and  C_8
REMARK                            x       y       z     vdW  Elec       q    Type
REMARK                         _______ _______ _______ _____ _____    ______ ____
ROOT
ATOM      1  N   UNL     1       3.589   6.036  -5.015  0.00  0.00    -0.211 N 
ATOM      2  C   UNL     1       2.292   6.243  -4.530  0.00  0.00    +0.257 C 
ATOM      3  O   UNL     1       1.722   6.203  -3.453  0.00  0.00    -0.272 OA
ATOM      4  C   UNL     1       1.660   6.960  -5.849  0.00  0.00    +0.195 C 
ATOM      5  N   UNL     1       2.028   5.672  -6.713  0.00  0.00    -0.176 NA
ATOM      6  C   UNL     1       3.421   5.638  -6.381  0.00  0.00    +0.330 C 
ATOM      7  O   UNL     1       4.415   5.392  -7.122  0.00  0.00    -0.250 OA
ENDROOT
BRANCH   4   8
ATOM      8  C   UNL     1       0.142   6.439  -5.582  0.00  0.00    +0.006 A 
ATOM      9  C   UNL     1      -0.187   5.355  -6.365  0.00  0.00    -0.002 A 
ATOM     10  C   UNL     1      -1.504   5.197  -6.749  0.00  0.00    -0.000 A 
ATOM     11  C   UNL     1      -2.449   6.028  -6.172  0.00  0.00    -0.000 A 
ATOM     12  C   UNL     1      -2.078   6.912  -5.164  0.00  0.00    -0.000 A 
ATOM     13  C   UNL     1      -0.744   7.303  -5.049  0.00  0.00    -0.002 A 
ENDBRANCH   4   8
BRANCH   1  15
ATOM     14  C   UNL     1       5.439   7.211  -3.968  0.00  0.00    +0.024 C 
ATOM     15  C   UNL     1       4.728   5.965  -4.145  0.00  0.00    +0.103 C 
ENDBRANCH   1  15
TORSDOF 2
ENDMDL
MODEL 6
REMARK VINA RESULT:      -6.2      5.161      7.651
REMARK  Name = 
REMARK  2 active torsions:
REMARK  status: ('A' for Active; 'I' for Inactive)
REMARK    1  A    between atoms: C_2  and  N_3
REMARK    2  A    between atoms: C_7  and  C_8
REMARK                            x       y       z     vdW  Elec       q    Type
REMARK                         _______ _______ _______ _____ _____    ______ ____
ROOT
ATOM      1  N   UNL     1       3.151   5.895  -4.580  0.00  0.00    -0.211 N 
ATOM      2  C   UNL     1       2.155   6.155  -5.529  0.00  0.00    +0.257 C 
ATOM      3  O   UNL     1       2.070   6.723  -6.605  0.00  0.00    -0.272 OA
ATOM      4  C   UNL     1       1.025   5.123  -4.971  0.00  0.00    +0.195 C 
ATOM      5  N   UNL     1       1.048   5.874  -3.565  0.00  0.00    -0.176 NA
ATOM      6  C   UNL     1       2.457   5.757  -3.334  0.00  0.00    +0.330 C 
ATOM      7  O   UNL     1       3.073   5.493  -2.263  0.00  0.00    -0.250 OA
ENDROOT
BRANCH   4   8
ATOM      8  C   UNL     1      -0.241   5.997  -5.500  0.00  0.00    +0.006 A 
ATOM      9  C   UNL     1      -0.428   7.148  -4.769  0.00  0.00    -0.002 A 
ATOM     10  C   UNL     1      -1.712   7.637  -4.630  0.00  0.00    -0.000 A 
ATOM     11  C   UNL     1      -2.711   7.052  -5.387  0.00  0.00    -0.000 A 
ATOM     12  C   UNL     1      -2.394   6.078  -6.328  0.00  0.00    -0.000 A 
ATOM     13  C   UNL     1      -1.201   5.366  -6.205  0.00  0.00    -0.002 A 
ENDBRANCH   4   8
BRANCH   1  15
ATOM     14  C   UNL     1       5.111   7.321  -4.414  0.00  0.00    +0.024 C 
ATOM     15  C   UNL     1       4.546   6.071  -4.868  0.00  0.00    +0.103 C 
ENDBRANCH   1  15
TORSDOF 2
ENDMDL
MODEL 7
REMARK VINA RESULT:      -6.2      5.153      7.851
REMARK  Name = 
REMARK  2 active torsions:
REMARK  status: ('A' for Active; 'I' for Inactive)
REMARK    1  A    between atoms: C_2  and  N_3
REMARK    2  A    between atoms: C_7  and  C_8
REMARK                            x       y       z     vdW  Elec       q    Type
REMARK                         _______ _______ _______ _____ _____    ______ ____
ROOT
ATOM      1  N   UNL     1       2.744   5.375  -5.538  0.00  0.00    -0.211 N 
ATOM      2  C   UNL     1       1.962   6.301  -4.836  0.00  0.00    +0.257 C 
ATOM      3  O   UNL     1       2.125   7.114  -3.942  0.00  0.00    -0.272 OA
ATOM      4  C   UNL     1       0.657   6.290  -5.809  0.00  0.00    +0.195 C 
ATOM      5  N   UNL     1       0.503   4.722  -5.570  0.00  0.00    -0.176 NA
ATOM      6  C   UNL     1       1.830   4.359  -5.968  0.00  0.00    +0.330 C 
ATOM      7  O   UNL     1       2.218   3.373  -6.656  0.00  0.00    -0.250 OA
ENDROOT
BRANCH   4   8
ATOM      8  C   UNL     1      -0.404   6.649  -4.630  0.00  0.00    +0.006 A 
ATOM      9  C   UNL     1      -0.771   5.543  -3.898  0.00  0.00    -0.002 A 
ATOM     10  C   UNL     1      -2.038   5.508  -3.349  0.00  0.00    -0.000 A 
ATOM     11  C   UNL     1      -2.798   6.663  -3.406  0.00  0.00    -0.000 A 
ATOM     12  C   UNL     1      -2.247   7.837  -3.907  0.00  0.00    -0.000 A 
ATOM     13  C   UNL     1      -1.143   7.770  -4.756  0.00  0.00    -0.002 A 
ENDBRANCH   4   8
BRANCH   1  15
ATOM     14  C   UNL     1       4.759   4.806  -4.305  0.00  0.00    +0.024 C 
ATOM     15  C   UNL     1       4.178   5.395  -5.491  0.00  0.00    +0.103 C 
ENDBRANCH   1  15
TORSDOF 2
ENDMDL
MODEL 8
REMARK VINA RESULT:      -6.0      1.956      2.323
REMARK  Name = 
REMARK  2 active torsions:
REMARK  status: ('A' for Active; 'I' for Inactive)
REMARK    1  A    between atoms: C_2  and  N_3
REMARK    2  A    between atoms: C_7  and  C_8
REMARK                            x       y       z     vdW  Elec       q    Type
REMARK                         _______ _______ _______ _____ _____    ______ ____
ROOT
ATOM      1  N   UNL     1       2.280   5.826  -8.316  0.00  0.00    -0.211 N 
ATOM      2  C   UNL     1       3.183   5.031  -9.032  0.00  0.00    +0.257 C 
ATOM      3  O   UNL     1       3.589   3.881  -8.994  0.00  0.00    -0.272 OA
ATOM      4  C   UNL     1       3.389   6.009 -10.318  0.00  0.00    +0.195 C 
ATOM      5  N   UNL     1       3.892   7.167  -9.344  0.00  0.00    -0.176 NA
ATOM      6  C   UNL     1       2.749   7.170  -8.480  0.00  0.00    +0.330 C 
ATOM      7  O   UNL     1       2.136   8.149  -7.968  0.00  0.00    -0.250 OA
ENDROOT
BRANCH   4   8
ATOM      8  C   UNL     1       4.905   5.514 -10.634  0.00  0.00    +0.006 A 
ATOM      9  C   UNL     1       5.772   5.775  -9.597  0.00  0.00    -0.002 A 
ATOM     10  C   UNL     1       7.097   6.027  -9.894  0.00  0.00    -0.000 A 
ATOM     11  C   UNL     1       7.518   5.817 -11.195  0.00  0.00    -0.000 A 
ATOM     12  C   UNL     1       6.646   5.269 -12.130  0.00  0.00    -0.000 A 
ATOM     13  C   UNL     1       5.270   5.359 -11.922  0.00  0.00    -0.002 A 
ENDBRANCH   4   8
BRANCH   1  15
ATOM     14  C   UNL     1      -0.059   5.457  -7.774  0.00  0.00    +0.024 C 
ATOM     15  C   UNL     1       1.325   5.265  -7.404  0.00  0.00    +0.103 C 
ENDBRANCH   1  15
TORSDOF 2
ENDMDL
MODEL 9
REMARK VINA RESULT:      -6.0      2.289      5.182
REMARK  Name = 
REMARK  2 active torsions:
REMARK  status: ('A' for Active; 'I' for Inactive)
REMARK    1  A    between atoms: C_2  and  N_3
REMARK    2  A    between atoms: C_7  and  C_8
REMARK                            x       y       z     vdW  Elec       q    Type
REMARK                         _______ _______ _______ _____ _____    ______ ____
ROOT
ATOM      1  N   UNL     1       6.397   5.465 -11.472  0.00  0.00    -0.211 N 
ATOM      2  C   UNL     1       5.752   5.749 -10.262  0.00  0.00    +0.257 C 
ATOM      3  O   UNL     1       5.992   5.634  -9.072  0.00  0.00    -0.272 OA
ATOM      4  C   UNL     1       4.561   6.692 -10.848  0.00  0.00    +0.195 C 
ATOM      5  N   UNL     1       4.083   5.493 -11.782  0.00  0.00    -0.176 NA
ATOM      6  C   UNL     1       5.344   5.264 -12.422  0.00  0.00    +0.330 C 
ATOM      7  O   UNL     1       5.590   5.007 -13.634  0.00  0.00    -0.250 OA
ENDROOT
BRANCH   4   8
ATOM      8  C   UNL     1       3.491   6.311  -9.684  0.00  0.00    +0.006 A 
ATOM      9  C   UNL     1       2.751   5.193  -9.995  0.00  0.00    -0.002 A 
ATOM     10  C   UNL     1       1.461   5.102  -9.511  0.00  0.00    -0.000 A 
ATOM     11  C   UNL     1       1.050   6.047  -8.587  0.00  0.00    -0.000 A 
ATOM     12  C   UNL     1       1.955   6.983  -8.098  0.00  0.00    -0.000 A 
ATOM     13  C   UNL     1       3.101   7.282  -8.833  0.00  0.00    -0.002 A 
ENDBRANCH   4   8
BRANCH   1  15
ATOM     14  C   UNL     1       8.570   6.020 -12.405  0.00  0.00    +0.024 C 
ATOM     15  C   UNL     1       7.798   5.159 -11.538  0.00  0.00    +0.103 C 
ENDBRANCH   1  15
TORSDOF 2
ENDMDL
