MODEL 1
REMARK VINA RESULT:      -7.4      0.000      0.000
REMARK  Name = 
REMARK  6 active torsions:
REMARK  status: ('A' for Active; 'I' for Inactive)
REMARK    1  A    between atoms: N_2  and  C_4
REMARK    2  A    between atoms: C_4  and  C_5
REMARK    3  A    between atoms: C_5  and  C_6
REMARK    4  A    between atoms: C_6  and  C_7
REMARK    5  A    between atoms: C_7  and  C_8
REMARK    6  A    between atoms: C_19  and  C_20
REMARK                            x       y       z     vdW  Elec       q    Type
REMARK                         _______ _______ _______ _____ _____    ______ ____
ROOT
ATOM      1  C   UNL     1       3.072   5.720  -9.082  0.00  0.00    +0.130 C 
ATOM      2  C   UNL     1       2.466   5.311  -7.789  0.00  0.00    +0.004 A 
ATOM      3  C   UNL     1       1.756   6.432  -7.375  0.00  0.00    +0.006 A 
ATOM      4  C   UNL     1       0.934   6.376  -6.262  0.00  0.00    +0.008 A 
ATOM      5  C   UNL     1       1.014   5.280  -5.441  0.00  0.00    +0.068 A 
ATOM      6  C   UNL     1       1.520   4.106  -5.981  0.00  0.00    +0.010 A 
ATOM      7  C   UNL     1       2.230   7.530  -8.274  0.00  0.00    +0.169 C 
ATOM      8  C   UNL     1       1.996   4.104  -7.287  0.00  0.00    -0.001 A 
ATOM      9  O   UNL     1       3.424   7.036  -8.825  0.00  0.00    -0.346 OA
ENDROOT
BRANCH   1  10
ATOM     10  C   UNL     1       2.031   5.691 -10.125  0.00  0.00    +0.006 A 
ATOM     11  C   UNL     1       0.914   4.903 -10.001  0.00  0.00    +0.001 A 
ATOM     12  C   UNL     1       0.179   4.538 -11.116  0.00  0.00    +0.029 A 
ATOM     13  C   UNL     1       0.670   4.892 -12.365  0.00  0.00    +0.140 A 
ATOM     14  F   UNL     1       0.389   4.165 -13.474  0.00  0.00    -0.204 F 
ATOM     15  C   UNL     1       1.462   6.023 -12.405  0.00  0.00    +0.029 A 
ATOM     16  C   UNL     1       2.165   6.436 -11.281  0.00  0.00    +0.001 A 
ENDBRANCH   1  10
BRANCH   5  17
ATOM     17  C   UNL     1       0.797   5.347  -4.016  0.00  0.00    +0.100 C 
ATOM     18  N   UNL     1       0.628   5.263  -2.884  0.00  0.00    -0.191 NA
ENDBRANCH   5  17
BRANCH   1  19
ATOM     19  C   UNL     1       4.226   4.857  -9.494  0.00  0.00    +0.037 C 
BRANCH  19  20
ATOM     20  C   UNL     1       5.528   5.629  -9.443  0.00  0.00    +0.020 C 
BRANCH  20  21
ATOM     21  C   UNL     1       6.046   5.709 -10.867  0.00  0.00    +0.072 C 
BRANCH  21  23
ATOM     22  C   UNL     1       7.654   6.850 -10.393  0.00  0.00    +0.090 C 
ATOM     23  N   UNL     1       7.015   6.769 -11.040  0.00  0.00    -0.270 NA
ATOM     24  C   UNL     1       6.291   8.002 -11.336  0.00  0.00    +0.090 C 
ENDBRANCH  21  23
ENDBRANCH  20  21
ENDBRANCH  19  20
ENDBRANCH   1  19
TORSDOF 6
ENDMDL
MODEL 2
REMARK VINA RESULT:      -7.3      2.643      4.779
REMARK  Name = 
REMARK  6 active torsions:
REMARK  status: ('A' for Active; 'I' for Inactive)
REMARK    1  A    between atoms: N_2  and  C_4
REMARK    2  A    between atoms: C_4  and  C_5
REMARK    3  A    between atoms: C_5  and  C_6
REMARK    4  A    between atoms: C_6  and  C_7
REMARK    5  A    between atoms: C_7  and  C_8
REMARK    6  A    between atoms: C_19  and  C_20
REMARK                            x       y       z     vdW  Elec       q    Type
REMARK                         _______ _______ _______ _____ _____    ______ ____
ROOT
ATOM      1  C   UNL     1       3.713   5.632  -9.910  0.00  0.00    +0.130 C 
ATOM      2  C   UNL     1       3.079   6.203  -8.693  0.00  0.00    +0.004 A 
ATOM      3  C   UNL     1       3.743   5.583  -7.640  0.00  0.00    +0.006 A 
ATOM      4  C   UNL     1       3.514   5.977  -6.333  0.00  0.00    +0.008 A 
ATOM      5  C   UNL     1       2.458   6.812  -6.073  0.00  0.00    +0.068 A 
ATOM      6  C   UNL     1       1.982   7.592  -7.118  0.00  0.00    +0.010 A 
ATOM      7  C   UNL     1       4.502   4.465  -8.282  0.00  0.00    +0.169 C 
ATOM      8  C   UNL     1       2.527   7.440  -8.387  0.00  0.00    -0.001 A 
ATOM      9  O   UNL     1       3.895   4.309  -9.538  0.00  0.00    -0.346 OA
ENDROOT
BRANCH   1  10
ATOM     10  C   UNL     1       5.029   6.268 -10.103  0.00  0.00    +0.006 A 
ATOM     11  C   UNL     1       5.166   7.426 -10.827  0.00  0.00    +0.001 A 
ATOM     12  C   UNL     1       6.388   7.779 -11.371  0.00  0.00    +0.029 A 
ATOM     13  C   UNL     1       7.436   6.874 -11.265  0.00  0.00    +0.140 A 
ATOM     14  F   UNL     1       8.439   6.833 -12.175  0.00  0.00    -0.204 F 
ATOM     15  C   UNL     1       7.388   6.020 -10.180  0.00  0.00    +0.029 A 
ATOM     16  C   UNL     1       6.175   5.696  -9.586  0.00  0.00    +0.001 A 
ENDBRANCH   1  10
BRANCH   5  17
ATOM     17  C   UNL     1       1.701   6.767  -4.846  0.00  0.00    +0.100 C 
ATOM     18  N   UNL     1       1.011   6.650  -3.936  0.00  0.00    -0.191 NA
ENDBRANCH   5  17
BRANCH   1  19
ATOM     19  C   UNL     1       2.882   5.803 -11.146  0.00  0.00    +0.037 C 
BRANCH  19  20
ATOM     20  C   UNL     1       1.466   5.313 -10.921  0.00  0.00    +0.020 C 
BRANCH  20  21
ATOM     21  C   UNL     1       0.650   5.773 -12.115  0.00  0.00    +0.072 C 
BRANCH  21  23
ATOM     22  C   UNL     1      -0.437   7.425 -11.666  0.00  0.00    +0.090 C 
ATOM     23  N   UNL     1       0.350   7.187 -12.063  0.00  0.00    -0.270 NA
ATOM     24  C   UNL     1       0.550   7.744 -13.399  0.00  0.00    +0.090 C 
ENDBRANCH  21  23
ENDBRANCH  20  21
ENDBRANCH  19  20
ENDBRANCH   1  19
TORSDOF 6
ENDMDL
MODEL 3
REMARK VINA RESULT:      -7.3      3.361      7.351
REMARK  Name = 
REMARK  6 active torsions:
REMARK  status: ('A' for Active; 'I' for Inactive)
REMARK    1  A    between atoms: N_2  and  C_4
REMARK    2  A    between atoms: C_4  and  C_5
REMARK    3  A    between atoms: C_5  and  C_6
REMARK    4  A    between atoms: C_6  and  C_7
REMARK    5  A    between atoms: C_7  and  C_8
REMARK    6  A    between atoms: C_19  and  C_20
REMARK                            x       y       z     vdW  Elec       q    Type
REMARK                         _______ _______ _______ _____ _____    ______ ____
ROOT
ATOM      1  C   UNL     1       1.621   5.772  -6.393  0.00  0.00    +0.130 C 
ATOM      2  C   UNL     1       2.383   5.354  -7.598  0.00  0.00    +0.004 A 
ATOM      3  C   UNL     1       3.014   6.517  -8.024  0.00  0.00    +0.006 A 
ATOM      4  C   UNL     1       3.937   6.482  -9.055  0.00  0.00    +0.008 A 
ATOM      5  C   UNL     1       4.044   5.338  -9.804  0.00  0.00    +0.068 A 
ATOM      6  C   UNL     1       3.609   4.151  -9.230  0.00  0.00    +0.010 A 
ATOM      7  C   UNL     1       2.350   7.609  -7.246  0.00  0.00    +0.169 C 
ATOM      8  C   UNL     1       3.016   4.175  -7.974  0.00  0.00    -0.001 A 
ATOM      9  O   UNL     1       1.166   7.026  -6.769  0.00  0.00    -0.346 OA
ENDROOT
BRANCH   1  10
ATOM     10  C   UNL     1       2.558   5.914  -5.264  0.00  0.00    +0.006 A 
ATOM     11  C   UNL     1       2.451   6.950  -4.370  0.00  0.00    +0.001 A 
ATOM     12  C   UNL     1       3.536   7.336  -3.603  0.00  0.00    +0.029 A 
ATOM     13  C   UNL     1       4.758   6.725  -3.846  0.00  0.00    +0.140 A 
ATOM     14  F   UNL     1       5.933   7.354  -3.598  0.00  0.00    -0.204 F 
ATOM     15  C   UNL     1       4.701   5.444  -4.360  0.00  0.00    +0.029 A 
ATOM     16  C   UNL     1       3.597   5.021  -5.088  0.00  0.00    +0.001 A 
ENDBRANCH   1  10
BRANCH   5  17
ATOM     17  C   UNL     1       4.385   5.343 -11.205  0.00  0.00    +0.100 C 
ATOM     18  N   UNL     1       4.787   5.333 -12.280  0.00  0.00    -0.191 NA
ENDBRANCH   5  17
BRANCH   1  19
ATOM     19  C   UNL     1       0.525   4.818  -6.025  0.00  0.00    +0.037 C 
BRANCH  19  20
ATOM     20  C   UNL     1      -0.825   5.505  -6.047  0.00  0.00    +0.020 C 
BRANCH  20  21
ATOM     21  C   UNL     1      -1.211   5.758  -4.602  0.00  0.00    +0.072 C 
BRANCH  21  23
ATOM     22  C   UNL     1      -1.480   7.767  -4.665  0.00  0.00    +0.090 C 
ATOM     23  N   UNL     1      -1.927   7.004  -4.436  0.00  0.00    -0.270 NA
ATOM     24  C   UNL     1      -2.508   7.019  -3.096  0.00  0.00    +0.090 C 
ENDBRANCH  21  23
ENDBRANCH  20  21
ENDBRANCH  19  20
ENDBRANCH   1  19
TORSDOF 6
ENDMDL
MODEL 4
REMARK VINA RESULT:      -7.2      1.266      5.793
REMARK  Name = 
REMARK  6 active torsions:
REMARK  status: ('A' for Active; 'I' for Inactive)
REMARK    1  A    between atoms: N_2  and  C_4
REMARK    2  A    between atoms: C_4  and  C_5
REMARK    3  A    between atoms: C_5  and  C_6
REMARK    4  A    between atoms: C_6  and  C_7
REMARK    5  A    between atoms: C_7  and  C_8
REMARK    6  A    between atoms: C_19  and  C_20
REMARK                            x       y       z     vdW  Elec       q    Type
REMARK                         _______ _______ _______ _____ _____    ______ ____
ROOT
ATOM      1  C   UNL     1       2.926   6.295  -8.956  0.00  0.00    +0.130 C 
ATOM      2  C   UNL     1       4.159   6.550  -9.744  0.00  0.00    +0.004 A 
ATOM      3  C   UNL     1       4.571   5.286 -10.150  0.00  0.00    +0.006 A 
ATOM      4  C   UNL     1       5.625   5.139 -11.036  0.00  0.00    +0.008 A 
ATOM      5  C   UNL     1       6.404   6.232 -11.318  0.00  0.00    +0.068 A 
ATOM      6  C   UNL     1       5.849   7.488 -11.113  0.00  0.00    +0.010 A 
ATOM      7  C   UNL     1       3.750   4.342  -9.330  0.00  0.00    +0.169 C 
ATOM      8  C   UNL     1       4.579   7.592 -10.561  0.00  0.00    -0.001 A 
ATOM      9  O   UNL     1       3.259   5.132  -8.279  0.00  0.00    -0.346 OA
ENDROOT
BRANCH   1  10
ATOM     10  C   UNL     1       1.816   6.014  -9.886  0.00  0.00    +0.006 A 
ATOM     11  C   UNL     1       0.966   4.954  -9.688  0.00  0.00    +0.001 A 
ATOM     12  C   UNL     1       0.231   4.433 -10.737  0.00  0.00    +0.029 A 
ATOM     13  C   UNL     1       0.466   4.933 -12.011  0.00  0.00    +0.140 A 
ATOM     14  F   UNL     1       0.261   4.184 -13.121  0.00  0.00    -0.204 F 
ATOM     15  C   UNL     1       0.924   6.235 -12.073  0.00  0.00    +0.029 A 
ATOM     16  C   UNL     1       1.617   6.794 -11.008  0.00  0.00    +0.001 A 
ENDBRANCH   1  10
BRANCH   5  17
ATOM     17  C   UNL     1       7.813   6.140 -11.613  0.00  0.00    +0.100 C 
ATOM     18  N   UNL     1       8.900   5.974 -11.943  0.00  0.00    -0.191 NA
ENDBRANCH   5  17
BRANCH   1  19
ATOM     19  C   UNL     1       2.553   7.432  -8.053  0.00  0.00    +0.037 C 
BRANCH  19  20
ATOM     20  C   UNL     1       2.630   7.020  -6.598  0.00  0.00    +0.020 C 
BRANCH  20  21
ATOM     21  C   UNL     1       1.203   6.810  -6.126  0.00  0.00    +0.072 C 
BRANCH  21  23
ATOM     22  C   UNL     1       0.213   5.040  -6.100  0.00  0.00    +0.090 C 
ATOM     23  N   UNL     1       0.950   5.440  -5.737  0.00  0.00    -0.270 NA
ATOM     24  C   UNL     1       1.030   5.359  -4.281  0.00  0.00    +0.090 C 
ENDBRANCH  21  23
ENDBRANCH  20  21
ENDBRANCH  19  20
ENDBRANCH   1  19
TORSDOF 6
ENDMDL
MODEL 5
REMARK VINA RESULT:      -7.1      3.536      6.463
REMARK  Name = 
REMARK  6 active torsions:
REMARK  status: ('A' for Active; 'I' for Inactive)
REMARK    1  A    between atoms: N_2  and  C_4
REMARK    2  A    between atoms: C_4  and  C_5
REMARK    3  A    between atoms: C_5  and  C_6
REMARK    4  A    between atoms: C_6  and  C_7
REMARK    5  A    between atoms: C_7  and  C_8
REMARK    6  A    between atoms: C_19  and  C_20
REMARK                            x       y       z     vdW  Elec       q    Type
REMARK                         _______ _______ _______ _____ _____    ______ ____
ROOT
ATOM      1  C   UNL     1       0.396   5.460  -6.138  0.00  0.00    +0.130 C 
ATOM      2  C   UNL     1       1.235   5.655  -4.928  0.00  0.00    +0.004 A 
ATOM      3  C   UNL     1       2.302   4.782  -5.108  0.00  0.00    +0.006 A 
ATOM      4  C   UNL     1       3.376   4.792  -4.235  0.00  0.00    +0.008 A 
ATOM      5  C   UNL     1       3.266   5.498  -3.064  0.00  0.00    +0.068 A 
ATOM      6  C   UNL     1       2.334   6.527  -3.019  0.00  0.00    +0.010 A 
ATOM      7  C   UNL     1       1.881   3.904  -6.244  0.00  0.00    +0.169 C 
ATOM      8  C   UNL     1       1.505   6.746  -4.111  0.00  0.00    -0.001 A 
ATOM      9  O   UNL     1       0.492   4.090  -6.330  0.00  0.00    -0.346 OA
ENDROOT
BRANCH   1  10
ATOM     10  C   UNL     1       1.031   6.154  -7.274  0.00  0.00    +0.006 A 
ATOM     11  C   UNL     1       1.008   5.626  -8.541  0.00  0.00    +0.001 A 
ATOM     12  C   UNL     1       1.936   6.019  -9.488  0.00  0.00    +0.029 A 
ATOM     13  C   UNL     1       2.957   6.871  -9.087  0.00  0.00    +0.140 A 
ATOM     14  F   UNL     1       4.164   6.877  -9.703  0.00  0.00    -0.204 F 
ATOM     15  C   UNL     1       2.667   7.702  -8.022  0.00  0.00    +0.029 A 
ATOM     16  C   UNL     1       1.700   7.349  -7.091  0.00  0.00    +0.001 A 
ENDBRANCH   1  10
BRANCH   5  17
ATOM     17  C   UNL     1       3.910   5.096  -1.838  0.00  0.00    +0.100 C 
ATOM     18  N   UNL     1       4.414   4.907  -0.824  0.00  0.00    -0.191 NA
ENDBRANCH   5  17
BRANCH   1  19
ATOM     19  C   UNL     1      -1.011   5.948  -5.969  0.00  0.00    +0.037 C 
BRANCH  19  20
ATOM     20  C   UNL     1      -1.559   5.568  -4.609  0.00  0.00    +0.020 C 
BRANCH  20  21
ATOM     21  C   UNL     1      -2.606   6.608  -4.253  0.00  0.00    +0.072 C 
BRANCH  21  23
ATOM     22  C   UNL     1      -2.059   7.519  -2.526  0.00  0.00    +0.090 C 
ATOM     23  N   UNL     1      -2.641   6.886  -2.834  0.00  0.00    -0.270 NA
ATOM     24  C   UNL     1      -2.590   5.613  -2.120  0.00  0.00    +0.090 C 
ENDBRANCH  21  23
ENDBRANCH  20  21
ENDBRANCH  19  20
ENDBRANCH   1  19
TORSDOF 6
ENDMDL
MODEL 6
REMARK VINA RESULT:      -7.0      2.676      4.504
REMARK  Name = 
REMARK  6 active torsions:
REMARK  status: ('A' for Active; 'I' for Inactive)
REMARK    1  A    between atoms: N_2  and  C_4
REMARK    2  A    between atoms: C_4  and  C_5
REMARK    3  A    between atoms: C_5  and  C_6
REMARK    4  A    between atoms: C_6  and  C_7
REMARK    5  A    between atoms: C_7  and  C_8
REMARK    6  A    between atoms: C_19  and  C_20
REMARK                            x       y       z     vdW  Elec       q    Type
REMARK                         _______ _______ _______ _____ _____    ______ ____
ROOT
ATOM      1  C   UNL     1       2.512   5.795  -8.270  0.00  0.00    +0.130 C 
ATOM      2  C   UNL     1       2.768   6.048  -6.829  0.00  0.00    +0.004 A 
ATOM      3  C   UNL     1       2.941   4.780  -6.286  0.00  0.00    +0.006 A 
ATOM      4  C   UNL     1       3.344   4.625  -4.971  0.00  0.00    +0.008 A 
ATOM      5  C   UNL     1       3.339   5.721  -4.148  0.00  0.00    +0.068 A 
ATOM      6  C   UNL     1       3.406   6.973  -4.744  0.00  0.00    +0.010 A 
ATOM      7  C   UNL     1       2.472   3.846  -7.357  0.00  0.00    +0.169 C 
ATOM      8  C   UNL     1       3.393   7.073  -6.129  0.00  0.00    -0.001 A 
ATOM      9  O   UNL     1       1.720   4.658  -8.221  0.00  0.00    -0.346 OA
ENDROOT
BRANCH   1  10
ATOM     10  C   UNL     1       3.789   5.469  -8.931  0.00  0.00    +0.006 A 
ATOM     11  C   UNL     1       4.974   5.470  -8.240  0.00  0.00    +0.001 A 
ATOM     12  C   UNL     1       6.180   5.599  -8.905  0.00  0.00    +0.029 A 
ATOM     13  C   UNL     1       6.149   5.844 -10.271  0.00  0.00    +0.140 A 
ATOM     14  F   UNL     1       7.146   6.514 -10.899  0.00  0.00    -0.204 F 
ATOM     15  C   UNL     1       5.041   5.370 -10.945  0.00  0.00    +0.029 A 
ATOM     16  C   UNL     1       3.835   5.183 -10.282  0.00  0.00    +0.001 A 
ENDBRANCH   1  10
BRANCH   5  17
ATOM     17  C   UNL     1       3.062   5.644  -2.734  0.00  0.00    +0.100 C 
ATOM     18  N   UNL     1       2.975   5.558  -1.593  0.00  0.00    -0.191 NA
ENDBRANCH   5  17
BRANCH   1  19
ATOM     19  C   UNL     1       1.862   6.952  -8.968  0.00  0.00    +0.037 C 
BRANCH  19  20
ATOM     20  C   UNL     1       0.519   6.555  -9.545  0.00  0.00    +0.020 C 
BRANCH  20  21
ATOM     21  C   UNL     1       0.653   6.629 -11.055  0.00  0.00    +0.072 C 
BRANCH  21  23
ATOM     22  C   UNL     1       0.015   4.708 -11.182  0.00  0.00    +0.090 C 
ATOM     23  N   UNL     1       0.148   5.442 -11.709  0.00  0.00    -0.270 NA
ATOM     24  C   UNL     1       0.962   5.196 -12.897  0.00  0.00    +0.090 C 
ENDBRANCH  21  23
ENDBRANCH  20  21
ENDBRANCH  19  20
ENDBRANCH   1  19
TORSDOF 6
ENDMDL
MODEL 7
REMARK VINA RESULT:      -7.0      3.200      5.515
REMARK  Name = 
REMARK  6 active torsions:
REMARK  status: ('A' for Active; 'I' for Inactive)
REMARK    1  A    between atoms: N_2  and  C_4
REMARK    2  A    between atoms: C_4  and  C_5
REMARK    3  A    between atoms: C_5  and  C_6
REMARK    4  A    between atoms: C_6  and  C_7
REMARK    5  A    between atoms: C_7  and  C_8
REMARK    6  A    between atoms: C_19  and  C_20
REMARK                            x       y       z     vdW  Elec       q    Type
REMARK                         _______ _______ _______ _____ _____    ______ ____
ROOT
ATOM      1  C   UNL     1       0.846   5.791  -8.739  0.00  0.00    +0.130 C 
ATOM      2  C   UNL     1       2.277   5.418  -8.883  0.00  0.00    +0.004 A 
ATOM      3  C   UNL     1       2.958   6.392  -8.163  0.00  0.00    +0.006 A 
ATOM      4  C   UNL     1       4.322   6.289  -7.952  0.00  0.00    +0.008 A 
ATOM      5  C   UNL     1       5.028   5.349  -8.659  0.00  0.00    +0.068 A 
ATOM      6  C   UNL     1       4.326   4.261  -9.161  0.00  0.00    +0.010 A 
ATOM      7  C   UNL     1       1.933   7.450  -7.900  0.00  0.00    +0.169 C 
ATOM      8  C   UNL     1       2.946   4.207  -9.005  0.00  0.00    -0.001 A 
ATOM      9  O   UNL     1       0.906   7.174  -8.817  0.00  0.00    -0.346 OA
ENDROOT
BRANCH   1  10
ATOM     10  C   UNL     1       0.386   5.401  -7.394  0.00  0.00    +0.006 A 
ATOM     11  C   UNL     1      -0.860   5.748  -6.934  0.00  0.00    +0.001 A 
ATOM     12  C   UNL     1      -1.130   5.777  -5.577  0.00  0.00    +0.029 A 
ATOM     13  C   UNL     1      -0.078   5.561  -4.698  0.00  0.00    +0.140 A 
ATOM     14  F   UNL     1      -0.071   6.089  -3.449  0.00  0.00    -0.204 F 
ATOM     15  C   UNL     1       0.958   4.783  -5.175  0.00  0.00    +0.029 A 
ATOM     16  C   UNL     1       1.212   4.698  -6.538  0.00  0.00    +0.001 A 
ENDBRANCH   1  10
BRANCH   5  17
ATOM     17  C   UNL     1       6.396   5.538  -9.074  0.00  0.00    +0.100 C 
ATOM     18  N   UNL     1       7.515   5.585  -9.323  0.00  0.00    -0.191 NA
ENDBRANCH   5  17
BRANCH   1  19
ATOM     19  C   UNL     1      -0.037   5.167  -9.777  0.00  0.00    +0.037 C 
BRANCH  19  20
ATOM     20  C   UNL     1      -0.076   6.008 -11.036  0.00  0.00    +0.020 C 
BRANCH  20  21
ATOM     21  C   UNL     1       0.537   5.169 -12.142  0.00  0.00    +0.072 C 
BRANCH  21  23
ATOM     22  C   UNL     1       1.949   5.915 -13.392  0.00  0.00    +0.090 C 
ATOM     23  N   UNL     1       1.054   5.981 -13.222  0.00  0.00    -0.270 NA
ATOM     24  C   UNL     1       0.569   7.346 -13.037  0.00  0.00    +0.090 C 
ENDBRANCH  21  23
ENDBRANCH  20  21
ENDBRANCH  19  20
ENDBRANCH   1  19
TORSDOF 6
ENDMDL
MODEL 8
REMARK VINA RESULT:      -7.0      5.048      7.991
REMARK  Name = 
REMARK  6 active torsions:
REMARK  status: ('A' for Active; 'I' for Inactive)
REMARK    1  A    between atoms: N_2  and  C_4
REMARK    2  A    between atoms: C_4  and  C_5
REMARK    3  A    between atoms: C_5  and  C_6
REMARK    4  A    between atoms: C_6  and  C_7
REMARK    5  A    between atoms: C_7  and  C_8
REMARK    6  A    between atoms: C_19  and  C_20
REMARK                            x       y       z     vdW  Elec       q    Type
REMARK                         _______ _______ _______ _____ _____    ______ ____
ROOT
ATOM      1  C   UNL     1       3.718   5.782  -2.704  0.00  0.00    +0.130 C 
ATOM      2  C   UNL     1       2.258   5.865  -2.967  0.00  0.00    +0.004 A 
ATOM      3  C   UNL     1       1.673   5.351  -1.816  0.00  0.00    +0.006 A 
ATOM      4  C   UNL     1       0.301   5.402  -1.638  0.00  0.00    +0.008 A 
ATOM      5  C   UNL     1      -0.488   5.744  -2.707  0.00  0.00    +0.068 A 
ATOM      6  C   UNL     1       0.099   6.471  -3.733  0.00  0.00    +0.010 A 
ATOM      7  C   UNL     1       2.804   4.710  -1.075  0.00  0.00    +0.169 C 
ATOM      8  C   UNL     1       1.460   6.749  -3.683  0.00  0.00    -0.001 A 
ATOM      9  O   UNL     1       3.815   4.569  -2.039  0.00  0.00    -0.346 OA
ENDROOT
BRANCH   1  10
ATOM     10  C   UNL     1       4.098   6.871  -1.785  0.00  0.00    +0.006 A 
ATOM     11  C   UNL     1       4.765   6.619  -0.612  0.00  0.00    +0.001 A 
ATOM     12  C   UNL     1       4.737   7.531   0.427  0.00  0.00    +0.029 A 
ATOM     13  C   UNL     1       3.923   8.648   0.293  0.00  0.00    +0.140 A 
ATOM     14  F   UNL     1       3.391   9.276   1.370  0.00  0.00    -0.204 F 
ATOM     15  C   UNL     1       3.688   9.072  -1.000  0.00  0.00    +0.029 A 
ATOM     16  C   UNL     1       3.764   8.182  -2.063  0.00  0.00    +0.001 A 
ENDBRANCH   1  10
BRANCH   5  17
ATOM     17  C   UNL     1      -1.816   5.216  -2.907  0.00  0.00    +0.100 C 
ATOM     18  N   UNL     1      -2.887   4.807  -2.930  0.00  0.00    -0.191 NA
ENDBRANCH   5  17
BRANCH   1  19
ATOM     19  C   UNL     1       4.550   5.856  -3.948  0.00  0.00    +0.037 C 
BRANCH  19  20
ATOM     20  C   UNL     1       4.153   4.776  -4.933  0.00  0.00    +0.020 C 
BRANCH  20  21
ATOM     21  C   UNL     1       4.022   5.447  -6.288  0.00  0.00    +0.072 C 
BRANCH  21  23
ATOM     22  C   UNL     1       2.217   5.780  -7.152  0.00  0.00    +0.090 C 
ATOM     23  N   UNL     1       2.788   5.094  -6.957  0.00  0.00    -0.270 NA
ATOM     24  C   UNL     1       2.179   3.983  -6.230  0.00  0.00    +0.090 C 
ENDBRANCH  21  23
ENDBRANCH  20  21
ENDBRANCH  19  20
ENDBRANCH   1  19
TORSDOF 6
ENDMDL
MODEL 9
REMARK VINA RESULT:      -6.8      2.707      3.543
REMARK  Name = 
REMARK  6 active torsions:
REMARK  status: ('A' for Active; 'I' for Inactive)
REMARK    1  A    between atoms: N_2  and  C_4
REMARK    2  A    between atoms: C_4  and  C_5
REMARK    3  A    between atoms: C_5  and  C_6
REMARK    4  A    between atoms: C_6  and  C_7
REMARK    5  A    between atoms: C_7  and  C_8
REMARK    6  A    between atoms: C_19  and  C_20
REMARK                            x       y       z     vdW  Elec       q    Type
REMARK                         _______ _______ _______ _____ _____    ______ ____
ROOT
ATOM      1  C   UNL     1       3.263   5.571  -7.322  0.00  0.00    +0.130 C 
ATOM      2  C   UNL     1       3.651   5.623  -5.889  0.00  0.00    +0.004 A 
ATOM      3  C   UNL     1       3.089   6.807  -5.426  0.00  0.00    +0.006 A 
ATOM      4  C   UNL     1       3.123   7.125  -4.079  0.00  0.00    +0.008 A 
ATOM      5  C   UNL     1       3.921   6.381  -3.248  0.00  0.00    +0.068 A 
ATOM      6  C   UNL     1       4.262   5.100  -3.661  0.00  0.00    +0.010 A 
ATOM      7  C   UNL     1       2.673   7.535  -6.666  0.00  0.00    +0.169 C 
ATOM      8  C   UNL     1       3.860   4.656  -4.914  0.00  0.00    -0.001 A 
ATOM      9  O   UNL     1       3.385   6.900  -7.696  0.00  0.00    -0.346 OA
ENDROOT
BRANCH   1  10
ATOM     10  C   UNL     1       1.847   5.168  -7.417  0.00  0.00    +0.006 A 
ATOM     11  C   UNL     1       1.097   5.445  -8.533  0.00  0.00    +0.001 A 
ATOM     12  C   UNL     1      -0.285   5.472  -8.466  0.00  0.00    +0.029 A 
ATOM     13  C   UNL     1      -0.881   5.330  -7.220  0.00  0.00    +0.140 A 
ATOM     14  F   UNL     1      -2.092   5.871  -6.943  0.00  0.00    -0.204 F 
ATOM     15  C   UNL     1      -0.163   4.610  -6.286  0.00  0.00    +0.029 A 
ATOM     16  C   UNL     1       1.221   4.526  -6.366  0.00  0.00    +0.001 A 
ENDBRANCH   1  10
BRANCH   5  17
ATOM     17  C   UNL     1       4.580   6.930  -2.088  0.00  0.00    +0.100 C 
ATOM     18  N   UNL     1       4.990   7.442  -1.147  0.00  0.00    -0.191 NA
ENDBRANCH   5  17
BRANCH   1  19
ATOM     19  C   UNL     1       4.110   4.636  -8.132  0.00  0.00    +0.037 C 
BRANCH  19  20
ATOM     20  C   UNL     1       5.329   5.346  -8.684  0.00  0.00    +0.020 C 
BRANCH  20  21
ATOM     21  C   UNL     1       5.157   5.404 -10.190  0.00  0.00    +0.072 C 
BRANCH  21  23
ATOM     22  C   UNL     1       6.513   5.545 -11.692  0.00  0.00    +0.090 C 
ATOM     23  N   UNL     1       6.347   5.882 -10.860  0.00  0.00    -0.270 NA
ATOM     24  C   UNL     1       7.466   5.775  -9.927  0.00  0.00    +0.090 C 
ENDBRANCH  21  23
ENDBRANCH  20  21
ENDBRANCH  19  20
ENDBRANCH   1  19
TORSDOF 6
ENDMDL
