MODEL 1
REMARK VINA RESULT:      -6.7      0.000      0.000
REMARK  Name = 
REMARK  6 active torsions:
REMARK  status: ('A' for Active; 'I' for Inactive)
REMARK    1  A    between atoms: O_2  and  C_3
REMARK    2  A    between atoms: C_3  and  C_5
REMARK    3  A    between atoms: C_11  and  C_12
REMARK    4  A    between atoms: N_19  and  C_20
REMARK    5  A    between atoms: C_20  and  C_21
REMARK    6  A    between atoms: C_21  and  C_22
REMARK                            x       y       z     vdW  Elec       q    Type
REMARK                         _______ _______ _______ _____ _____    ______ ____
ROOT
ATOM      1  C   UNL     1       1.927   5.218  -8.909  0.00  0.00    +0.118 C 
ATOM      2  C   UNL     1       3.438   4.533  -9.307  0.00  0.00    +0.036 C 
ATOM      3  C   UNL     1       4.167   4.988  -7.890  0.00  0.00    +0.021 C 
ATOM      4  C   UNL     1       2.719   5.713  -7.672  0.00  0.00    +0.058 C 
ATOM      5  N   UNL     1       2.325   5.051  -6.416  0.00  0.00    -0.275 NA
ATOM      6  C   UNL     1       3.166   7.155  -6.900  0.00  0.00    +0.017 C 
ATOM      7  C   UNL     1       1.703   7.197  -7.283  0.00  0.00    +0.018 C 
ATOM      8  C   UNL     1       2.738   5.975  -7.619  0.00  0.00    +0.068 C 
ENDROOT
BRANCH   2   9
ATOM      9  C   UNL     1       4.101   5.680 -10.175  0.00  0.00    -0.022 A 
ATOM     10  C   UNL     1       5.143   6.420  -9.784  0.00  0.00    -0.004 A 
ATOM     11  C   UNL     1       6.035   6.993 -10.692  0.00  0.00    +0.005 A 
ATOM     12  C   UNL     1       6.390   6.126 -11.723  0.00  0.00    +0.030 A 
ATOM     13  I   UNL     1       8.403   5.861 -12.313  0.00  0.00    -0.043 I 
ATOM     14  C   UNL     1       5.383   5.301 -12.201  0.00  0.00    +0.005 A 
ATOM     15  C   UNL     1       4.190   5.197 -11.490  0.00  0.00    -0.004 A 
ENDBRANCH   2   9
BRANCH   1  16
ATOM     16  C   UNL     1       1.932   6.505  -9.825  0.00  0.00    +0.318 C 
ATOM     17  O   UNL     1       1.063   7.310  -9.344  0.00  0.00    -0.250 OA
BRANCH  16  19
ATOM     18  C   UNL     1       0.586   6.477 -11.352  0.00  0.00    +0.256 C 
ATOM     19  O   UNL     1       1.607   6.274 -11.175  0.00  0.00    -0.444 OA
ENDBRANCH  16  19
ENDBRANCH   1  16
BRANCH   5  20
ATOM     20  C   UNL     1       0.962   5.426  -6.182  0.00  0.00    +0.075 C 
BRANCH  20  21
ATOM     21  C   UNL     1       0.668   5.016  -4.766  0.00  0.00    +0.055 C 
BRANCH  21  22
ATOM     22  C   UNL     1       1.718   5.566  -3.866  0.00  0.00    +0.195 C 
ATOM     23  F   UNL     1       1.786   6.931  -3.820  0.00  0.00    -0.234 F 
ENDBRANCH  21  22
ENDBRANCH  20  21
ENDBRANCH   5  20
TORSDOF 6
ENDMDL
MODEL 2
REMARK VINA RESULT:      -6.6      2.974      3.831
REMARK  Name = 
REMARK  6 active torsions:
REMARK  status: ('A' for Active; 'I' for Inactive)
REMARK    1  A    between atoms: O_2  and  C_3
REMARK    2  A    between atoms: C_3  and  C_5
REMARK    3  A    between atoms: C_11  and  C_12
REMARK    4  A    between atoms: N_19  and  C_20
REMARK    5  A    between atoms: C_20  and  C_21
REMARK    6  A    between atoms: C_21  and  C_22
REMARK                            x       y       z     vdW  Elec       q    Type
REMARK                         _______ _______ _______ _____ _____    ______ ____
ROOT
ATOM      1  C   UNL     1       1.463   4.678  -6.951  0.00  0.00    +0.118 C 
ATOM      2  C   UNL     1       1.863   4.304  -8.568  0.00  0.00    +0.036 C 
ATOM      3  C   UNL     1       3.186   5.302  -8.611  0.00  0.00    +0.021 C 
ATOM      4  C   UNL     1       2.635   5.678  -7.119  0.00  0.00    +0.058 C 
ATOM      5  N   UNL     1       3.834   5.317  -6.342  0.00  0.00    -0.275 NA
ATOM      6  C   UNL     1       2.952   7.342  -7.042  0.00  0.00    +0.017 C 
ATOM      7  C   UNL     1       2.112   6.913  -5.859  0.00  0.00    +0.018 C 
ATOM      8  C   UNL     1       2.595   5.940  -7.083  0.00  0.00    +0.068 C 
ENDROOT
BRANCH   2   9
ATOM      9  C   UNL     1       0.923   5.289  -9.376  0.00  0.00    -0.022 A 
ATOM     10  C   UNL     1       1.312   6.464  -9.882  0.00  0.00    -0.004 A 
ATOM     11  C   UNL     1       0.705   7.032 -11.004  0.00  0.00    +0.005 A 
ATOM     12  C   UNL     1       0.456   6.104 -12.012  0.00  0.00    +0.030 A 
ATOM     13  I   UNL     1       0.955   6.491 -14.030  0.00  0.00    -0.043 I 
ATOM     14  C   UNL     1       0.053   4.844 -11.598  0.00  0.00    +0.005 A 
ATOM     15  C   UNL     1       0.162   4.501 -10.252  0.00  0.00    -0.004 A 
ENDBRANCH   2   9
BRANCH   1  16
ATOM     16  C   UNL     1       0.211   5.618  -7.163  0.00  0.00    +0.318 C 
ATOM     17  O   UNL     1       0.071   6.301  -6.091  0.00  0.00    -0.250 OA
BRANCH  16  19
ATOM     18  C   UNL     1      -1.747   5.264  -6.734  0.00  0.00    +0.256 C 
ATOM     19  O   UNL     1      -1.000   4.946  -7.410  0.00  0.00    -0.444 OA
ENDBRANCH  16  19
ENDBRANCH   1  16
BRANCH   5  20
ATOM     20  C   UNL     1       3.450   5.394  -4.964  0.00  0.00    +0.075 C 
BRANCH  20  21
ATOM     21  C   UNL     1       4.729   5.291  -4.182  0.00  0.00    +0.055 C 
BRANCH  21  22
ATOM     22  C   UNL     1       5.122   6.643  -3.700  0.00  0.00    +0.195 C 
ATOM     23  F   UNL     1       5.675   7.459  -4.648  0.00  0.00    -0.234 F 
ENDBRANCH  21  22
ENDBRANCH  20  21
ENDBRANCH   5  20
TORSDOF 6
ENDMDL
MODEL 3
REMARK VINA RESULT:      -6.5      2.653      3.964
REMARK  Name = 
REMARK  6 active torsions:
REMARK  status: ('A' for Active; 'I' for Inactive)
REMARK    1  A    between atoms: O_2  and  C_3
REMARK    2  A    between atoms: C_3  and  C_5
REMARK    3  A    between atoms: C_11  and  C_12
REMARK    4  A    between atoms: N_19  and  C_20
REMARK    5  A    between atoms: C_20  and  C_21
REMARK    6  A    between atoms: C_21  and  C_22
REMARK                            x       y       z     vdW  Elec       q    Type
REMARK                         _______ _______ _______ _____ _____    ______ ____
ROOT
ATOM      1  C   UNL     1       2.268   6.120  -5.550  0.00  0.00    +0.118 C 
ATOM      2  C   UNL     1       3.124   6.965  -6.762  0.00  0.00    +0.036 C 
ATOM      3  C   UNL     1       1.769   7.348  -7.637  0.00  0.00    +0.021 C 
ATOM      4  C   UNL     1       1.073   6.412  -6.492  0.00  0.00    +0.058 C 
ATOM      5  N   UNL     1       0.120   7.396  -5.949  0.00  0.00    -0.275 NA
ATOM      6  C   UNL     1      -0.113   5.594  -7.387  0.00  0.00    +0.017 C 
ATOM      7  C   UNL     1      -0.003   5.003  -5.998  0.00  0.00    +0.018 C 
ATOM      8  C   UNL     1       0.928   6.210  -6.593  0.00  0.00    +0.068 C 
ENDROOT
BRANCH   2   9
ATOM      9  C   UNL     1       3.578   5.791  -7.723  0.00  0.00    -0.022 A 
ATOM     10  C   UNL     1       3.111   5.600  -8.961  0.00  0.00    -0.004 A 
ATOM     11  C   UNL     1       3.863   4.969  -9.953  0.00  0.00    +0.005 A 
ATOM     12  C   UNL     1       5.192   5.384  -9.973  0.00  0.00    +0.030 A 
ATOM     13  I   UNL     1       6.166   5.919 -11.772  0.00  0.00    -0.043 I 
ATOM     14  C   UNL     1       5.776   5.621  -8.738  0.00  0.00    +0.005 A 
ATOM     15  C   UNL     1       4.972   5.682  -7.602  0.00  0.00    -0.004 A 
ENDBRANCH   2   9
BRANCH   1  16
ATOM     16  C   UNL     1       2.614   4.626  -5.928  0.00  0.00    +0.318 C 
ATOM     17  O   UNL     1       1.608   3.913  -5.587  0.00  0.00    -0.250 OA
BRANCH  16  19
ATOM     18  C   UNL     1       3.819   4.453  -4.297  0.00  0.00    +0.256 C 
ATOM     19  O   UNL     1       3.753   4.100  -5.290  0.00  0.00    -0.444 OA
ENDBRANCH  16  19
ENDBRANCH   1  16
BRANCH   5  20
ATOM     20  C   UNL     1      -0.444   6.795  -4.777  0.00  0.00    +0.075 C 
BRANCH  20  21
ATOM     21  C   UNL     1      -1.523   7.736  -4.320  0.00  0.00    +0.055 C 
BRANCH  21  22
ATOM     22  C   UNL     1      -2.686   7.637  -5.245  0.00  0.00    +0.195 C 
ATOM     23  F   UNL     1      -2.891   6.400  -5.789  0.00  0.00    -0.234 F 
ENDBRANCH  21  22
ENDBRANCH  20  21
ENDBRANCH   5  20
TORSDOF 6
ENDMDL
MODEL 4
REMARK VINA RESULT:      -6.5      4.173      7.063
REMARK  Name = 
REMARK  6 active torsions:
REMARK  status: ('A' for Active; 'I' for Inactive)
REMARK    1  A    between atoms: O_2  and  C_3
REMARK    2  A    between atoms: C_3  and  C_5
REMARK    3  A    between atoms: C_11  and  C_12
REMARK    4  A    between atoms: N_19  and  C_20
REMARK    5  A    between atoms: C_20  and  C_21
REMARK    6  A    between atoms: C_21  and  C_22
REMARK                            x       y       z     vdW  Elec       q    Type
REMARK                         _______ _______ _______ _____ _____    ______ ____
ROOT
ATOM      1  C   UNL     1       3.046   5.426  -5.972  0.00  0.00    +0.118 C 
ATOM      2  C   UNL     1       1.580   4.700  -5.483  0.00  0.00    +0.036 C 
ATOM      3  C   UNL     1       0.797   5.008  -6.912  0.00  0.00    +0.021 C 
ATOM      4  C   UNL     1       2.202   5.785  -7.221  0.00  0.00    +0.058 C 
ATOM      5  N   UNL     1       2.602   5.049  -8.433  0.00  0.00    -0.275 NA
ATOM      6  C   UNL     1       1.665   7.139  -8.088  0.00  0.00    +0.017 C 
ATOM      7  C   UNL     1       3.132   7.283  -7.747  0.00  0.00    +0.018 C 
ATOM      8  C   UNL     1       2.169   6.041  -7.293  0.00  0.00    +0.068 C 
ENDROOT
BRANCH   2   9
ATOM      9  C   UNL     1       0.879   5.876  -4.688  0.00  0.00    -0.022 A 
ATOM     10  C   UNL     1      -0.127   6.618  -5.162  0.00  0.00    -0.004 A 
ATOM     11  C   UNL     1      -1.066   7.224  -4.326  0.00  0.00    +0.005 A 
ATOM     12  C   UNL     1      -1.496   6.388  -3.298  0.00  0.00    +0.030 A 
ATOM     13  I   UNL     1      -3.545   6.161  -2.829  0.00  0.00    -0.043 I 
ATOM     14  C   UNL     1      -0.532   5.564  -2.737  0.00  0.00    +0.005 A 
ATOM     15  C   UNL     1       0.702   5.428  -3.370  0.00  0.00    -0.004 A 
ENDBRANCH   2   9
BRANCH   1  16
ATOM     16  C   UNL     1       2.995   6.778  -5.155  0.00  0.00    +0.318 C 
ATOM     17  O   UNL     1       3.873   7.555  -5.665  0.00  0.00    -0.250 OA
BRANCH  16  19
ATOM     18  C   UNL     1       4.061   7.298  -3.501  0.00  0.00    +0.256 C 
ATOM     19  O   UNL     1       3.274   6.652  -3.782  0.00  0.00    -0.444 OA
ENDBRANCH  16  19
ENDBRANCH   1  16
BRANCH   5  20
ATOM     20  C   UNL     1       3.938   5.471  -8.730  0.00  0.00    +0.075 C 
BRANCH  20  21
ATOM     21  C   UNL     1       4.210   4.993 -10.129  0.00  0.00    +0.055 C 
BRANCH  21  22
ATOM     22  C   UNL     1       3.960   6.105 -11.087  0.00  0.00    +0.195 C 
ATOM     23  F   UNL     1       4.544   7.297 -10.757  0.00  0.00    -0.234 F 
ENDBRANCH  21  22
ENDBRANCH  20  21
ENDBRANCH   5  20
TORSDOF 6
ENDMDL
MODEL 5
REMARK VINA RESULT:      -6.4      4.401      6.709
REMARK  Name = 
REMARK  6 active torsions:
REMARK  status: ('A' for Active; 'I' for Inactive)
REMARK    1  A    between atoms: O_2  and  C_3
REMARK    2  A    between atoms: C_3  and  C_5
REMARK    3  A    between atoms: C_11  and  C_12
REMARK    4  A    between atoms: N_19  and  C_20
REMARK    5  A    between atoms: C_20  and  C_21
REMARK    6  A    between atoms: C_21  and  C_22
REMARK                            x       y       z     vdW  Elec       q    Type
REMARK                         _______ _______ _______ _____ _____    ______ ____
ROOT
ATOM      1  C   UNL     1      -0.305   6.769  -3.246  0.00  0.00    +0.118 C 
ATOM      2  C   UNL     1      -0.451   7.496  -4.783  0.00  0.00    +0.036 C 
ATOM      3  C   UNL     1      -2.097   7.314  -4.859  0.00  0.00    +0.021 C 
ATOM      4  C   UNL     1      -1.821   6.525  -3.455  0.00  0.00    +0.058 C 
ATOM      5  N   UNL     1      -2.676   7.337  -2.571  0.00  0.00    -0.275 NA
ATOM      6  C   UNL     1      -2.938   5.252  -3.548  0.00  0.00    +0.017 C 
ATOM      7  C   UNL     1      -2.003   5.045  -2.376  0.00  0.00    +0.018 C 
ATOM      8  C   UNL     1      -1.920   6.276  -3.451  0.00  0.00    +0.068 C 
ENDROOT
BRANCH   2   9
ATOM      9  C   UNL     1      -0.136   6.285  -5.752  0.00  0.00    -0.022 A 
ATOM     10  C   UNL     1      -1.024   5.724  -6.580  0.00  0.00    -0.004 A 
ATOM     11  C   UNL     1      -0.644   5.090  -7.764  0.00  0.00    +0.005 A 
ATOM     12  C   UNL     1       0.329   5.795  -8.468  0.00  0.00    +0.030 A 
ATOM     13  I   UNL     1       0.167   6.143 -10.547  0.00  0.00    -0.043 I 
ATOM     14  C   UNL     1       1.299   6.426  -7.705  0.00  0.00    +0.005 A 
ATOM     15  C   UNL     1       1.118   6.539  -6.328  0.00  0.00    -0.004 A 
ENDBRANCH   2   9
BRANCH   1  16
ATOM     16  C   UNL     1       0.300   5.363  -3.638  0.00  0.00    +0.318 C 
ATOM     17  O   UNL     1       0.079   4.575  -2.655  0.00  0.00    -0.250 OA
BRANCH  16  19
ATOM     18  C   UNL     1       2.226   5.502  -2.996  0.00  0.00    +0.256 C 
ATOM     19  O   UNL     1       1.684   5.362  -3.891  0.00  0.00    -0.444 OA
ENDBRANCH  16  19
ENDBRANCH   1  16
BRANCH   5  20
ATOM     20  C   UNL     1      -2.392   6.902  -1.237  0.00  0.00    +0.075 C 
BRANCH  20  21
ATOM     21  C   UNL     1      -1.835   8.106  -0.530  0.00  0.00    +0.055 C 
BRANCH  21  22
ATOM     22  C   UNL     1      -0.664   7.696   0.293  0.00  0.00    +0.195 C 
ATOM     23  F   UNL     1      -0.244   6.409   0.103  0.00  0.00    -0.234 F 
ENDBRANCH  21  22
ENDBRANCH  20  21
ENDBRANCH   5  20
TORSDOF 6
ENDMDL
MODEL 6
REMARK VINA RESULT:      -6.4      2.635      3.988
REMARK  Name = 
REMARK  6 active torsions:
REMARK  status: ('A' for Active; 'I' for Inactive)
REMARK    1  A    between atoms: O_2  and  C_3
REMARK    2  A    between atoms: C_3  and  C_5
REMARK    3  A    between atoms: C_11  and  C_12
REMARK    4  A    between atoms: N_19  and  C_20
REMARK    5  A    between atoms: C_20  and  C_21
REMARK    6  A    between atoms: C_21  and  C_22
REMARK                            x       y       z     vdW  Elec       q    Type
REMARK                         _______ _______ _______ _____ _____    ______ ____
ROOT
ATOM      1  C   UNL     1       1.920   5.057  -4.849  0.00  0.00    +0.118 C 
ATOM      2  C   UNL     1       2.738   4.413  -6.201  0.00  0.00    +0.036 C 
ATOM      3  C   UNL     1       4.213   5.040  -5.774  0.00  0.00    +0.021 C 
ATOM      4  C   UNL     1       3.303   5.709  -4.593  0.00  0.00    +0.058 C 
ATOM      5  N   UNL     1       4.009   5.153  -3.425  0.00  0.00    -0.275 NA
ATOM      6  C   UNL     1       4.014   7.239  -4.432  0.00  0.00    +0.017 C 
ATOM      7  C   UNL     1       2.732   7.171  -3.631  0.00  0.00    +0.018 C 
ATOM      8  C   UNL     1       3.326   5.975  -4.578  0.00  0.00    +0.068 C 
ENDROOT
BRANCH   2   9
ATOM      9  C   UNL     1       2.445   5.503  -7.312  0.00  0.00    -0.022 A 
ATOM     10  C   UNL     1       3.330   6.412  -7.736  0.00  0.00    -0.004 A 
ATOM     11  C   UNL     1       3.283   6.959  -9.019  0.00  0.00    +0.005 A 
ATOM     12  C   UNL     1       3.024   6.009 -10.004  0.00  0.00    +0.030 A 
ATOM     13  I   UNL     1       4.159   5.912 -11.785  0.00  0.00    -0.043 I 
ATOM     14  C   UNL     1       2.124   5.009  -9.667  0.00  0.00    +0.005 A 
ATOM     15  C   UNL     1       1.736   4.859  -8.337  0.00  0.00    -0.004 A 
ENDBRANCH   2   9
BRANCH   1  16
ATOM     16  C   UNL     1       1.127   6.248  -5.519  0.00  0.00    +0.318 C 
ATOM     17  O   UNL     1       0.722   7.007  -4.573  0.00  0.00    -0.250 OA
BRANCH  16  19
ATOM     18  C   UNL     1      -0.862   5.843  -5.671  0.00  0.00    +0.256 C 
ATOM     19  O   UNL     1       0.004   5.862  -6.275  0.00  0.00    -0.444 OA
ENDBRANCH  16  19
ENDBRANCH   1  16
BRANCH   5  20
ATOM     20  C   UNL     1       3.206   5.479  -2.285  0.00  0.00    +0.075 C 
BRANCH  20  21
ATOM     21  C   UNL     1       4.026   5.086  -1.088  0.00  0.00    +0.055 C 
BRANCH  21  22
ATOM     22  C   UNL     1       4.477   6.312  -0.374  0.00  0.00    +0.195 C 
ATOM     23  F   UNL     1       5.133   7.226  -1.151  0.00  0.00    -0.234 F 
ENDBRANCH  21  22
ENDBRANCH  20  21
ENDBRANCH   5  20
TORSDOF 6
ENDMDL
MODEL 7
REMARK VINA RESULT:      -6.4      3.687      6.084
REMARK  Name = 
REMARK  6 active torsions:
REMARK  status: ('A' for Active; 'I' for Inactive)
REMARK    1  A    between atoms: O_2  and  C_3
REMARK    2  A    between atoms: C_3  and  C_5
REMARK    3  A    between atoms: C_11  and  C_12
REMARK    4  A    between atoms: N_19  and  C_20
REMARK    5  A    between atoms: C_20  and  C_21
REMARK    6  A    between atoms: C_21  and  C_22
REMARK                            x       y       z     vdW  Elec       q    Type
REMARK                         _______ _______ _______ _____ _____    ______ ____
ROOT
ATOM      1  C   UNL     1       2.030   6.098  -9.742  0.00  0.00    +0.118 C 
ATOM      2  C   UNL     1       1.240   6.971  -8.506  0.00  0.00    +0.036 C 
ATOM      3  C   UNL     1       2.636   7.339  -7.691  0.00  0.00    +0.021 C 
ATOM      4  C   UNL     1       3.268   6.378  -8.852  0.00  0.00    +0.058 C 
ATOM      5  N   UNL     1       4.215   7.338  -9.446  0.00  0.00    -0.275 NA
ATOM      6  C   UNL     1       4.475   5.549  -7.997  0.00  0.00    +0.017 C 
ATOM      7  C   UNL     1       4.298   4.944  -9.373  0.00  0.00    +0.018 C 
ATOM      8  C   UNL     1       3.414   6.175  -8.756  0.00  0.00    +0.068 C 
ENDROOT
BRANCH   2   9
ATOM      9  C   UNL     1       0.805   5.816  -7.514  0.00  0.00    -0.022 A 
ATOM     10  C   UNL     1       1.270   5.670  -6.268  0.00  0.00    -0.004 A 
ATOM     11  C   UNL     1       0.526   5.053  -5.261  0.00  0.00    +0.005 A 
ATOM     12  C   UNL     1      -0.811   5.442  -5.259  0.00  0.00    +0.030 A 
ATOM     13  I   UNL     1      -1.804   6.009  -3.481  0.00  0.00    -0.043 I 
ATOM     14  C   UNL     1      -1.394   5.631  -6.503  0.00  0.00    +0.005 A 
ATOM     15  C   UNL     1      -0.586   5.675  -7.637  0.00  0.00    -0.004 A 
ENDBRANCH   2   9
BRANCH   1  16
ATOM     16  C   UNL     1       1.675   4.614  -9.333  0.00  0.00    +0.318 C 
ATOM     17  O   UNL     1       2.699   3.897  -9.600  0.00  0.00    -0.250 OA
BRANCH  16  19
ATOM     18  C   UNL     1       0.494   4.457 -10.983  0.00  0.00    +0.256 C 
ATOM     19  O   UNL     1       0.571   4.060 -10.008  0.00  0.00    -0.444 OA
ENDBRANCH  16  19
ENDBRANCH   1  16
BRANCH   5  20
ATOM     20  C   UNL     1       4.720   6.714 -10.632  0.00  0.00    +0.075 C 
BRANCH  20  21
ATOM     21  C   UNL     1       5.816   7.616 -11.128  0.00  0.00    +0.055 C 
BRANCH  21  22
ATOM     22  C   UNL     1       7.133   6.959 -10.903  0.00  0.00    +0.195 C 
ATOM     23  F   UNL     1       7.353   6.521  -9.627  0.00  0.00    -0.234 F 
ENDBRANCH  21  22
ENDBRANCH  20  21
ENDBRANCH   5  20
TORSDOF 6
ENDMDL
MODEL 8
REMARK VINA RESULT:      -6.3      3.715      5.628
REMARK  Name = 
REMARK  6 active torsions:
REMARK  status: ('A' for Active; 'I' for Inactive)
REMARK    1  A    between atoms: O_2  and  C_3
REMARK    2  A    between atoms: C_3  and  C_5
REMARK    3  A    between atoms: C_11  and  C_12
REMARK    4  A    between atoms: N_19  and  C_20
REMARK    5  A    between atoms: C_20  and  C_21
REMARK    6  A    between atoms: C_21  and  C_22
REMARK                            x       y       z     vdW  Elec       q    Type
REMARK                         _______ _______ _______ _____ _____    ______ ____
ROOT
ATOM      1  C   UNL     1       3.137   4.818  -8.212  0.00  0.00    +0.118 C 
ATOM      2  C   UNL     1       2.811   4.637  -6.547  0.00  0.00    +0.036 C 
ATOM      3  C   UNL     1       1.610   5.779  -6.522  0.00  0.00    +0.021 C 
ATOM      4  C   UNL     1       2.094   5.956  -8.073  0.00  0.00    +0.058 C 
ATOM      5  N   UNL     1       0.814   5.667  -8.741  0.00  0.00    -0.275 NA
ATOM      6  C   UNL     1       1.955   7.632  -8.290  0.00  0.00    +0.017 C 
ATOM      7  C   UNL     1       2.661   7.007  -9.474  0.00  0.00    +0.018 C 
ATOM      8  C   UNL     1       2.160   6.208  -8.136  0.00  0.00    +0.068 C 
ENDROOT
BRANCH   2   9
ATOM      9  C   UNL     1       3.905   5.576  -5.893  0.00  0.00    -0.022 A 
ATOM     10  C   UNL     1       3.688   6.838  -5.507  0.00  0.00    -0.004 A 
ATOM     11  C   UNL     1       4.418   7.441  -4.482  0.00  0.00    +0.005 A 
ATOM     12  C   UNL     1       4.607   6.603  -3.385  0.00  0.00    +0.030 A 
ATOM     13  I   UNL     1       4.265   7.264  -1.406  0.00  0.00    -0.043 I 
ATOM     14  C   UNL     1       4.831   5.265  -3.671  0.00  0.00    +0.005 A 
ATOM     15  C   UNL     1       4.610   4.796  -4.964  0.00  0.00    -0.004 A 
ENDBRANCH   2   9
BRANCH   1  16
ATOM     16  C   UNL     1       4.495   5.624  -8.164  0.00  0.00    +0.318 C 
ATOM     17  O   UNL     1       4.603   6.241  -9.279  0.00  0.00    -0.250 OA
BRANCH  16  19
ATOM     18  C   UNL     1       6.386   5.096  -8.701  0.00  0.00    +0.256 C 
ATOM     19  O   UNL     1       5.647   4.835  -7.993  0.00  0.00    -0.444 OA
ENDBRANCH  16  19
ENDBRANCH   1  16
BRANCH   5  20
ATOM     20  C   UNL     1       1.109   5.577 -10.140  0.00  0.00    +0.075 C 
BRANCH  20  21
ATOM     21  C   UNL     1      -0.218   5.682 -10.840  0.00  0.00    +0.055 C 
BRANCH  21  22
ATOM     22  C   UNL     1      -0.358   7.043 -11.428  0.00  0.00    +0.195 C 
ATOM     23  F   UNL     1      -1.638   7.516 -11.496  0.00  0.00    -0.234 F 
ENDBRANCH  21  22
ENDBRANCH  20  21
ENDBRANCH   5  20
TORSDOF 6
ENDMDL
MODEL 9
REMARK VINA RESULT:      -5.8      1.781      2.061
REMARK  Name = 
REMARK  6 active torsions:
REMARK  status: ('A' for Active; 'I' for Inactive)
REMARK    1  A    between atoms: O_2  and  C_3
REMARK    2  A    between atoms: C_3  and  C_5
REMARK    3  A    between atoms: C_11  and  C_12
REMARK    4  A    between atoms: N_19  and  C_20
REMARK    5  A    between atoms: C_20  and  C_21
REMARK    6  A    between atoms: C_21  and  C_22
REMARK                            x       y       z     vdW  Elec       q    Type
REMARK                         _______ _______ _______ _____ _____    ______ ____
ROOT
ATOM      1  C   UNL     1       1.599   4.489  -7.321  0.00  0.00    +0.118 C 
ATOM      2  C   UNL     1       3.255   4.603  -7.720  0.00  0.00    +0.036 C 
ATOM      3  C   UNL     1       3.557   5.852  -6.673  0.00  0.00    +0.021 C 
ATOM      4  C   UNL     1       1.940   5.736  -6.467  0.00  0.00    +0.058 C 
ATOM      5  N   UNL     1       1.918   5.479  -5.016  0.00  0.00    -0.275 NA
ATOM      6  C   UNL     1       1.494   7.363  -6.297  0.00  0.00    +0.017 C 
ATOM      7  C   UNL     1       0.263   6.493  -6.422  0.00  0.00    +0.018 C 
ATOM      8  C   UNL     1       1.810   5.967  -6.507  0.00  0.00    +0.068 C 
ENDROOT
BRANCH   2   9
ATOM      9  C   UNL     1       3.221   5.515  -9.013  0.00  0.00    -0.022 A 
ATOM     10  C   UNL     1       3.509   6.820  -9.029  0.00  0.00    -0.004 A 
ATOM     11  C   UNL     1       4.009   7.461 -10.164  0.00  0.00    +0.005 A 
ATOM     12  C   UNL     1       4.989   6.719 -10.818  0.00  0.00    +0.030 A 
ATOM     13  I   UNL     1       6.811   7.589 -11.445  0.00  0.00    -0.043 I 
ATOM     14  C   UNL     1       4.794   5.347 -10.854  0.00  0.00    +0.005 A 
ATOM     15  C   UNL     1       3.811   4.775 -10.050  0.00  0.00    -0.004 A 
ENDBRANCH   2   9
BRANCH   1  16
ATOM     16  C   UNL     1       0.940   5.148  -8.597  0.00  0.00    +0.318 C 
ATOM     17  O   UNL     1      -0.272   5.421  -8.292  0.00  0.00    -0.250 OA
BRANCH  16  19
ATOM     18  C   UNL     1       0.187   4.665 -10.425  0.00  0.00    +0.256 C 
ATOM     19  O   UNL     1       0.925   4.335  -9.745  0.00  0.00    -0.444 OA
ENDBRANCH  16  19
ENDBRANCH   1  16
BRANCH   5  20
ATOM     20  C   UNL     1       0.563   5.144  -4.694  0.00  0.00    +0.075 C 
BRANCH  20  21
ATOM     21  C   UNL     1       0.469   5.236  -3.196  0.00  0.00    +0.055 C 
BRANCH  21  22
ATOM     22  C   UNL     1      -0.881   5.736  -2.817  0.00  0.00    +0.195 C 
ATOM     23  F   UNL     1      -1.925   4.960  -3.238  0.00  0.00    -0.234 F 
ENDBRANCH  21  22
ENDBRANCH  20  21
ENDBRANCH   5  20
TORSDOF 6
ENDMDL
