MODEL 1
REMARK VINA RESULT:      -7.9      0.000      0.000
REMARK  Name = 
REMARK  5 active torsions:
REMARK  status: ('A' for Active; 'I' for Inactive)
REMARK    1  A    between atoms: CA_2  and  C_3
REMARK    2  A    between atoms: CA_2  and  C_22
REMARK    3  A    between atoms: C_3  and  C_4
REMARK    4  A    between atoms: C_8  and  O_9
REMARK    5  A    between atoms: O_9  and  C_10
REMARK                            x       y       z     vdW  Elec       q    Type
REMARK                         _______ _______ _______ _____ _____    ______ ____
ROOT
ATOM      1  C   UNL     1      -0.121   5.750  -5.710  0.00  0.00    -0.019 A 
ATOM      2  C   UNL     1       1.216   6.079  -5.503  0.00  0.00    +0.005 A 
ATOM      3  C   UNL     1       2.210   5.713  -6.386  0.00  0.00    +0.065 A 
ATOM      4  I   UNL     1       4.265   5.865  -5.944  0.00  0.00    -0.039 I 
ATOM      5  C   UNL     1       1.808   5.499  -7.699  0.00  0.00    +0.156 A 
ATOM      6  C   UNL     1       0.452   5.515  -8.006  0.00  0.00    +0.065 A 
ATOM      7  I   UNL     1      -0.032   5.757 -10.049  0.00  0.00    -0.039 I 
ATOM      8  C   UNL     1      -0.522   5.513  -7.015  0.00  0.00    +0.005 A 
ENDROOT
BRANCH   1   9
ATOM      9  C   UNL     1      -0.916   5.515  -4.516  0.00  0.00    +0.057 C 
BRANCH   9  11
ATOM     10  N   UNL     1      -2.009   7.652  -4.449  0.00  0.00    -0.120 NA
ATOM     11  CA  UNL     1      -2.440   6.144  -4.806  0.00  0.00    +0.199 C 
BRANCH  11  12
ATOM     12  C   UNL     1      -2.921   5.865  -3.261  0.00  0.00    +0.382 C 
ATOM     13  OXT UNL     1      -3.211   6.955  -2.508  0.00  0.00    -0.244 OA
ATOM     14  O   UNL     1      -2.785   4.690  -2.898  0.00  0.00    -0.244 OA
ENDBRANCH  11  12
ENDBRANCH   9  11
ENDBRANCH   1   9
BRANCH   5  15
ATOM     15  O   UNL     1       2.657   4.821  -8.558  0.00  0.00    -0.453 OA
BRANCH  15  16
ATOM     16  C   UNL     1       3.448   5.432  -9.513  0.00  0.00    +0.146 A 
ATOM     17  C   UNL     1       4.791   5.725  -9.320  0.00  0.00    +0.047 A 
ATOM     18  C   UNL     1       5.646   5.786 -10.400  0.00  0.00    +0.072 A 
ATOM     19  I   UNL     1       7.723   6.040 -10.158  0.00  0.00    -0.039 I 
ATOM     20  C   UNL     1       5.153   5.559 -11.677  0.00  0.00    +0.206 A 
ATOM     21  O   UNL     1       5.970   5.044 -12.682  0.00  0.00    -0.286 OA
ATOM     22  C   UNL     1       3.791   5.580 -11.885  0.00  0.00    +0.072 A 
ATOM     23  I   UNL     1       3.062   5.562 -13.850  0.00  0.00    -0.039 I 
ATOM     24  C   UNL     1       2.937   5.482 -10.795  0.00  0.00    +0.047 A 
ENDBRANCH  15  16
ENDBRANCH   5  15
TORSDOF 5
ENDMDL
MODEL 2
REMARK VINA RESULT:      -7.9      3.120      9.005
REMARK  Name = 
REMARK  5 active torsions:
REMARK  status: ('A' for Active; 'I' for Inactive)
REMARK    1  A    between atoms: CA_2  and  C_3
REMARK    2  A    between atoms: CA_2  and  C_22
REMARK    3  A    between atoms: C_3  and  C_4
REMARK    4  A    between atoms: C_8  and  O_9
REMARK    5  A    between atoms: O_9  and  C_10
REMARK                            x       y       z     vdW  Elec       q    Type
REMARK                         _______ _______ _______ _____ _____    ______ ____
ROOT
ATOM      1  C   UNL     1       4.968   5.724  -9.549  0.00  0.00    -0.019 A 
ATOM      2  C   UNL     1       3.622   5.960  -9.816  0.00  0.00    +0.005 A 
ATOM      3  C   UNL     1       2.623   5.601  -8.935  0.00  0.00    +0.065 A 
ATOM      4  I   UNL     1       0.578   5.603  -9.442  0.00  0.00    -0.039 I 
ATOM      5  C   UNL     1       2.995   5.505  -7.600  0.00  0.00    +0.156 A 
ATOM      6  C   UNL     1       4.339   5.621  -7.259  0.00  0.00    +0.065 A 
ATOM      7  I   UNL     1       4.746   6.037  -5.227  0.00  0.00    -0.039 I 
ATOM      8  C   UNL     1       5.342   5.604  -8.221  0.00  0.00    +0.005 A 
ENDROOT
BRANCH   1   9
ATOM      9  C   UNL     1       5.812   5.450 -10.701  0.00  0.00    +0.057 C 
BRANCH   9  11
ATOM     10  N   UNL     1       7.087   7.474 -10.901  0.00  0.00    -0.120 NA
ATOM     11  CA  UNL     1       7.349   5.995 -10.329  0.00  0.00    +0.199 C 
BRANCH  11  12
ATOM     12  C   UNL     1       7.949   5.490 -11.771  0.00  0.00    +0.382 C 
ATOM     13  OXT UNL     1       7.152   4.681 -12.512  0.00  0.00    -0.244 OA
ATOM     14  O   UNL     1       9.147   5.756 -11.937  0.00  0.00    -0.244 OA
ENDBRANCH  11  12
ENDBRANCH   9  11
ENDBRANCH   1   9
BRANCH   5  15
ATOM     15  O   UNL     1       2.160   4.843  -6.717  0.00  0.00    -0.453 OA
BRANCH  15  16
ATOM     16  C   UNL     1       1.417   5.467  -5.731  0.00  0.00    +0.146 A 
ATOM     17  C   UNL     1       0.170   6.032  -5.956  0.00  0.00    +0.047 A 
ATOM     18  C   UNL     1      -0.745   6.118  -4.927  0.00  0.00    +0.072 A 
ATOM     19  I   UNL     1      -2.715   6.789  -5.246  0.00  0.00    -0.039 I 
ATOM     20  C   UNL     1      -0.405   5.640  -3.669  0.00  0.00    +0.206 A 
ATOM     21  O   UNL     1      -1.381   5.167  -2.792  0.00  0.00    -0.286 OA
ATOM     22  C   UNL     1       0.916   5.376  -3.384  0.00  0.00    +0.072 A 
ATOM     23  I   UNL     1       1.469   4.971  -1.404  0.00  0.00    -0.039 I 
ATOM     24  C   UNL     1       1.824   5.256  -4.428  0.00  0.00    +0.047 A 
ENDBRANCH  15  16
ENDBRANCH   5  15
TORSDOF 5
ENDMDL
MODEL 3
REMARK VINA RESULT:      -7.8      1.091      3.048
REMARK  Name = 
REMARK  5 active torsions:
REMARK  status: ('A' for Active; 'I' for Inactive)
REMARK    1  A    between atoms: CA_2  and  C_3
REMARK    2  A    between atoms: CA_2  and  C_22
REMARK    3  A    between atoms: C_3  and  C_4
REMARK    4  A    between atoms: C_8  and  O_9
REMARK    5  A    between atoms: O_9  and  C_10
REMARK                            x       y       z     vdW  Elec       q    Type
REMARK                         _______ _______ _______ _____ _____    ______ ____
ROOT
ATOM      1  C   UNL     1      -0.537   5.525  -5.953  0.00  0.00    -0.019 A 
ATOM      2  C   UNL     1      -0.684   5.244  -7.309  0.00  0.00    +0.005 A 
ATOM      3  C   UNL     1       0.235   5.656  -8.250  0.00  0.00    +0.065 A 
ATOM      4  I   UNL     1      -0.117   5.577 -10.326  0.00  0.00    -0.039 I 
ATOM      5  C   UNL     1       1.528   5.868  -7.785  0.00  0.00    +0.156 A 
ATOM      6  C   UNL     1       1.777   5.804  -6.418  0.00  0.00    +0.065 A 
ATOM      7  I   UNL     1       3.801   5.564  -5.856  0.00  0.00    -0.039 I 
ATOM      8  C   UNL     1       0.746   5.760  -5.488  0.00  0.00    +0.005 A 
ENDROOT
BRANCH   1   9
ATOM      9  C   UNL     1      -1.767   5.718  -5.201  0.00  0.00    +0.057 C 
BRANCH   9  11
ATOM     10  N   UNL     1      -2.566   4.871  -3.102  0.00  0.00    -0.120 NA
ATOM     11  CA  UNL     1      -1.348   5.804  -3.583  0.00  0.00    +0.199 C 
BRANCH  11  12
ATOM     12  C   UNL     1      -2.237   7.165  -3.357  0.00  0.00    +0.382 C 
ATOM     13  OXT UNL     1      -1.912   8.237  -4.122  0.00  0.00    -0.244 OA
ATOM     14  O   UNL     1      -2.989   7.117  -2.375  0.00  0.00    -0.244 OA
ENDBRANCH  11  12
ENDBRANCH   9  11
ENDBRANCH   1   9
BRANCH   5  15
ATOM     15  O   UNL     1       2.414   6.585  -8.570  0.00  0.00    -0.453 OA
BRANCH  15  16
ATOM     16  C   UNL     1       3.240   6.022  -9.525  0.00  0.00    +0.146 A 
ATOM     17  C   UNL     1       2.840   5.771 -10.830  0.00  0.00    +0.047 A 
ATOM     18  C   UNL     1       3.771   5.761 -11.848  0.00  0.00    +0.072 A 
ATOM     19  I   UNL     1       3.204   5.573 -13.867  0.00  0.00    -0.039 I 
ATOM     20  C   UNL     1       5.106   5.999 -11.556  0.00  0.00    +0.206 A 
ATOM     21  O   UNL     1       5.960   6.562 -12.503  0.00  0.00    -0.286 OA
ATOM     22  C   UNL     1       5.529   5.936 -10.246  0.00  0.00    +0.072 A 
ATOM     23  I   UNL     1       7.584   5.971  -9.838  0.00  0.00    -0.039 I 
ATOM     24  C   UNL     1       4.588   5.982  -9.227  0.00  0.00    +0.047 A 
ENDBRANCH  15  16
ENDBRANCH   5  15
TORSDOF 5
ENDMDL
MODEL 4
REMARK VINA RESULT:      -7.5      3.448      8.525
REMARK  Name = 
REMARK  5 active torsions:
REMARK  status: ('A' for Active; 'I' for Inactive)
REMARK    1  A    between atoms: CA_2  and  C_3
REMARK    2  A    between atoms: CA_2  and  C_22
REMARK    3  A    between atoms: C_3  and  C_4
REMARK    4  A    between atoms: C_8  and  O_9
REMARK    5  A    between atoms: O_9  and  C_10
REMARK                            x       y       z     vdW  Elec       q    Type
REMARK                         _______ _______ _______ _____ _____    ______ ____
ROOT
ATOM      1  C   UNL     1       4.268   5.646 -12.267  0.00  0.00    -0.019 A 
ATOM      2  C   UNL     1       4.747   5.217 -11.032  0.00  0.00    +0.005 A 
ATOM      3  C   UNL     1       4.242   5.694  -9.841  0.00  0.00    +0.065 A 
ATOM      4  I   UNL     1       5.163   5.359  -7.976  0.00  0.00    -0.039 I 
ATOM      5  C   UNL     1       2.937   6.171  -9.882  0.00  0.00    +0.156 A 
ATOM      6  C   UNL     1       2.291   6.280 -11.108  0.00  0.00    +0.065 A 
ATOM      7  I   UNL     1       0.186   6.451 -11.035  0.00  0.00    -0.039 I 
ATOM      8  C   UNL     1       2.976   6.144 -12.310  0.00  0.00    +0.005 A 
ENDROOT
BRANCH   1   9
ATOM      9  C   UNL     1       5.236   5.691 -13.351  0.00  0.00    +0.057 C 
BRANCH   9  11
ATOM     10  N   UNL     1       6.508   7.325 -14.566  0.00  0.00    -0.120 NA
ATOM     11  CA  UNL     1       6.292   6.946 -13.019  0.00  0.00    +0.199 C 
BRANCH  11  12
ATOM     12  C   UNL     1       7.592   5.944 -13.032  0.00  0.00    +0.382 C 
ATOM     13  OXT UNL     1       7.403   4.709 -13.559  0.00  0.00    -0.244 OA
ATOM     14  O   UNL     1       8.559   6.367 -12.386  0.00  0.00    -0.244 OA
ENDBRANCH  11  12
ENDBRANCH   9  11
ENDBRANCH   1   9
BRANCH   5  15
ATOM     15  O   UNL     1       2.477   6.955  -8.838  0.00  0.00    -0.453 OA
BRANCH  15  16
ATOM     16  C   UNL     1       2.034   6.457  -7.626  0.00  0.00    +0.146 A 
ATOM     17  C   UNL     1       2.745   6.586  -6.441  0.00  0.00    +0.047 A 
ATOM     18  C   UNL     1       2.077   6.608  -5.234  0.00  0.00    +0.072 A 
ATOM     19  I   UNL     1       3.077   6.988  -3.420  0.00  0.00    -0.039 I 
ATOM     20  C   UNL     1       0.695   6.496  -5.216  0.00  0.00    +0.206 A 
ATOM     21  O   UNL     1      -0.059   7.065  -4.190  0.00  0.00    -0.286 OA
ATOM     22  C   UNL     1       0.040   6.062  -6.348  0.00  0.00    +0.072 A 
ATOM     23  I   UNL     1      -1.996   5.582  -6.225  0.00  0.00    -0.039 I 
ATOM     24  C   UNL     1       0.708   6.076  -7.565  0.00  0.00    +0.047 A 
ENDBRANCH  15  16
ENDBRANCH   5  15
TORSDOF 5
ENDMDL
MODEL 5
REMARK VINA RESULT:      -7.4      3.608      8.331
REMARK  Name = 
REMARK  5 active torsions:
REMARK  status: ('A' for Active; 'I' for Inactive)
REMARK    1  A    between atoms: CA_2  and  C_3
REMARK    2  A    between atoms: CA_2  and  C_22
REMARK    3  A    between atoms: C_3  and  C_4
REMARK    4  A    between atoms: C_8  and  O_9
REMARK    5  A    between atoms: O_9  and  C_10
REMARK                            x       y       z     vdW  Elec       q    Type
REMARK                         _______ _______ _______ _____ _____    ______ ____
ROOT
ATOM      1  C   UNL     1       1.022   5.342  -9.672  0.00  0.00    -0.019 A 
ATOM      2  C   UNL     1      -0.076   5.689  -8.888  0.00  0.00    +0.005 A 
ATOM      3  C   UNL     1      -0.131   5.419  -7.537  0.00  0.00    +0.065 A 
ATOM      4  I   UNL     1      -1.892   5.590  -6.393  0.00  0.00    -0.039 I 
ATOM      5  C   UNL     1       1.093   5.299  -6.891  0.00  0.00    +0.156 A 
ATOM      6  C   UNL     1       2.263   5.304  -7.644  0.00  0.00    +0.065 A 
ATOM      7  I   UNL     1       4.047   5.694  -6.581  0.00  0.00    -0.039 I 
ATOM      8  C   UNL     1       2.241   5.198  -9.030  0.00  0.00    +0.005 A 
ENDROOT
BRANCH   1   9
ATOM      9  C   UNL     1       0.739   4.994 -11.054  0.00  0.00    +0.057 C 
BRANCH   9  11
ATOM     10  N   UNL     1       0.410   7.015 -12.307  0.00  0.00    -0.120 NA
ATOM     11  CA  UNL     1       1.641   6.022 -12.018  0.00  0.00    +0.199 C 
BRANCH  11  12
ATOM     12  C   UNL     1       1.316   5.148 -13.369  0.00  0.00    +0.382 C 
ATOM     13  OXT UNL     1       1.819   5.623 -14.536  0.00  0.00    -0.244 OA
ATOM     14  O   UNL     1       0.485   4.247 -13.197  0.00  0.00    -0.244 OA
ENDBRANCH  11  12
ENDBRANCH   9  11
ENDBRANCH   1   9
BRANCH   5  15
ATOM     15  O   UNL     1       1.136   4.714  -5.637  0.00  0.00    -0.453 OA
BRANCH  15  16
ATOM     16  C   UNL     1       1.113   5.418  -4.447  0.00  0.00    +0.146 A 
ATOM     17  C   UNL     1      -0.057   5.779  -3.794  0.00  0.00    +0.047 A 
ATOM     18  C   UNL     1      -0.060   5.946  -2.425  0.00  0.00    +0.072 A 
ATOM     19  I   UNL     1      -1.837   6.308  -1.356  0.00  0.00    -0.039 I 
ATOM     20  C   UNL     1       1.114   5.757  -1.711  0.00  0.00    +0.206 A 
ATOM     21  O   UNL     1       1.087   5.344  -0.379  0.00  0.00    -0.286 OA
ATOM     22  C   UNL     1       2.313   5.709  -2.388  0.00  0.00    +0.072 A 
ATOM     23  I   UNL     1       4.101   5.750  -1.295  0.00  0.00    -0.039 I 
ATOM     24  C   UNL     1       2.308   5.505  -3.761  0.00  0.00    +0.047 A 
ENDBRANCH  15  16
ENDBRANCH   5  15
TORSDOF 5
ENDMDL
MODEL 6
REMARK VINA RESULT:      -7.3      3.310      8.465
REMARK  Name = 
REMARK  5 active torsions:
REMARK  status: ('A' for Active; 'I' for Inactive)
REMARK    1  A    between atoms: CA_2  and  C_3
REMARK    2  A    between atoms: CA_2  and  C_22
REMARK    3  A    between atoms: C_3  and  C_4
REMARK    4  A    between atoms: C_8  and  O_9
REMARK    5  A    between atoms: O_9  and  C_10
REMARK                            x       y       z     vdW  Elec       q    Type
REMARK                         _______ _______ _______ _____ _____    ______ ____
ROOT
ATOM      1  C   UNL     1       5.210   5.641  -9.560  0.00  0.00    -0.019 A 
ATOM      2  C   UNL     1       5.369   5.275  -8.226  0.00  0.00    +0.005 A 
ATOM      3  C   UNL     1       4.472   5.649  -7.249  0.00  0.00    +0.065 A 
ATOM      4  I   UNL     1       4.851   5.437  -5.187  0.00  0.00    -0.039 I 
ATOM      5  C   UNL     1       3.179   5.917  -7.680  0.00  0.00    +0.156 A 
ATOM      6  C   UNL     1       2.909   5.941  -9.044  0.00  0.00    +0.065 A 
ATOM      7  I   UNL     1       0.873   5.780  -9.589  0.00  0.00    -0.039 I 
ATOM      8  C   UNL     1       3.927   5.931  -9.991  0.00  0.00    +0.005 A 
ENDROOT
BRANCH   1   9
ATOM      9  C   UNL     1       6.433   5.852 -10.318  0.00  0.00    +0.057 C 
BRANCH   9  11
ATOM     10  N   UNL     1       7.519   4.840 -12.205  0.00  0.00    -0.120 NA
ATOM     11  CA  UNL     1       6.087   5.514 -11.920  0.00  0.00    +0.199 C 
BRANCH  11  12
ATOM     12  C   UNL     1       6.626   6.984 -12.415  0.00  0.00    +0.382 C 
ATOM     13  OXT UNL     1       6.836   7.911 -11.448  0.00  0.00    -0.244 OA
ATOM     14  O   UNL     1       6.601   7.140 -13.642  0.00  0.00    -0.244 OA
ENDBRANCH  11  12
ENDBRANCH   9  11
ENDBRANCH   1   9
BRANCH   5  15
ATOM     15  O   UNL     1       2.320   6.604  -6.840  0.00  0.00    -0.453 OA
BRANCH  15  16
ATOM     16  C   UNL     1       1.438   6.000  -5.963  0.00  0.00    +0.146 A 
ATOM     17  C   UNL     1       1.744   5.729  -4.637  0.00  0.00    +0.047 A 
ATOM     18  C   UNL     1       0.739   5.673  -3.694  0.00  0.00    +0.072 A 
ATOM     19  I   UNL     1       1.154   5.454  -1.641  0.00  0.00    -0.039 I 
ATOM     20  C   UNL     1      -0.576   5.884  -4.083  0.00  0.00    +0.206 A 
ATOM     21  O   UNL     1      -1.514   6.405  -3.193  0.00  0.00    -0.286 OA
ATOM     22  C   UNL     1      -0.896   5.840  -5.422  0.00  0.00    +0.072 A 
ATOM     23  I   UNL     1      -2.914   5.833  -5.986  0.00  0.00    -0.039 I 
ATOM     24  C   UNL     1       0.119   5.933  -6.365  0.00  0.00    +0.047 A 
ENDBRANCH  15  16
ENDBRANCH   5  15
TORSDOF 5
ENDMDL
MODEL 7
REMARK VINA RESULT:      -7.3      4.029      6.437
REMARK  Name = 
REMARK  5 active torsions:
REMARK  status: ('A' for Active; 'I' for Inactive)
REMARK    1  A    between atoms: CA_2  and  C_3
REMARK    2  A    between atoms: CA_2  and  C_22
REMARK    3  A    between atoms: C_3  and  C_4
REMARK    4  A    between atoms: C_8  and  O_9
REMARK    5  A    between atoms: O_9  and  C_10
REMARK                            x       y       z     vdW  Elec       q    Type
REMARK                         _______ _______ _______ _____ _____    ______ ____
ROOT
ATOM      1  C   UNL     1      -1.689   7.208  -0.307  0.00  0.00    -0.019 A 
ATOM      2  C   UNL     1      -0.389   6.716  -0.225  0.00  0.00    +0.005 A 
ATOM      3  C   UNL     1       0.160   5.922  -1.210  0.00  0.00    +0.065 A 
ATOM      4  I   UNL     1       1.967   4.864  -0.969  0.00  0.00    -0.039 I 
ATOM      5  C   UNL     1      -0.381   6.068  -2.482  0.00  0.00    +0.156 A 
ATOM      6  C   UNL     1      -1.508   6.863  -2.653  0.00  0.00    +0.065 A 
ATOM      7  I   UNL     1      -1.910   7.486  -4.632  0.00  0.00    -0.039 I 
ATOM      8  C   UNL     1      -2.243   7.334  -1.571  0.00  0.00    +0.005 A 
ENDROOT
BRANCH   1   9
ATOM      9  C   UNL     1      -2.394   7.371   0.953  0.00  0.00    +0.057 C 
BRANCH   9  11
ATOM     10  N   UNL     1      -2.293   7.739   3.324  0.00  0.00    -0.120 NA
ATOM     11  CA  UNL     1      -1.265   7.848   2.093  0.00  0.00    +0.199 C 
BRANCH  11  12
ATOM     12  C   UNL     1      -1.619   9.436   1.875  0.00  0.00    +0.382 C 
ATOM     13  OXT UNL     1      -0.624  10.219   1.388  0.00  0.00    -0.244 OA
ATOM     14  O   UNL     1      -2.704   9.780   2.359  0.00  0.00    -0.244 OA
ENDBRANCH  11  12
ENDBRANCH   9  11
ENDBRANCH   1   9
BRANCH   5  15
ATOM     15  O   UNL     1      -0.124   5.098  -3.435  0.00  0.00    -0.453 OA
BRANCH  15  16
ATOM     16  C   UNL     1       0.833   5.213  -4.426  0.00  0.00    +0.146 A 
ATOM     17  C   UNL     1       0.551   5.089  -5.779  0.00  0.00    +0.047 A 
ATOM     18  C   UNL     1       1.334   5.740  -6.710  0.00  0.00    +0.072 A 
ATOM     19  I   UNL     1       0.849   5.746  -8.759  0.00  0.00    -0.039 I 
ATOM     20  C   UNL     1       2.405   6.511  -6.282  0.00  0.00    +0.206 A 
ATOM     21  O   UNL     1       2.851   7.600  -7.030  0.00  0.00    -0.286 OA
ATOM     22  C   UNL     1       2.857   6.376  -4.988  0.00  0.00    +0.072 A 
ATOM     23  I   UNL     1       4.661   7.289  -4.439  0.00  0.00    -0.039 I 
ATOM     24  C   UNL     1       2.047   5.751  -4.049  0.00  0.00    +0.047 A 
ENDBRANCH  15  16
ENDBRANCH   5  15
TORSDOF 5
ENDMDL
MODEL 8
REMARK VINA RESULT:      -7.3      2.765      3.438
REMARK  Name = 
REMARK  5 active torsions:
REMARK  status: ('A' for Active; 'I' for Inactive)
REMARK    1  A    between atoms: CA_2  and  C_3
REMARK    2  A    between atoms: CA_2  and  C_22
REMARK    3  A    between atoms: C_3  and  C_4
REMARK    4  A    between atoms: C_8  and  O_9
REMARK    5  A    between atoms: O_9  and  C_10
REMARK                            x       y       z     vdW  Elec       q    Type
REMARK                         _______ _______ _______ _____ _____    ______ ____
ROOT
ATOM      1  C   UNL     1       0.762   6.018  -2.479  0.00  0.00    -0.019 A 
ATOM      2  C   UNL     1       1.958   6.591  -2.905  0.00  0.00    +0.005 A 
ATOM      3  C   UNL     1       2.531   6.279  -4.119  0.00  0.00    +0.065 A 
ATOM      4  I   UNL     1       4.495   6.831  -4.647  0.00  0.00    -0.039 I 
ATOM      5  C   UNL     1       1.662   5.826  -5.104  0.00  0.00    +0.156 A 
ATOM      6  C   UNL     1       0.335   5.573  -4.775  0.00  0.00    +0.065 A 
ATOM      7  I   UNL     1      -1.014   5.452  -6.398  0.00  0.00    -0.039 I 
ATOM      8  C   UNL     1      -0.098   5.542  -3.455  0.00  0.00    +0.005 A 
ENDROOT
BRANCH   1   9
ATOM      9  C   UNL     1       0.622   5.817  -1.046  0.00  0.00    +0.057 C 
BRANCH   9  11
ATOM     10  N   UNL     1       0.943   6.737   1.148  0.00  0.00    -0.120 NA
ATOM     11  CA  UNL     1       0.693   7.326  -0.326  0.00  0.00    +0.199 C 
BRANCH  11  12
ATOM     12  C   UNL     1      -0.931   7.363  -0.089  0.00  0.00    +0.382 C 
ATOM     13  OXT UNL     1      -1.548   6.167   0.079  0.00  0.00    -0.244 OA
ATOM     14  O   UNL     1      -1.441   8.475  -0.277  0.00  0.00    -0.244 OA
ENDBRANCH  11  12
ENDBRANCH   9  11
ENDBRANCH   1   9
BRANCH   5  15
ATOM     15  O   UNL     1       2.184   5.189  -6.217  0.00  0.00    -0.453 OA
BRANCH  15  16
ATOM     16  C   UNL     1       2.519   5.831  -7.396  0.00  0.00    +0.146 A 
ATOM     17  C   UNL     1       3.819   5.926  -7.872  0.00  0.00    +0.047 A 
ATOM     18  C   UNL     1       4.051   6.039  -9.227  0.00  0.00    +0.072 A 
ATOM     19  I   UNL     1       5.999   5.998 -10.026  0.00  0.00    -0.039 I 
ATOM     20  C   UNL     1       2.977   6.062 -10.105  0.00  0.00    +0.206 A 
ATOM     21  O   UNL     1       3.110   5.603 -11.415  0.00  0.00    -0.286 OA
ATOM     22  C   UNL     1       1.710   6.280  -9.612  0.00  0.00    +0.072 A 
ATOM     23  I   UNL     1       0.142   6.639 -10.955  0.00  0.00    -0.039 I 
ATOM     24  C   UNL     1       1.477   6.130  -8.251  0.00  0.00    +0.047 A 
ENDBRANCH  15  16
ENDBRANCH   5  15
TORSDOF 5
ENDMDL
MODEL 9
REMARK VINA RESULT:      -7.1      3.474      8.927
REMARK  Name = 
REMARK  5 active torsions:
REMARK  status: ('A' for Active; 'I' for Inactive)
REMARK    1  A    between atoms: CA_2  and  C_3
REMARK    2  A    between atoms: CA_2  and  C_22
REMARK    3  A    between atoms: C_3  and  C_4
REMARK    4  A    between atoms: C_8  and  O_9
REMARK    5  A    between atoms: O_9  and  C_10
REMARK                            x       y       z     vdW  Elec       q    Type
REMARK                         _______ _______ _______ _____ _____    ______ ____
ROOT
ATOM      1  C   UNL     1       4.208   5.637  -8.652  0.00  0.00    -0.019 A 
ATOM      2  C   UNL     1       2.830   5.839  -8.680  0.00  0.00    +0.005 A 
ATOM      3  C   UNL     1       2.022   5.542  -7.603  0.00  0.00    +0.065 A 
ATOM      4  I   UNL     1      -0.082   5.486  -7.717  0.00  0.00    -0.039 I 
ATOM      5  C   UNL     1       2.637   5.555  -6.358  0.00  0.00    +0.156 A 
ATOM      6  C   UNL     1       4.017   5.709  -6.283  0.00  0.00    +0.065 A 
ATOM      7  I   UNL     1       4.784   6.286  -4.400  0.00  0.00    -0.039 I 
ATOM      8  C   UNL     1       4.824   5.625  -7.412  0.00  0.00    +0.005 A 
ENDROOT
BRANCH   1   9
ATOM      9  C   UNL     1       4.829   5.281  -9.917  0.00  0.00    +0.057 C 
BRANCH   9  11
ATOM     10  N   UNL     1       4.560   5.529 -12.290  0.00  0.00    -0.120 NA
ATOM     11  CA  UNL     1       4.458   6.494 -11.009  0.00  0.00    +0.199 C 
BRANCH  11  12
ATOM     12  C   UNL     1       6.033   6.935 -11.155  0.00  0.00    +0.382 C 
ATOM     13  OXT UNL     1       6.959   5.976 -10.904  0.00  0.00    -0.244 OA
ATOM     14  O   UNL     1       6.203   8.152 -11.299  0.00  0.00    -0.244 OA
ENDBRANCH  11  12
ENDBRANCH   9  11
ENDBRANCH   1   9
BRANCH   5  15
ATOM     15  O   UNL     1       1.996   4.957  -5.286  0.00  0.00    -0.453 OA
BRANCH  15  16
ATOM     16  C   UNL     1       1.216   5.635  -4.368  0.00  0.00    +0.146 A 
ATOM     17  C   UNL     1      -0.172   5.620  -4.384  0.00  0.00    +0.047 A 
ATOM     18  C   UNL     1      -0.878   5.797  -3.213  0.00  0.00    +0.072 A 
ATOM     19  I   UNL     1      -2.973   5.597  -3.139  0.00  0.00    -0.039 I 
ATOM     20  C   UNL     1      -0.191   5.995  -2.024  0.00  0.00    +0.206 A 
ATOM     21  O   UNL     1      -0.744   5.613  -0.802  0.00  0.00    -0.286 OA
ATOM     22  C   UNL     1       1.148   6.316  -2.067  0.00  0.00    +0.072 A 
ATOM     23  I   UNL     1       2.103   6.932  -0.306  0.00  0.00    -0.039 I 
ATOM     24  C   UNL     1       1.860   6.102  -3.239  0.00  0.00    +0.047 A 
ENDBRANCH  15  16
ENDBRANCH   5  15
TORSDOF 5
ENDMDL
