MODEL 1
REMARK VINA RESULT:      -7.4      0.000      0.000
REMARK  Name = 
REMARK  2 active torsions:
REMARK  status: ('A' for Active; 'I' for Inactive)
REMARK    1  A    between atoms: N_2  and  C_3
REMARK    2  A    between atoms: C_6  and  C_7
REMARK                            x       y       z     vdW  Elec       q    Type
REMARK                         _______ _______ _______ _____ _____    ______ ____
ROOT
ATOM      1  C   UNL     1       0.274   6.165  -2.264  0.00  0.00    +0.095 C 
ATOM      2  C   UNL     1      -0.910   5.821  -3.338  0.00  0.00    -0.010 A 
ATOM      3  C   UNL     1      -0.545   5.792  -4.649  0.00  0.00    -0.021 A 
ATOM      4  C   UNL     1      -1.664   5.786  -5.486  0.00  0.00    -0.004 A 
ATOM      5  C   UNL     1      -2.957   5.596  -5.030  0.00  0.00    -0.000 A 
ATOM      6  C   UNL     1      -3.055   5.073  -3.745  0.00  0.00    -0.000 A 
ATOM      7  C   UNL     1       0.356   7.075  -5.143  0.00  0.00    +0.044 C 
ATOM      8  C   UNL     1       1.598   6.871  -4.051  0.00  0.00    +0.010 C 
ATOM      9  C   UNL     1      -2.056   5.310  -2.802  0.00  0.00    -0.003 A 
ATOM     10  C   UNL     1       1.433   5.607  -3.341  0.00  0.00    +0.023 C 
ENDROOT
BRANCH   7  11
ATOM     11  C   UNL     1       1.161   6.172  -6.240  0.00  0.00    -0.018 A 
ATOM     12  C   UNL     1       2.490   6.574  -6.365  0.00  0.00    +0.008 A 
ATOM     13  C   UNL     1       3.235   5.870  -7.305  0.00  0.00    +0.068 A 
ATOM     14 CL   UNL     1       4.921   5.564  -6.906  0.00  0.00    -0.081 Cl
ATOM     15  C   UNL     1       2.590   5.112  -8.274  0.00  0.00    +0.068 A 
ATOM     16 CL   UNL     1       3.573   3.989  -9.157  0.00  0.00    -0.081 Cl
ATOM     17  C   UNL     1       1.211   5.178  -8.343  0.00  0.00    +0.012 A 
ATOM     18  C   UNL     1       0.501   5.902  -7.392  0.00  0.00    -0.003 A 
ENDBRANCH   7  11
BRANCH   1  20
ATOM     19  C   UNL     1       1.453   4.690  -1.043  0.00  0.00    +0.108 C 
ATOM     20  N   UNL     1       0.174   4.722  -1.564  0.00  0.00    -0.214 NA
ENDBRANCH   1  20
TORSDOF 2
ENDMDL
MODEL 2
REMARK VINA RESULT:      -7.3      3.336      5.502
REMARK  Name = 
REMARK  2 active torsions:
REMARK  status: ('A' for Active; 'I' for Inactive)
REMARK    1  A    between atoms: N_2  and  C_3
REMARK    2  A    between atoms: C_6  and  C_7
REMARK                            x       y       z     vdW  Elec       q    Type
REMARK                         _______ _______ _______ _____ _____    ______ ____
ROOT
ATOM      1  C   UNL     1       4.329   5.684  -4.918  0.00  0.00    +0.095 C 
ATOM      2  C   UNL     1       3.831   5.374  -6.444  0.00  0.00    -0.010 A 
ATOM      3  C   UNL     1       2.486   5.297  -6.637  0.00  0.00    -0.021 A 
ATOM      4  C   UNL     1       2.183   4.745  -7.884  0.00  0.00    -0.004 A 
ATOM      5  C   UNL     1       3.128   4.530  -8.873  0.00  0.00    -0.000 A 
ATOM      6  C   UNL     1       4.331   5.204  -8.691  0.00  0.00    -0.000 A 
ATOM      7  C   UNL     1       1.686   4.364  -5.546  0.00  0.00    +0.044 C 
ATOM      8  C   UNL     1       2.166   5.199  -4.187  0.00  0.00    +0.010 C 
ATOM      9  C   UNL     1       4.783   5.521  -7.411  0.00  0.00    -0.003 A 
ATOM     10  C   UNL     1       2.860   6.422  -4.574  0.00  0.00    +0.023 C 
ENDROOT
BRANCH   7  11
ATOM     11  C   UNL     1       0.340   5.284  -5.646  0.00  0.00    -0.018 A 
ATOM     12  C   UNL     1      -0.246   5.478  -4.396  0.00  0.00    +0.008 A 
ATOM     13  C   UNL     1      -1.417   6.229  -4.403  0.00  0.00    +0.068 A 
ATOM     14 CL   UNL     1      -1.672   7.306  -3.035  0.00  0.00    -0.081 Cl
ATOM     15  C   UNL     1      -2.110   6.422  -5.592  0.00  0.00    +0.068 A 
ATOM     16 CL   UNL     1      -3.329   7.655  -5.584  0.00  0.00    -0.081 Cl
ATOM     17  C   UNL     1      -1.669   5.755  -6.719  0.00  0.00    +0.012 A 
ATOM     18  C   UNL     1      -0.501   5.004  -6.671  0.00  0.00    -0.003 A 
ENDBRANCH   7  11
BRANCH   1  20
ATOM     19  C   UNL     1       4.926   7.684  -4.080  0.00  0.00    +0.108 C 
ATOM     20  N   UNL     1       4.984   7.093  -5.328  0.00  0.00    -0.214 NA
ENDBRANCH   1  20
TORSDOF 2
ENDMDL
MODEL 3
REMARK VINA RESULT:      -7.2      2.143      4.390
REMARK  Name = 
REMARK  2 active torsions:
REMARK  status: ('A' for Active; 'I' for Inactive)
REMARK    1  A    between atoms: N_2  and  C_3
REMARK    2  A    between atoms: C_6  and  C_7
REMARK                            x       y       z     vdW  Elec       q    Type
REMARK                         _______ _______ _______ _____ _____    ______ ____
ROOT
ATOM      1  C   UNL     1       1.332   5.333  -3.987  0.00  0.00    +0.095 C 
ATOM      2  C   UNL     1       2.694   6.231  -4.092  0.00  0.00    -0.010 A 
ATOM      3  C   UNL     1       3.367   6.173  -5.274  0.00  0.00    -0.021 A 
ATOM      4  C   UNL     1       4.645   6.725  -5.158  0.00  0.00    -0.004 A 
ATOM      5  C   UNL     1       5.068   7.443  -4.053  0.00  0.00    -0.000 A 
ATOM      6  C   UNL     1       4.050   7.878  -3.211  0.00  0.00    -0.000 A 
ATOM      7  C   UNL     1       3.605   4.654  -5.857  0.00  0.00    +0.044 C 
ATOM      8  C   UNL     1       1.998   4.219  -5.926  0.00  0.00    +0.010 C 
ATOM      9  C   UNL     1       2.856   7.166  -3.111  0.00  0.00    -0.003 A 
ATOM     10  C   UNL     1       1.157   5.379  -5.656  0.00  0.00    +0.023 C 
ENDROOT
BRANCH   7  11
ATOM     11  C   UNL     1       3.541   5.167  -7.406  0.00  0.00    -0.018 A 
ATOM     12  C   UNL     1       2.644   4.416  -8.163  0.00  0.00    +0.008 A 
ATOM     13  C   UNL     1       2.557   4.774  -9.504  0.00  0.00    +0.068 A 
ATOM     14 CL   UNL     1       0.965   4.670 -10.246  0.00  0.00    -0.081 Cl
ATOM     15  C   UNL     1       3.556   5.549 -10.081  0.00  0.00    +0.068 A 
ATOM     16 CL   UNL     1       3.192   6.252 -11.624  0.00  0.00    -0.081 Cl
ATOM     17  C   UNL     1       4.673   5.842  -9.324  0.00  0.00    +0.012 A 
ATOM     18  C   UNL     1       4.730   5.456  -7.989  0.00  0.00    -0.003 A 
ENDBRANCH   7  11
BRANCH   1  20
ATOM     19  C   UNL     1      -0.818   5.994  -4.024  0.00  0.00    +0.108 C 
ATOM     20  N   UNL     1       0.393   6.626  -3.814  0.00  0.00    -0.214 NA
ENDBRANCH   1  20
TORSDOF 2
ENDMDL
MODEL 4
REMARK VINA RESULT:      -7.2      3.824      6.644
REMARK  Name = 
REMARK  2 active torsions:
REMARK  status: ('A' for Active; 'I' for Inactive)
REMARK    1  A    between atoms: N_2  and  C_3
REMARK    2  A    between atoms: C_6  and  C_7
REMARK                            x       y       z     vdW  Elec       q    Type
REMARK                         _______ _______ _______ _____ _____    ______ ____
ROOT
ATOM      1  C   UNL     1       4.458   5.482 -10.798  0.00  0.00    +0.095 C 
ATOM      2  C   UNL     1       2.828   5.371 -10.763  0.00  0.00    -0.010 A 
ATOM      3  C   UNL     1       2.262   5.160  -9.542  0.00  0.00    -0.021 A 
ATOM      4  C   UNL     1       0.921   4.790  -9.662  0.00  0.00    -0.004 A 
ATOM      5  C   UNL     1       0.212   4.861 -10.849  0.00  0.00    -0.000 A 
ATOM      6  C   UNL     1       0.803   5.640 -11.839  0.00  0.00    -0.000 A 
ATOM      7  C   UNL     1       2.962   3.966  -8.656  0.00  0.00    +0.044 C 
ATOM      8  C   UNL     1       4.496   4.616  -8.631  0.00  0.00    +0.010 C 
ATOM      9  C   UNL     1       2.188   5.793 -11.892  0.00  0.00    -0.003 A 
ATOM     10  C   UNL     1       4.474   5.963  -9.190  0.00  0.00    +0.023 C 
ENDROOT
BRANCH   7  11
ATOM     11  C   UNL     1       2.613   4.715  -7.247  0.00  0.00    -0.018 A 
ATOM     12  C   UNL     1       3.764   5.157  -6.598  0.00  0.00    +0.008 A 
ATOM     13  C   UNL     1       3.549   5.781  -5.374  0.00  0.00    +0.068 A 
ATOM     14 CL   UNL     1       4.605   7.132  -4.981  0.00  0.00    -0.081 Cl
ATOM     15  C   UNL     1       2.336   5.618  -4.716  0.00  0.00    +0.068 A 
ATOM     16 CL   UNL     1       2.017   6.707  -3.405  0.00  0.00    -0.081 Cl
ATOM     17  C   UNL     1       1.417   4.737  -5.252  0.00  0.00    +0.012 A 
ATOM     18  C   UNL     1       1.672   4.123  -6.473  0.00  0.00    -0.003 A 
ENDBRANCH   7  11
BRANCH   1  20
ATOM     19  C   UNL     1       5.743   7.315 -11.005  0.00  0.00    +0.108 C 
ATOM     20  N   UNL     1       4.427   7.009 -11.296  0.00  0.00    -0.214 NA
ENDBRANCH   1  20
TORSDOF 2
ENDMDL
MODEL 5
REMARK VINA RESULT:      -7.0      3.651      6.677
REMARK  Name = 
REMARK  2 active torsions:
REMARK  status: ('A' for Active; 'I' for Inactive)
REMARK    1  A    between atoms: N_2  and  C_3
REMARK    2  A    between atoms: C_6  and  C_7
REMARK                            x       y       z     vdW  Elec       q    Type
REMARK                         _______ _______ _______ _____ _____    ______ ____
ROOT
ATOM      1  C   UNL     1       4.377   5.691 -10.135  0.00  0.00    +0.095 C 
ATOM      2  C   UNL     1       2.841   5.570 -10.682  0.00  0.00    -0.010 A 
ATOM      3  C   UNL     1       1.877   5.381  -9.740  0.00  0.00    -0.021 A 
ATOM      4  C   UNL     1       0.666   5.000 -10.323  0.00  0.00    -0.004 A 
ATOM      5  C   UNL     1       0.428   5.043 -11.686  0.00  0.00    -0.000 A 
ATOM      6  C   UNL     1       1.335   5.806 -12.415  0.00  0.00    -0.000 A 
ATOM      7  C   UNL     1       2.212   4.209  -8.637  0.00  0.00    +0.044 C 
ATOM      8  C   UNL     1       3.637   4.869  -8.080  0.00  0.00    +0.010 C 
ATOM      9  C   UNL     1       2.647   5.967 -11.974  0.00  0.00    -0.003 A 
ATOM     10  C   UNL     1       3.818   6.205  -8.638  0.00  0.00    +0.023 C 
ENDROOT
BRANCH   7  11
ATOM     11  C   UNL     1       1.384   4.984  -7.462  0.00  0.00    -0.018 A 
ATOM     12  C   UNL     1       1.747   4.536  -6.193  0.00  0.00    +0.008 A 
ATOM     13  C   UNL     1       1.061   5.130  -5.139  0.00  0.00    +0.068 A 
ATOM     14 CL   UNL     1       1.980   5.426  -3.668  0.00  0.00    -0.081 Cl
ATOM     15  C   UNL     1      -0.125   5.811  -5.379  0.00  0.00    +0.068 A 
ATOM     16 CL   UNL     1      -0.710   6.821  -4.096  0.00  0.00    -0.081 Cl
ATOM     17  C   UNL     1      -0.650   5.777  -6.657  0.00  0.00    +0.012 A 
ATOM     18  C   UNL     1       0.060   5.164  -7.684  0.00  0.00    -0.003 A 
ENDBRANCH   7  11
BRANCH   1  20
ATOM     19  C   UNL     1       5.884   7.173 -10.903  0.00  0.00    +0.108 C 
ATOM     20  N   UNL     1       4.528   7.208 -10.642  0.00  0.00    -0.214 NA
ENDBRANCH   1  20
TORSDOF 2
ENDMDL
MODEL 6
REMARK VINA RESULT:      -7.0      3.686      5.931
REMARK  Name = 
REMARK  2 active torsions:
REMARK  status: ('A' for Active; 'I' for Inactive)
REMARK    1  A    between atoms: N_2  and  C_3
REMARK    2  A    between atoms: C_6  and  C_7
REMARK                            x       y       z     vdW  Elec       q    Type
REMARK                         _______ _______ _______ _____ _____    ______ ____
ROOT
ATOM      1  C   UNL     1       1.572   5.569  -5.073  0.00  0.00    +0.095 C 
ATOM      2  C   UNL     1      -0.059   5.686  -5.100  0.00  0.00    -0.010 A 
ATOM      3  C   UNL     1      -0.662   5.997  -3.920  0.00  0.00    -0.021 A 
ATOM      4  C   UNL     1      -2.041   5.782  -3.983  0.00  0.00    -0.004 A 
ATOM      5  C   UNL     1      -2.719   5.516  -5.161  0.00  0.00    -0.000 A 
ATOM      6  C   UNL     1      -2.012   5.811  -6.323  0.00  0.00    -0.000 A 
ATOM      7  C   UNL     1      -0.147   5.117  -2.631  0.00  0.00    +0.044 C 
ATOM      8  C   UNL     1       1.462   5.533  -2.742  0.00  0.00    +0.010 C 
ATOM      9  C   UNL     1      -0.620   5.757  -6.343  0.00  0.00    -0.003 A 
ATOM     10  C   UNL     1       1.636   6.584  -3.738  0.00  0.00    +0.023 C 
ENDROOT
BRANCH   7  11
ATOM     11  C   UNL     1      -0.404   6.356  -1.598  0.00  0.00    -0.018 A 
ATOM     12  C   UNL     1       0.564   6.403  -0.596  0.00  0.00    +0.008 A 
ATOM     13  C   UNL     1       0.396   7.416   0.341  0.00  0.00    +0.068 A 
ATOM     14 CL   UNL     1       1.860   8.174   0.955  0.00  0.00    -0.081 Cl
ATOM     15  C   UNL     1      -0.833   8.054   0.459  0.00  0.00    +0.068 A 
ATOM     16 CL   UNL     1      -0.852   9.528   1.373  0.00  0.00    -0.081 Cl
ATOM     17  C   UNL     1      -1.891   7.575  -0.289  0.00  0.00    +0.012 A 
ATOM     18  C   UNL     1      -1.687   6.553  -1.208  0.00  0.00    -0.003 A 
ENDBRANCH   7  11
BRANCH   1  20
ATOM     19  C   UNL     1       3.132   6.930  -5.951  0.00  0.00    +0.108 C 
ATOM     20  N   UNL     1       1.762   6.810  -6.075  0.00  0.00    -0.214 NA
ENDBRANCH   1  20
TORSDOF 2
ENDMDL
MODEL 7
REMARK VINA RESULT:      -7.0      3.116      5.491
REMARK  Name = 
REMARK  2 active torsions:
REMARK  status: ('A' for Active; 'I' for Inactive)
REMARK    1  A    between atoms: N_2  and  C_3
REMARK    2  A    between atoms: C_6  and  C_7
REMARK                            x       y       z     vdW  Elec       q    Type
REMARK                         _______ _______ _______ _____ _____    ______ ____
ROOT
ATOM      1  C   UNL     1       1.272   4.846  -7.030  0.00  0.00    +0.095 C 
ATOM      2  C   UNL     1       2.446   5.694  -6.272  0.00  0.00    -0.010 A 
ATOM      3  C   UNL     1       3.603   5.876  -6.965  0.00  0.00    -0.021 A 
ATOM      4  C   UNL     1       4.624   6.342  -6.134  0.00  0.00    -0.004 A 
ATOM      5  C   UNL     1       4.413   6.780  -4.838  0.00  0.00    -0.000 A 
ATOM      6  C   UNL     1       3.087   7.053  -4.520  0.00  0.00    -0.000 A 
ATOM      7  C   UNL     1       4.206   4.518  -7.669  0.00  0.00    +0.044 C 
ATOM      8  C   UNL     1       2.865   4.168  -8.594  0.00  0.00    +0.010 C 
ATOM      9  C   UNL     1       2.048   6.380  -5.161  0.00  0.00    -0.003 A 
ATOM     10  C   UNL     1       1.911   5.269  -8.523  0.00  0.00    +0.023 C 
ENDROOT
BRANCH   7  11
ATOM     11  C   UNL     1       4.850   5.366  -8.908  0.00  0.00    -0.018 A 
ATOM     12  C   UNL     1       4.294   4.996 -10.131  0.00  0.00    +0.008 A 
ATOM     13  C   UNL     1       4.815   5.654 -11.240  0.00  0.00    +0.068 A 
ATOM     14 CL   UNL     1       3.684   6.037 -12.533  0.00  0.00    -0.081 Cl
ATOM     15  C   UNL     1       6.029   6.323 -11.143  0.00  0.00    +0.068 A 
ATOM     16 CL   UNL     1       6.417   7.410 -12.437  0.00  0.00    -0.081 Cl
ATOM     17  C   UNL     1       6.742   6.212  -9.965  0.00  0.00    +0.012 A 
ATOM     18  C   UNL     1       6.194   5.535  -8.881  0.00  0.00    -0.003 A 
ENDBRANCH   7  11
BRANCH   1  20
ATOM     19  C   UNL     1      -0.911   5.382  -7.096  0.00  0.00    +0.108 C 
ATOM     20  N   UNL     1       0.269   6.100  -7.060  0.00  0.00    -0.214 NA
ENDBRANCH   1  20
TORSDOF 2
ENDMDL
MODEL 8
REMARK VINA RESULT:      -6.9      2.658      3.721
REMARK  Name = 
REMARK  2 active torsions:
REMARK  status: ('A' for Active; 'I' for Inactive)
REMARK    1  A    between atoms: N_2  and  C_3
REMARK    2  A    between atoms: C_6  and  C_7
REMARK                            x       y       z     vdW  Elec       q    Type
REMARK                         _______ _______ _______ _____ _____    ______ ____
ROOT
ATOM      1  C   UNL     1       2.594   6.143  -5.420  0.00  0.00    +0.095 C 
ATOM      2  C   UNL     1       1.245   5.742  -6.252  0.00  0.00    -0.010 A 
ATOM      3  C   UNL     1       1.317   5.850  -7.607  0.00  0.00    -0.021 A 
ATOM      4  C   UNL     1       0.049   5.775  -8.189  0.00  0.00    -0.004 A 
ATOM      5  C   UNL     1      -1.089   5.402  -7.494  0.00  0.00    -0.000 A 
ATOM      6  C   UNL     1      -0.852   4.780  -6.273  0.00  0.00    -0.000 A 
ATOM      7  C   UNL     1       1.958   7.263  -8.152  0.00  0.00    +0.044 C 
ATOM      8  C   UNL     1       3.421   7.127  -7.368  0.00  0.00    +0.010 C 
ATOM      9  C   UNL     1       0.299   5.063  -5.540  0.00  0.00    -0.003 A 
ATOM     10  C   UNL     1       3.541   5.804  -6.764  0.00  0.00    +0.023 C 
ENDROOT
BRANCH   7  11
ATOM     11  C   UNL     1       2.590   6.542  -9.475  0.00  0.00    -0.018 A 
ATOM     12  C   UNL     1       3.877   7.002  -9.747  0.00  0.00    +0.008 A 
ATOM     13  C   UNL     1       4.473   6.455 -10.879  0.00  0.00    +0.068 A 
ATOM     14 CL   UNL     1       6.204   6.156 -10.793  0.00  0.00    -0.081 Cl
ATOM     15  C   UNL     1       3.692   5.812 -11.831  0.00  0.00    +0.068 A 
ATOM     16 CL   UNL     1       4.537   4.851 -13.002  0.00  0.00    -0.081 Cl
ATOM     17  C   UNL     1       2.319   5.840 -11.676  0.00  0.00    +0.012 A 
ATOM     18  C   UNL     1       1.760   6.406 -10.536  0.00  0.00    -0.003 A 
ENDBRANCH   7  11
BRANCH   1  20
ATOM     19  C   UNL     1       4.111   4.783  -4.467  0.00  0.00    +0.108 C 
ATOM     20  N   UNL     1       2.792   4.652  -4.856  0.00  0.00    -0.214 NA
ENDBRANCH   1  20
TORSDOF 2
ENDMDL
MODEL 9
REMARK VINA RESULT:      -6.9      2.731      4.858
REMARK  Name = 
REMARK  2 active torsions:
REMARK  status: ('A' for Active; 'I' for Inactive)
REMARK    1  A    between atoms: N_2  and  C_3
REMARK    2  A    between atoms: C_6  and  C_7
REMARK                            x       y       z     vdW  Elec       q    Type
REMARK                         _______ _______ _______ _____ _____    ______ ____
ROOT
ATOM      1  C   UNL     1       1.113   5.089  -7.715  0.00  0.00    +0.095 C 
ATOM      2  C   UNL     1      -0.132   5.403  -6.703  0.00  0.00    -0.010 A 
ATOM      3  C   UNL     1       0.196   5.690  -5.413  0.00  0.00    -0.021 A 
ATOM      4  C   UNL     1      -0.927   5.648  -4.583  0.00  0.00    -0.004 A 
ATOM      5  C   UNL     1      -2.224   5.559  -5.058  0.00  0.00    -0.000 A 
ATOM      6  C   UNL     1      -2.375   5.856  -6.409  0.00  0.00    -0.000 A 
ATOM      7  C   UNL     1       1.276   4.657  -4.730  0.00  0.00    +0.044 C 
ATOM      8  C   UNL     1       2.494   4.884  -5.844  0.00  0.00    +0.010 C 
ATOM      9  C   UNL     1      -1.333   5.638  -7.307  0.00  0.00    -0.003 A 
ATOM     10  C   UNL     1       2.148   5.982  -6.741  0.00  0.00    +0.023 C 
ENDROOT
BRANCH   7  11
ATOM     11  C   UNL     1       1.907   5.833  -3.788  0.00  0.00    -0.018 A 
ATOM     12  C   UNL     1       3.253   6.056  -4.073  0.00  0.00    +0.008 A 
ATOM     13  C   UNL     1       3.870   7.025  -3.289  0.00  0.00    +0.068 A 
ATOM     14 CL   UNL     1       5.072   8.035  -4.084  0.00  0.00    -0.081 Cl
ATOM     15  C   UNL     1       3.280   7.434  -2.099  0.00  0.00    +0.068 A 
ATOM     16 CL   UNL     1       3.909   8.884  -1.384  0.00  0.00    -0.081 Cl
ATOM     17  C   UNL     1       2.146   6.771  -1.673  0.00  0.00    +0.012 A 
ATOM     18  C   UNL     1       1.564   5.799  -2.478  0.00  0.00    -0.003 A 
ENDBRANCH   7  11
BRANCH   1  20
ATOM     19  C   UNL     1       2.067   6.514  -9.170  0.00  0.00    +0.108 C 
ATOM     20  N   UNL     1       0.803   6.374  -8.629  0.00  0.00    -0.214 NA
ENDBRANCH   1  20
TORSDOF 2
ENDMDL
