MODEL 1
REMARK VINA RESULT:      -9.2      0.000      0.000
REMARK  Name = 
REMARK  7 active torsions:
REMARK  status: ('A' for Active; 'I' for Inactive)
REMARK    1  A    between atoms: C_2  and  C_4
REMARK    2  A    between atoms: C_2  and  C_15
REMARK    3  A    between atoms: C_4  and  S_5
REMARK    4  A    between atoms: S_5  and  C_8
REMARK    5  A    between atoms: N_17  and  C_18
REMARK    6  A    between atoms: C_21  and  C_22
REMARK    7  A    between atoms: C_24  and  C_25
REMARK                            x       y       z     vdW  Elec       q    Type
REMARK                         _______ _______ _______ _____ _____    ______ ____
ROOT
ATOM      1  C   UNL     1       3.250   5.797  -6.553  0.00  0.00    +0.275 C 
ATOM      2  N   UNL     1       3.165   4.936  -7.694  0.00  0.00    -0.177 NA
ATOM      3  O   UNL     1       3.486   7.015  -6.817  0.00  0.00    -0.270 OA
ENDROOT
BRANCH   2   4
ATOM      4  C   UNL     1       3.960   5.105  -8.846  0.00  0.00    +0.073 A 
ATOM      5  C   UNL     1       5.348   5.107  -8.807  0.00  0.00    +0.021 A 
ATOM      6  C   UNL     1       6.041   5.892  -9.720  0.00  0.00    +0.082 A 
ATOM      7  C   UNL     1       5.370   6.484 -10.783  0.00  0.00    +0.072 A 
ATOM      8  C   UNL     1       4.040   6.153 -11.005  0.00  0.00    +0.012 A 
ATOM      9  C   UNL     1       3.368   5.402 -10.049  0.00  0.00    +0.017 A 
BRANCH   6  10
ATOM     10  C   UNL     1       7.520   5.778  -9.848  0.00  0.00    +0.419 C 
ATOM     11  F   UNL     1       7.905   5.491 -11.137  0.00  0.00    -0.166 F 
ATOM     12  F   UNL     1       8.051   4.819  -9.025  0.00  0.00    -0.166 F 
ATOM     13  F   UNL     1       8.095   6.986  -9.482  0.00  0.00    -0.166 F 
ENDBRANCH   6  10
BRANCH   7  14
ATOM     14  C   UNL     1       5.944   7.697 -11.320  0.00  0.00    +0.100 C 
ATOM     15  N   UNL     1       6.468   8.678 -11.663  0.00  0.00    -0.191 NA
ENDBRANCH   7  14
ENDBRANCH   2   4
BRANCH   1  17
ATOM     16  C   UNL     1       3.674   4.648  -4.488  0.00  0.00    +0.044 C 
ATOM     17  C   UNL     1       2.643   5.408  -5.243  0.00  0.00    +0.218 C 
ATOM     18  O   UNL     1       2.374   6.592  -4.552  0.00  0.00    -0.214 OA
BRANCH  17  19
ATOM     19  C   UNL     1       1.401   4.625  -5.543  0.00  0.00    +0.195 C 
BRANCH  19  20
ATOM     20  S   UNL     1       0.010   5.625  -5.952  0.00  0.00    +0.012 S 
ATOM     21  O   UNL     1      -0.897   4.988  -6.950  0.00  0.00    -0.169 OA
ATOM     22  O   UNL     1       0.547   6.887  -6.591  0.00  0.00    -0.169 OA
BRANCH  20  23
ATOM     23  C   UNL     1      -0.849   6.126  -4.514  0.00  0.00    +0.106 A 
ATOM     24  C   UNL     1      -1.372   7.407  -4.505  0.00  0.00    +0.021 A 
ATOM     25  C   UNL     1      -2.344   7.724  -3.570  0.00  0.00    +0.031 A 
ATOM     26  C   UNL     1      -2.773   6.768  -2.667  0.00  0.00    +0.140 A 
ATOM     27  F   UNL     1      -4.016   6.831  -2.114  0.00  0.00    -0.204 F 
ATOM     28  C   UNL     1      -2.011   5.615  -2.533  0.00  0.00    +0.031 A 
ATOM     29  C   UNL     1      -0.944   5.352  -3.383  0.00  0.00    +0.021 A 
ENDBRANCH  20  23
ENDBRANCH  19  20
ENDBRANCH  17  19
ENDBRANCH   1  17
TORSDOF 7
ENDMDL
MODEL 2
REMARK VINA RESULT:      -9.1      5.267      7.861
REMARK  Name = 
REMARK  7 active torsions:
REMARK  status: ('A' for Active; 'I' for Inactive)
REMARK    1  A    between atoms: C_2  and  C_4
REMARK    2  A    between atoms: C_2  and  C_15
REMARK    3  A    between atoms: C_4  and  S_5
REMARK    4  A    between atoms: S_5  and  C_8
REMARK    5  A    between atoms: N_17  and  C_18
REMARK    6  A    between atoms: C_21  and  C_22
REMARK    7  A    between atoms: C_24  and  C_25
REMARK                            x       y       z     vdW  Elec       q    Type
REMARK                         _______ _______ _______ _____ _____    ______ ____
ROOT
ATOM      1  C   UNL     1       3.046   6.560  -3.908  0.00  0.00    +0.275 C 
ATOM      2  N   UNL     1       2.612   5.390  -3.205  0.00  0.00    -0.177 NA
ATOM      3  O   UNL     1       3.035   7.630  -3.227  0.00  0.00    -0.270 OA
ENDROOT
BRANCH   2   4
ATOM      4  C   UNL     1       1.593   5.412  -2.232  0.00  0.00    +0.073 A 
ATOM      5  C   UNL     1       0.244   5.334  -2.554  0.00  0.00    +0.021 A 
ATOM      6  C   UNL     1      -0.675   5.995  -1.749  0.00  0.00    +0.082 A 
ATOM      7  C   UNL     1      -0.278   6.533  -0.532  0.00  0.00    +0.072 A 
ATOM      8  C   UNL     1       1.003   6.264  -0.066  0.00  0.00    +0.012 A 
ATOM      9  C   UNL     1       1.908   5.640  -0.915  0.00  0.00    +0.017 A 
BRANCH   6  10
ATOM     10  C   UNL     1      -2.137   5.780  -1.937  0.00  0.00    +0.419 C 
ATOM     11  F   UNL     1      -2.786   6.940  -2.290  0.00  0.00    -0.166 F 
ATOM     12  F   UNL     1      -2.748   5.278  -0.817  0.00  0.00    -0.166 F 
ATOM     13  F   UNL     1      -2.326   4.851  -2.950  0.00  0.00    -0.166 F 
ENDBRANCH   6  10
BRANCH   7  14
ATOM     14  C   UNL     1      -1.039   7.658  -0.039  0.00  0.00    +0.100 C 
ATOM     15  N   UNL     1      -1.649   8.604   0.257  0.00  0.00    -0.191 NA
ENDBRANCH   7  14
ENDBRANCH   2   4
BRANCH   1  17
ATOM     16  C   UNL     1       5.125   7.235  -4.901  0.00  0.00    +0.044 C 
ATOM     17  C   UNL     1       3.883   6.455  -5.143  0.00  0.00    +0.218 C 
ATOM     18  O   UNL     1       4.228   5.110  -5.286  0.00  0.00    -0.214 OA
BRANCH  17  19
ATOM     19  C   UNL     1       3.054   6.959  -6.285  0.00  0.00    +0.195 C 
BRANCH  19  20
ATOM     20  S   UNL     1       1.853   5.806  -6.857  0.00  0.00    +0.012 S 
ATOM     21  O   UNL     1       2.276   4.385  -6.688  0.00  0.00    -0.169 OA
ATOM     22  O   UNL     1       1.690   6.040  -8.343  0.00  0.00    -0.169 OA
BRANCH  20  23
ATOM     23  C   UNL     1       0.291   6.113  -6.134  0.00  0.00    +0.106 A 
ATOM     24  C   UNL     1       0.178   7.231  -5.327  0.00  0.00    +0.021 A 
ATOM     25  C   UNL     1      -1.085   7.713  -5.028  0.00  0.00    +0.031 A 
ATOM     26  C   UNL     1      -2.206   7.078  -5.533  0.00  0.00    +0.140 A 
ATOM     27  F   UNL     1      -3.372   7.754  -5.722  0.00  0.00    -0.204 F 
ATOM     28  C   UNL     1      -2.041   5.811  -6.079  0.00  0.00    +0.031 A 
ATOM     29  C   UNL     1      -0.779   5.260  -6.257  0.00  0.00    +0.021 A 
ENDBRANCH  20  23
ENDBRANCH  19  20
ENDBRANCH  17  19
ENDBRANCH   1  17
TORSDOF 7
ENDMDL
MODEL 3
REMARK VINA RESULT:      -9.0      2.252      2.965
REMARK  Name = 
REMARK  7 active torsions:
REMARK  status: ('A' for Active; 'I' for Inactive)
REMARK    1  A    between atoms: C_2  and  C_4
REMARK    2  A    between atoms: C_2  and  C_15
REMARK    3  A    between atoms: C_4  and  S_5
REMARK    4  A    between atoms: S_5  and  C_8
REMARK    5  A    between atoms: N_17  and  C_18
REMARK    6  A    between atoms: C_21  and  C_22
REMARK    7  A    between atoms: C_24  and  C_25
REMARK                            x       y       z     vdW  Elec       q    Type
REMARK                         _______ _______ _______ _____ _____    ______ ____
ROOT
ATOM      1  C   UNL     1       3.842   5.485  -4.627  0.00  0.00    +0.275 C 
ATOM      2  N   UNL     1       3.680   6.150  -5.885  0.00  0.00    -0.177 NA
ATOM      3  O   UNL     1       4.832   4.695  -4.561  0.00  0.00    -0.270 OA
ENDROOT
BRANCH   2   4
ATOM      4  C   UNL     1       3.979   5.540  -7.120  0.00  0.00    +0.073 A 
ATOM      5  C   UNL     1       5.128   5.833  -7.845  0.00  0.00    +0.021 A 
ATOM      6  C   UNL     1       5.077   5.773  -9.232  0.00  0.00    +0.082 A 
ATOM      7  C   UNL     1       3.972   5.220  -9.867  0.00  0.00    +0.072 A 
ATOM      8  C   UNL     1       3.000   4.592  -9.098  0.00  0.00    +0.012 A 
ATOM      9  C   UNL     1       3.060   4.711  -7.715  0.00  0.00    +0.017 A 
BRANCH   6  10
ATOM     10  C   UNL     1       6.323   5.883 -10.040  0.00  0.00    +0.419 C 
ATOM     11  F   UNL     1       6.543   7.170 -10.474  0.00  0.00    -0.166 F 
ATOM     12  F   UNL     1       6.319   5.062 -11.137  0.00  0.00    -0.166 F 
ATOM     13  F   UNL     1       7.400   5.501  -9.253  0.00  0.00    -0.166 F 
ENDBRANCH   6  10
BRANCH   7  14
ATOM     14  C   UNL     1       3.688   5.690 -11.203  0.00  0.00    +0.100 C 
ATOM     15  N   UNL     1       3.400   5.980 -12.294  0.00  0.00    -0.191 NA
ENDBRANCH   7  14
ENDBRANCH   2   4
BRANCH   1  17
ATOM     16  C   UNL     1       4.324   6.327  -2.430  0.00  0.00    +0.044 C 
ATOM     17  C   UNL     1       3.220   6.027  -3.379  0.00  0.00    +0.218 C 
ATOM     18  O   UNL     1       2.597   7.229  -3.725  0.00  0.00    -0.214 OA
BRANCH  17  19
ATOM     19  C   UNL     1       2.247   5.000  -2.885  0.00  0.00    +0.195 C 
BRANCH  19  20
ATOM     20  S   UNL     1       0.660   5.652  -2.490  0.00  0.00    +0.012 S 
ATOM     21  O   UNL     1       0.720   6.818  -1.561  0.00  0.00    -0.169 OA
ATOM     22  O   UNL     1      -0.099   4.559  -1.771  0.00  0.00    -0.169 OA
BRANCH  20  23
ATOM     23  C   UNL     1      -0.250   6.016  -3.937  0.00  0.00    +0.106 A 
ATOM     24  C   UNL     1       0.087   5.321  -5.085  0.00  0.00    +0.021 A 
ATOM     25  C   UNL     1      -0.809   5.304  -6.141  0.00  0.00    +0.031 A 
ATOM     26  C   UNL     1      -2.015   5.975  -6.036  0.00  0.00    +0.140 A 
ATOM     27  F   UNL     1      -3.101   5.586  -6.760  0.00  0.00    -0.204 F 
ATOM     28  C   UNL     1      -2.162   6.884  -4.997  0.00  0.00    +0.031 A 
ATOM     29  C   UNL     1      -1.199   7.006  -4.003  0.00  0.00    +0.021 A 
ENDBRANCH  20  23
ENDBRANCH  19  20
ENDBRANCH  17  19
ENDBRANCH   1  17
TORSDOF 7
ENDMDL
MODEL 4
REMARK VINA RESULT:      -8.8      1.545      2.102
REMARK  Name = 
REMARK  7 active torsions:
REMARK  status: ('A' for Active; 'I' for Inactive)
REMARK    1  A    between atoms: C_2  and  C_4
REMARK    2  A    between atoms: C_2  and  C_15
REMARK    3  A    between atoms: C_4  and  S_5
REMARK    4  A    between atoms: S_5  and  C_8
REMARK    5  A    between atoms: N_17  and  C_18
REMARK    6  A    between atoms: C_21  and  C_22
REMARK    7  A    between atoms: C_24  and  C_25
REMARK                            x       y       z     vdW  Elec       q    Type
REMARK                         _______ _______ _______ _____ _____    ______ ____
ROOT
ATOM      1  C   UNL     1       2.131   4.846  -7.822  0.00  0.00    +0.275 C 
ATOM      2  N   UNL     1       3.145   5.754  -8.269  0.00  0.00    -0.177 NA
ATOM      3  O   UNL     1       2.438   3.618  -7.899  0.00  0.00    -0.270 OA
ENDROOT
BRANCH   2   4
ATOM      4  C   UNL     1       4.009   5.470  -9.346  0.00  0.00    +0.073 A 
ATOM      5  C   UNL     1       5.393   5.508  -9.230  0.00  0.00    +0.021 A 
ATOM      6  C   UNL     1       6.146   5.883 -10.336  0.00  0.00    +0.082 A 
ATOM      7  C   UNL     1       5.546   6.001 -11.583  0.00  0.00    +0.072 A 
ATOM      8  C   UNL     1       4.228   5.589 -11.735  0.00  0.00    +0.012 A 
ATOM      9  C   UNL     1       3.493   5.263 -10.602  0.00  0.00    +0.017 A 
BRANCH   6  10
ATOM     10  C   UNL     1       7.629   5.749 -10.321  0.00  0.00    +0.419 C 
ATOM     11  F   UNL     1       8.100   5.109 -11.444  0.00  0.00    -0.166 F 
ATOM     12  F   UNL     1       8.090   5.070  -9.223  0.00  0.00    -0.166 F 
ATOM     13  F   UNL     1       8.191   7.017 -10.276  0.00  0.00    -0.166 F 
ENDBRANCH   6  10
BRANCH   7  14
ATOM     14  C   UNL     1       6.162   6.915 -12.517  0.00  0.00    +0.100 C 
ATOM     15  N   UNL     1       6.569   7.644 -13.329  0.00  0.00    -0.191 NA
ENDBRANCH   7  14
ENDBRANCH   2   4
BRANCH   1  17
ATOM     16  C   UNL     1      -0.170   5.529  -7.748  0.00  0.00    +0.044 C 
ATOM     17  C   UNL     1       1.035   5.299  -6.909  0.00  0.00    +0.218 C 
ATOM     18  O   UNL     1       0.770   4.241  -6.037  0.00  0.00    -0.214 OA
BRANCH  17  19
ATOM     19  C   UNL     1       1.529   6.521  -6.195  0.00  0.00    +0.195 C 
BRANCH  19  20
ATOM     20  S   UNL     1       1.555   6.359  -4.442  0.00  0.00    +0.012 S 
ATOM     21  O   UNL     1       2.422   7.373  -3.773  0.00  0.00    -0.169 OA
ATOM     22  O   UNL     1       2.150   5.003  -4.133  0.00  0.00    -0.169 OA
BRANCH  20  23
ATOM     23  C   UNL     1      -0.065   6.349  -3.785  0.00  0.00    +0.106 A 
ATOM     24  C   UNL     1      -1.014   7.116  -4.437  0.00  0.00    +0.021 A 
ATOM     25  C   UNL     1      -2.355   6.872  -4.188  0.00  0.00    +0.031 A 
ATOM     26  C   UNL     1      -2.723   5.877  -3.300  0.00  0.00    +0.140 A 
ATOM     27  F   UNL     1      -3.929   5.254  -3.403  0.00  0.00    -0.204 F 
ATOM     28  C   UNL     1      -1.740   5.355  -2.468  0.00  0.00    +0.031 A 
ATOM     29  C   UNL     1      -0.404   5.701  -2.623  0.00  0.00    +0.021 A 
ENDBRANCH  20  23
ENDBRANCH  19  20
ENDBRANCH  17  19
ENDBRANCH   1  17
TORSDOF 7
ENDMDL
MODEL 5
REMARK VINA RESULT:      -8.7      3.721      5.875
REMARK  Name = 
REMARK  7 active torsions:
REMARK  status: ('A' for Active; 'I' for Inactive)
REMARK    1  A    between atoms: C_2  and  C_4
REMARK    2  A    between atoms: C_2  and  C_15
REMARK    3  A    between atoms: C_4  and  S_5
REMARK    4  A    between atoms: S_5  and  C_8
REMARK    5  A    between atoms: N_17  and  C_18
REMARK    6  A    between atoms: C_21  and  C_22
REMARK    7  A    between atoms: C_24  and  C_25
REMARK                            x       y       z     vdW  Elec       q    Type
REMARK                         _______ _______ _______ _____ _____    ______ ____
ROOT
ATOM      1  C   UNL     1      -0.243   6.316  -3.710  0.00  0.00    +0.275 C 
ATOM      2  N   UNL     1       0.404   5.581  -4.755  0.00  0.00    -0.177 NA
ATOM      3  O   UNL     1      -0.967   7.281  -4.101  0.00  0.00    -0.270 OA
ENDROOT
BRANCH   2   4
ATOM      4  C   UNL     1       0.883   6.184  -5.936  0.00  0.00    +0.073 A 
ATOM      5  C   UNL     1       0.442   5.815  -7.200  0.00  0.00    +0.021 A 
ATOM      6  C   UNL     1       1.327   5.900  -8.268  0.00  0.00    +0.082 A 
ATOM      7  C   UNL     1       2.548   6.544  -8.113  0.00  0.00    +0.072 A 
ATOM      8  C   UNL     1       2.799   7.232  -6.933  0.00  0.00    +0.012 A 
ATOM      9  C   UNL     1       1.913   7.089  -5.873  0.00  0.00    +0.017 A 
BRANCH   6  10
ATOM     10  C   UNL     1       0.848   5.706  -9.665  0.00  0.00    +0.419 C 
ATOM     11  F   UNL     1       1.519   4.689 -10.302  0.00  0.00    -0.166 F 
ATOM     12  F   UNL     1       0.971   6.837 -10.429  0.00  0.00    -0.166 F 
ATOM     13  F   UNL     1      -0.501   5.384  -9.633  0.00  0.00    -0.166 F 
ENDBRANCH   6  10
BRANCH   7  14
ATOM     14  C   UNL     1       3.623   6.116  -8.980  0.00  0.00    +0.100 C 
ATOM     15  N   UNL     1       4.535   5.728  -9.590  0.00  0.00    -0.191 NA
ENDBRANCH   7  14
ENDBRANCH   2   4
BRANCH   1  17
ATOM     16  C   UNL     1      -1.908   5.647  -2.114  0.00  0.00    +0.044 C 
ATOM     17  C   UNL     1      -0.442   5.719  -2.353  0.00  0.00    +0.218 C 
ATOM     18  O   UNL     1       0.060   4.417  -2.404  0.00  0.00    -0.214 OA
BRANCH  17  19
ATOM     19  C   UNL     1       0.298   6.580  -1.375  0.00  0.00    +0.195 C 
BRANCH  19  20
ATOM     20  S   UNL     1       1.915   5.997  -0.993  0.00  0.00    +0.012 S 
ATOM     21  O   UNL     1       1.942   4.559  -0.597  0.00  0.00    -0.169 OA
ATOM     22  O   UNL     1       2.398   6.789   0.202  0.00  0.00    -0.169 OA
BRANCH  20  23
ATOM     23  C   UNL     1       3.031   6.337  -2.295  0.00  0.00    +0.106 A 
ATOM     24  C   UNL     1       3.296   7.668  -2.567  0.00  0.00    +0.021 A 
ATOM     25  C   UNL     1       4.413   7.984  -3.323  0.00  0.00    +0.031 A 
ATOM     26  C   UNL     1       5.239   6.978  -3.792  0.00  0.00    +0.140 A 
ATOM     27  F   UNL     1       6.553   7.214  -4.058  0.00  0.00    -0.204 F 
ATOM     28  C   UNL     1       4.764   5.673  -3.740  0.00  0.00    +0.031 A 
ATOM     29  C   UNL     1       3.570   5.364  -3.100  0.00  0.00    +0.021 A 
ENDBRANCH  20  23
ENDBRANCH  19  20
ENDBRANCH  17  19
ENDBRANCH   1  17
TORSDOF 7
ENDMDL
MODEL 6
REMARK VINA RESULT:      -8.6      3.840      5.859
REMARK  Name = 
REMARK  7 active torsions:
REMARK  status: ('A' for Active; 'I' for Inactive)
REMARK    1  A    between atoms: C_2  and  C_4
REMARK    2  A    between atoms: C_2  and  C_15
REMARK    3  A    between atoms: C_4  and  S_5
REMARK    4  A    between atoms: S_5  and  C_8
REMARK    5  A    between atoms: N_17  and  C_18
REMARK    6  A    between atoms: C_21  and  C_22
REMARK    7  A    between atoms: C_24  and  C_25
REMARK                            x       y       z     vdW  Elec       q    Type
REMARK                         _______ _______ _______ _____ _____    ______ ____
ROOT
ATOM      1  C   UNL     1       0.503   6.045  -3.554  0.00  0.00    +0.275 C 
ATOM      2  N   UNL     1       0.773   4.908  -4.382  0.00  0.00    -0.177 NA
ATOM      3  O   UNL     1       0.306   7.130  -4.181  0.00  0.00    -0.270 OA
ENDROOT
BRANCH   2   4
ATOM      4  C   UNL     1       1.505   4.988  -5.584  0.00  0.00    +0.073 A 
ATOM      5  C   UNL     1       1.597   6.155  -6.331  0.00  0.00    +0.021 A 
ATOM      6  C   UNL     1       1.710   6.058  -7.712  0.00  0.00    +0.082 A 
ATOM      7  C   UNL     1       1.946   4.826  -8.308  0.00  0.00    +0.072 A 
ATOM      8  C   UNL     1       2.223   3.731  -7.500  0.00  0.00    +0.012 A 
ATOM      9  C   UNL     1       2.058   3.854  -6.126  0.00  0.00    +0.017 A 
BRANCH   6  10
ATOM     10  C   UNL     1       2.008   7.263  -8.534  0.00  0.00    +0.419 C 
ATOM     11  F   UNL     1       3.214   7.155  -9.187  0.00  0.00    -0.166 F 
ATOM     12  F   UNL     1       2.030   8.418  -7.795  0.00  0.00    -0.166 F 
ATOM     13  F   UNL     1       1.011   7.412  -9.487  0.00  0.00    -0.166 F 
ENDBRANCH   6  10
BRANCH   7  14
ATOM     14  C   UNL     1       1.482   4.661  -9.667  0.00  0.00    +0.100 C 
ATOM     15  N   UNL     1       1.011   4.500 -10.720  0.00  0.00    -0.191 NA
ENDBRANCH   7  14
ENDBRANCH   2   4
BRANCH   1  17
ATOM     16  C   UNL     1      -1.384   6.375  -2.106  0.00  0.00    +0.044 C 
ATOM     17  C   UNL     1       0.018   5.882  -2.148  0.00  0.00    +0.218 C 
ATOM     18  O   UNL     1       0.012   4.512  -1.878  0.00  0.00    -0.214 OA
BRANCH  17  19
ATOM     19  C   UNL     1       0.962   6.637  -1.263  0.00  0.00    +0.195 C 
BRANCH  19  20
ATOM     20  S   UNL     1       2.504   5.826  -1.009  0.00  0.00    +0.012 S 
ATOM     21  O   UNL     1       2.361   4.370  -0.718  0.00  0.00    -0.169 OA
ATOM     22  O   UNL     1       3.138   6.457   0.211  0.00  0.00    -0.169 OA
BRANCH  20  23
ATOM     23  C   UNL     1       3.597   6.122  -2.342  0.00  0.00    +0.106 A 
ATOM     24  C   UNL     1       4.285   5.033  -2.846  0.00  0.00    +0.021 A 
ATOM     25  C   UNL     1       4.872   5.137  -4.097  0.00  0.00    +0.031 A 
ATOM     26  C   UNL     1       4.766   6.314  -4.816  0.00  0.00    +0.140 A 
ATOM     27  F   UNL     1       4.840   6.316  -6.176  0.00  0.00    -0.204 F 
ATOM     28  C   UNL     1       4.328   7.447  -4.142  0.00  0.00    +0.031 A 
ATOM     29  C   UNL     1       3.864   7.375  -2.835  0.00  0.00    +0.021 A 
ENDBRANCH  20  23
ENDBRANCH  19  20
ENDBRANCH  17  19
ENDBRANCH   1  17
TORSDOF 7
ENDMDL
MODEL 7
REMARK VINA RESULT:      -8.5      2.627      9.334
REMARK  Name = 
REMARK  7 active torsions:
REMARK  status: ('A' for Active; 'I' for Inactive)
REMARK    1  A    between atoms: C_2  and  C_4
REMARK    2  A    between atoms: C_2  and  C_15
REMARK    3  A    between atoms: C_4  and  S_5
REMARK    4  A    between atoms: S_5  and  C_8
REMARK    5  A    between atoms: N_17  and  C_18
REMARK    6  A    between atoms: C_21  and  C_22
REMARK    7  A    between atoms: C_24  and  C_25
REMARK                            x       y       z     vdW  Elec       q    Type
REMARK                         _______ _______ _______ _____ _____    ______ ____
ROOT
ATOM      1  C   UNL     1       0.795   5.771  -8.604  0.00  0.00    +0.275 C 
ATOM      2  N   UNL     1       0.736   6.439  -7.338  0.00  0.00    -0.177 NA
ATOM      3  O   UNL     1      -0.103   4.896  -8.791  0.00  0.00    -0.270 OA
ENDROOT
BRANCH   2   4
ATOM      4  C   UNL     1       0.338   5.796  -6.148  0.00  0.00    +0.073 A 
ATOM      5  C   UNL     1      -0.981   5.768  -5.714  0.00  0.00    +0.021 A 
ATOM      6  C   UNL     1      -1.234   5.754  -4.348  0.00  0.00    +0.082 A 
ATOM      7  C   UNL     1      -0.197   5.550  -3.447  0.00  0.00    +0.072 A 
ATOM      8  C   UNL     1       1.057   5.206  -3.934  0.00  0.00    +0.012 A 
ATOM      9  C   UNL     1       1.286   5.274  -5.303  0.00  0.00    +0.017 A 
BRANCH   6  10
ATOM     10  C   UNL     1      -2.614   5.526  -3.837  0.00  0.00    +0.419 C 
ATOM     11  F   UNL     1      -2.622   4.736  -2.711  0.00  0.00    -0.166 F 
ATOM     12  F   UNL     1      -3.435   4.943  -4.767  0.00  0.00    -0.166 F 
ATOM     13  F   UNL     1      -3.179   6.751  -3.512  0.00  0.00    -0.166 F 
ENDBRANCH   6  10
BRANCH   7  14
ATOM     14  C   UNL     1      -0.365   6.110  -2.125  0.00  0.00    +0.100 C 
ATOM     15  N   UNL     1      -0.522   6.460  -1.026  0.00  0.00    -0.191 NA
ENDBRANCH   7  14
ENDBRANCH   2   4
BRANCH   1  17
ATOM     16  C   UNL     1       1.729   5.295 -10.765  0.00  0.00    +0.044 C 
ATOM     17  C   UNL     1       1.520   6.376  -9.765  0.00  0.00    +0.218 C 
ATOM     18  O   UNL     1       0.668   7.332 -10.322  0.00  0.00    -0.214 OA
BRANCH  17  19
ATOM     19  C   UNL     1       2.786   6.975  -9.234  0.00  0.00    +0.195 C 
BRANCH  19  20
ATOM     20  S   UNL     1       4.102   5.819  -9.055  0.00  0.00    +0.012 S 
ATOM     21  O   UNL     1       3.711   4.424  -9.413  0.00  0.00    -0.169 OA
ATOM     22  O   UNL     1       4.480   5.805  -7.590  0.00  0.00    -0.169 OA
BRANCH  20  23
ATOM     23  C   UNL     1       5.524   6.343  -9.927  0.00  0.00    +0.106 A 
ATOM     24  C   UNL     1       6.729   5.760  -9.577  0.00  0.00    +0.021 A 
ATOM     25  C   UNL     1       7.799   5.866 -10.451  0.00  0.00    +0.031 A 
ATOM     26  C   UNL     1       7.651   6.545 -11.647  0.00  0.00    +0.140 A 
ATOM     27  F   UNL     1       8.432   6.251 -12.723  0.00  0.00    -0.204 F 
ATOM     28  C   UNL     1       6.528   7.348 -11.802  0.00  0.00    +0.031 A 
ATOM     29  C   UNL     1       5.509   7.352 -10.859  0.00  0.00    +0.021 A 
ENDBRANCH  20  23
ENDBRANCH  19  20
ENDBRANCH  17  19
ENDBRANCH   1  17
TORSDOF 7
ENDMDL
MODEL 8
REMARK VINA RESULT:      -8.5      4.144      8.030
REMARK  Name = 
REMARK  7 active torsions:
REMARK  status: ('A' for Active; 'I' for Inactive)
REMARK    1  A    between atoms: C_2  and  C_4
REMARK    2  A    between atoms: C_2  and  C_15
REMARK    3  A    between atoms: C_4  and  S_5
REMARK    4  A    between atoms: S_5  and  C_8
REMARK    5  A    between atoms: N_17  and  C_18
REMARK    6  A    between atoms: C_21  and  C_22
REMARK    7  A    between atoms: C_24  and  C_25
REMARK                            x       y       z     vdW  Elec       q    Type
REMARK                         _______ _______ _______ _____ _____    ______ ____
ROOT
ATOM      1  C   UNL     1       0.857   5.963  -7.590  0.00  0.00    +0.275 C 
ATOM      2  N   UNL     1       0.829   6.665  -6.342  0.00  0.00    -0.177 NA
ATOM      3  O   UNL     1      -0.176   5.272  -7.840  0.00  0.00    -0.270 OA
ENDROOT
BRANCH   2   4
ATOM      4  C   UNL     1       0.223   6.144  -5.181  0.00  0.00    +0.073 A 
ATOM      5  C   UNL     1      -0.940   6.674  -4.638  0.00  0.00    +0.021 A 
ATOM      6  C   UNL     1      -1.120   6.621  -3.261  0.00  0.00    +0.082 A 
ATOM      7  C   UNL     1      -0.264   5.861  -2.474  0.00  0.00    +0.072 A 
ATOM      8  C   UNL     1       0.668   5.039  -3.096  0.00  0.00    +0.012 A 
ATOM      9  C   UNL     1       0.850   5.152  -4.468  0.00  0.00    +0.017 A 
BRANCH   6  10
ATOM     10  C   UNL     1      -2.428   6.993  -2.654  0.00  0.00    +0.419 C 
ATOM     11  F   UNL     1      -2.341   8.149  -1.913  0.00  0.00    -0.166 F 
ATOM     12  F   UNL     1      -2.937   6.010  -1.846  0.00  0.00    -0.166 F 
ATOM     13  F   UNL     1      -3.350   7.198  -3.671  0.00  0.00    -0.166 F 
ENDBRANCH   6  10
BRANCH   7  14
ATOM     14  C   UNL     1      -0.102   6.279  -1.100  0.00  0.00    +0.100 C 
ATOM     15  N   UNL     1       0.135   6.611  -0.010  0.00  0.00    -0.191 NA
ENDBRANCH   7  14
ENDBRANCH   2   4
BRANCH   1  17
ATOM     16  C   UNL     1       1.920   5.226  -9.614  0.00  0.00    +0.044 C 
ATOM     17  C   UNL     1       1.773   6.385  -8.695  0.00  0.00    +0.218 C 
ATOM     18  O   UNL     1       1.130   7.415  -9.385  0.00  0.00    -0.214 OA
BRANCH  17  19
ATOM     19  C   UNL     1       3.056   6.833  -8.062  0.00  0.00    +0.195 C 
BRANCH  19  20
ATOM     20  S   UNL     1       3.966   5.534  -7.300  0.00  0.00    +0.012 S 
ATOM     21  O   UNL     1       5.223   5.191  -8.029  0.00  0.00    -0.169 OA
ATOM     22  O   UNL     1       3.090   4.301  -7.336  0.00  0.00    -0.169 OA
BRANCH  20  23
ATOM     23  C   UNL     1       4.263   5.879  -5.612  0.00  0.00    +0.106 A 
ATOM     24  C   UNL     1       4.110   7.191  -5.200  0.00  0.00    +0.021 A 
ATOM     25  C   UNL     1       3.982   7.453  -3.846  0.00  0.00    +0.031 A 
ATOM     26  C   UNL     1       4.010   6.414  -2.933  0.00  0.00    +0.140 A 
ATOM     27  F   UNL     1       3.392   6.522  -1.725  0.00  0.00    -0.204 F 
ATOM     28  C   UNL     1       4.459   5.175  -3.376  0.00  0.00    +0.031 A 
ATOM     29  C   UNL     1       4.722   4.941  -4.719  0.00  0.00    +0.021 A 
ENDBRANCH  20  23
ENDBRANCH  19  20
ENDBRANCH  17  19
ENDBRANCH   1  17
TORSDOF 7
ENDMDL
MODEL 9
REMARK VINA RESULT:      -8.5      3.237      4.022
REMARK  Name = 
REMARK  7 active torsions:
REMARK  status: ('A' for Active; 'I' for Inactive)
REMARK    1  A    between atoms: C_2  and  C_4
REMARK    2  A    between atoms: C_2  and  C_15
REMARK    3  A    between atoms: C_4  and  S_5
REMARK    4  A    between atoms: S_5  and  C_8
REMARK    5  A    between atoms: N_17  and  C_18
REMARK    6  A    between atoms: C_21  and  C_22
REMARK    7  A    between atoms: C_24  and  C_25
REMARK                            x       y       z     vdW  Elec       q    Type
REMARK                         _______ _______ _______ _____ _____    ______ ____
ROOT
ATOM      1  C   UNL     1       2.892   6.363  -6.639  0.00  0.00    +0.275 C 
ATOM      2  N   UNL     1       3.031   5.283  -7.570  0.00  0.00    -0.177 NA
ATOM      3  O   UNL     1       2.896   7.521  -7.157  0.00  0.00    -0.270 OA
ENDROOT
BRANCH   2   4
ATOM      4  C   UNL     1       3.830   5.365  -8.728  0.00  0.00    +0.073 A 
ATOM      5  C   UNL     1       5.216   5.291  -8.692  0.00  0.00    +0.021 A 
ATOM      6  C   UNL     1       5.948   6.002  -9.634  0.00  0.00    +0.082 A 
ATOM      7  C   UNL     1       5.308   6.591 -10.717  0.00  0.00    +0.072 A 
ATOM      8  C   UNL     1       3.960   6.327 -10.925  0.00  0.00    +0.012 A 
ATOM      9  C   UNL     1       3.251   5.650  -9.940  0.00  0.00    +0.017 A 
BRANCH   6  10
ATOM     10  C   UNL     1       7.418   5.800  -9.760  0.00  0.00    +0.419 C 
ATOM     11  F   UNL     1       7.784   5.460 -11.042  0.00  0.00    -0.166 F 
ATOM     12  F   UNL     1       7.896   4.834  -8.914  0.00  0.00    -0.166 F 
ATOM     13  F   UNL     1       8.062   6.983  -9.425  0.00  0.00    -0.166 F 
ENDBRANCH   6  10
BRANCH   7  14
ATOM     14  C   UNL     1       5.947   7.749 -11.299  0.00  0.00    +0.100 C 
ATOM     15  N   UNL     1       6.550   8.656 -11.711  0.00  0.00    -0.191 NA
ENDBRANCH   7  14
ENDBRANCH   2   4
BRANCH   1  17
ATOM     16  C   UNL     1       0.905   6.618  -5.315  0.00  0.00    +0.044 C 
ATOM     17  C   UNL     1       2.313   6.142  -5.278  0.00  0.00    +0.218 C 
ATOM     18  O   UNL     1       2.306   4.763  -5.059  0.00  0.00    -0.214 OA
BRANCH  17  19
ATOM     19  C   UNL     1       3.183   6.873  -4.301  0.00  0.00    +0.195 C 
BRANCH  19  20
ATOM     20  S   UNL     1       3.467   5.993  -2.802  0.00  0.00    +0.012 S 
ATOM     21  O   UNL     1       4.427   4.861  -2.960  0.00  0.00    -0.169 OA
ATOM     22  O   UNL     1       2.143   5.390  -2.387  0.00  0.00    -0.169 OA
BRANCH  20  23
ATOM     23  C   UNL     1       3.942   7.077  -1.516  0.00  0.00    +0.106 A 
ATOM     24  C   UNL     1       3.705   8.427  -1.709  0.00  0.00    +0.021 A 
ATOM     25  C   UNL     1       3.726   9.271  -0.611  0.00  0.00    +0.031 A 
ATOM     26  C   UNL     1       3.981   8.760   0.650  0.00  0.00    +0.140 A 
ATOM     27  F   UNL     1       3.516   9.383   1.768  0.00  0.00    -0.204 F 
ATOM     28  C   UNL     1       4.497   7.473   0.735  0.00  0.00    +0.031 A 
ATOM     29  C   UNL     1       4.608   6.664  -0.388  0.00  0.00    +0.021 A 
ENDBRANCH  20  23
ENDBRANCH  19  20
ENDBRANCH  17  19
ENDBRANCH   1  17
TORSDOF 7
ENDMDL
