MODEL 1
REMARK VINA RESULT:      -7.4      0.000      0.000
REMARK  Name = 
REMARK  8 active torsions:
REMARK  status: ('A' for Active; 'I' for Inactive)
REMARK    1  A    between atoms: C_2  and  C_3
REMARK    2  A    between atoms: C_2  and  N_11
REMARK    3  A    between atoms: C_3  and  O_4
REMARK    4  A    between atoms: O_4  and  C_5
REMARK    5  A    between atoms: N_11  and  C_12
REMARK    6  A    between atoms: N_11  and  C_15
REMARK    7  A    between atoms: C_12  and  C_13
REMARK    8  A    between atoms: C_15  and  C_16
REMARK                            x       y       z     vdW  Elec       q    Type
REMARK                         _______ _______ _______ _____ _____    ______ ____
ROOT
ATOM      1  N   UNL     1       1.946   5.488  -6.606  0.00  0.00    -0.266 NA
ENDROOT
BRANCH   1   3
ATOM      2  C   UNL     1       2.686   4.077  -8.284  0.00  0.00    +0.021 C 
ATOM      3  C   UNL     1       2.017   5.577  -8.174  0.00  0.00    +0.102 C 
BRANCH   3   4
ATOM      4  C   UNL     1       3.488   6.313  -8.215  0.00  0.00    +0.221 C 
BRANCH   4   5
ATOM      5  O   UNL     1       3.734   6.598  -9.568  0.00  0.00    -0.474 OA
BRANCH   5   6
ATOM      6  C   UNL     1       4.980   6.474 -10.180  0.00  0.00    +0.139 A 
ATOM      7  C   UNL     1       5.431   7.444 -11.060  0.00  0.00    +0.037 A 
ATOM      8  C   UNL     1       6.766   7.815 -11.142  0.00  0.00    +0.003 A 
ATOM      9  C   UNL     1       7.698   7.149 -10.353  0.00  0.00    +0.000 A 
ATOM     10  C   UNL     1       7.310   5.970  -9.733  0.00  0.00    +0.003 A 
ATOM     11  C   UNL     1       5.965   5.625  -9.690  0.00  0.00    +0.037 A 
ENDBRANCH   5   6
ENDBRANCH   4   5
ENDBRANCH   3   4
ENDBRANCH   1   3
BRANCH   1  12
ATOM     12  C   UNL     1       0.786   4.844  -6.196  0.00  0.00    +0.099 C 
BRANCH  12  13
ATOM     13  C   UNL     1      -0.349   5.653  -5.763  0.00  0.00    -0.006 A 
ATOM     14  C   UNL     1      -1.554   5.438  -6.424  0.00  0.00    -0.003 A 
ATOM     15  C   UNL     1      -2.671   6.218  -6.160  0.00  0.00    -0.000 A 
ATOM     16  C   UNL     1      -2.580   7.190  -5.201  0.00  0.00    -0.000 A 
ATOM     17  C   UNL     1      -1.336   7.567  -4.778  0.00  0.00    -0.000 A 
ATOM     18  C   UNL     1      -0.202   6.852  -5.122  0.00  0.00    -0.003 A 
ENDBRANCH  12  13
ENDBRANCH   1  12
BRANCH   1  19
ATOM     19  C   UNL     1       3.199   4.957  -6.162  0.00  0.00    +0.090 C 
BRANCH  19  20
ATOM     20  C   UNL     1       3.356   5.374  -4.704  0.00  0.00    +0.112 C 
ATOM     21 CL   UNL     1       3.438   7.158  -4.604  0.00  0.00    -0.112 Cl
ENDBRANCH  19  20
ENDBRANCH   1  19
TORSDOF 8
ENDMDL
MODEL 2
REMARK VINA RESULT:      -7.3      2.007      7.511
REMARK  Name = 
REMARK  8 active torsions:
REMARK  status: ('A' for Active; 'I' for Inactive)
REMARK    1  A    between atoms: C_2  and  C_3
REMARK    2  A    between atoms: C_2  and  N_11
REMARK    3  A    between atoms: C_3  and  O_4
REMARK    4  A    between atoms: O_4  and  C_5
REMARK    5  A    between atoms: N_11  and  C_12
REMARK    6  A    between atoms: N_11  and  C_15
REMARK    7  A    between atoms: C_12  and  C_13
REMARK    8  A    between atoms: C_15  and  C_16
REMARK                            x       y       z     vdW  Elec       q    Type
REMARK                         _______ _______ _______ _____ _____    ______ ____
ROOT
ATOM      1  N   UNL     1       3.151   5.539  -8.650  0.00  0.00    -0.266 NA
ENDROOT
BRANCH   1   3
ATOM      2  C   UNL     1       4.217   5.471  -6.598  0.00  0.00    +0.021 C 
ATOM      3  C   UNL     1       2.771   5.987  -7.190  0.00  0.00    +0.102 C 
BRANCH   3   4
ATOM      4  C   UNL     1       2.026   4.575  -6.791  0.00  0.00    +0.221 C 
BRANCH   4   5
ATOM      5  O   UNL     1       1.083   4.907  -5.806  0.00  0.00    -0.474 OA
BRANCH   5   6
ATOM      6  C   UNL     1       0.028   5.799  -6.000  0.00  0.00    +0.139 A 
ATOM      7  C   UNL     1      -1.113   5.401  -6.677  0.00  0.00    +0.037 A 
ATOM      8  C   UNL     1      -2.380   5.850  -6.331  0.00  0.00    +0.003 A 
ATOM      9  C   UNL     1      -2.506   6.778  -5.303  0.00  0.00    +0.000 A 
ATOM     10  C   UNL     1      -1.362   7.424  -4.857  0.00  0.00    +0.003 A 
ATOM     11  C   UNL     1      -0.113   6.955  -5.243  0.00  0.00    +0.037 A 
ENDBRANCH   5   6
ENDBRANCH   4   5
ENDBRANCH   3   4
ENDBRANCH   1   3
BRANCH   1  12
ATOM     12  C   UNL     1       4.483   5.155  -8.721  0.00  0.00    +0.099 C 
BRANCH  12  13
ATOM     13  C   UNL     1       5.366   5.856  -9.648  0.00  0.00    -0.006 A 
ATOM     14  C   UNL     1       6.732   5.751  -9.407  0.00  0.00    -0.003 A 
ATOM     15  C   UNL     1       7.655   6.455 -10.167  0.00  0.00    -0.000 A 
ATOM     16  C   UNL     1       7.200   7.235 -11.195  0.00  0.00    -0.000 A 
ATOM     17  C   UNL     1       5.869   7.543 -11.232  0.00  0.00    -0.000 A 
ATOM     18  C   UNL     1       4.953   6.918 -10.404  0.00  0.00    -0.003 A 
ENDBRANCH  12  13
ENDBRANCH   1  12
BRANCH   1  19
ATOM     19  C   UNL     1       2.159   4.596  -9.067  0.00  0.00    +0.090 C 
BRANCH  19  20
ATOM     20  C   UNL     1       1.569   5.134 -10.367  0.00  0.00    +0.112 C 
ATOM     21 CL   UNL     1       0.632   6.619 -10.022  0.00  0.00    -0.112 Cl
ENDBRANCH  19  20
ENDBRANCH   1  19
TORSDOF 8
ENDMDL
MODEL 3
REMARK VINA RESULT:      -7.1      1.935      2.695
REMARK  Name = 
REMARK  8 active torsions:
REMARK  status: ('A' for Active; 'I' for Inactive)
REMARK    1  A    between atoms: C_2  and  C_3
REMARK    2  A    between atoms: C_2  and  N_11
REMARK    3  A    between atoms: C_3  and  O_4
REMARK    4  A    between atoms: O_4  and  C_5
REMARK    5  A    between atoms: N_11  and  C_12
REMARK    6  A    between atoms: N_11  and  C_15
REMARK    7  A    between atoms: C_12  and  C_13
REMARK    8  A    between atoms: C_15  and  C_16
REMARK                            x       y       z     vdW  Elec       q    Type
REMARK                         _______ _______ _______ _____ _____    ______ ____
ROOT
ATOM      1  N   UNL     1       1.338   5.145  -8.070  0.00  0.00    -0.266 NA
ENDROOT
BRANCH   1   3
ATOM      2  C   UNL     1       3.429   5.189  -7.080  0.00  0.00    +0.021 C 
ATOM      3  C   UNL     1       2.599   4.206  -8.107  0.00  0.00    +0.102 C 
BRANCH   3   4
ATOM      4  C   UNL     1       3.270   4.911  -9.435  0.00  0.00    +0.221 C 
BRANCH   4   5
ATOM      5  O   UNL     1       4.598   5.203  -9.081  0.00  0.00    -0.474 OA
BRANCH   5   6
ATOM      6  C   UNL     1       5.544   5.729  -9.960  0.00  0.00    +0.139 A 
ATOM      7  C   UNL     1       5.167   6.634 -10.938  0.00  0.00    +0.037 A 
ATOM      8  C   UNL     1       5.979   7.689 -11.331  0.00  0.00    +0.003 A 
ATOM      9  C   UNL     1       7.242   7.811 -10.764  0.00  0.00    +0.000 A 
ATOM     10  C   UNL     1       7.748   6.736 -10.048  0.00  0.00    +0.003 A 
ATOM     11  C   UNL     1       6.907   5.690  -9.691  0.00  0.00    +0.037 A 
ENDBRANCH   5   6
ENDBRANCH   4   5
ENDBRANCH   3   4
ENDBRANCH   1   3
BRANCH   1  12
ATOM     12  C   UNL     1       1.244   5.804  -6.852  0.00  0.00    +0.099 C 
BRANCH  12  13
ATOM     13  C   UNL     1      -0.074   6.212  -6.376  0.00  0.00    -0.006 A 
ATOM     14  C   UNL     1      -0.101   7.102  -5.307  0.00  0.00    -0.003 A 
ATOM     15  C   UNL     1      -1.297   7.481  -4.713  0.00  0.00    -0.000 A 
ATOM     16  C   UNL     1      -2.467   6.989  -5.225  0.00  0.00    -0.000 A 
ATOM     17  C   UNL     1      -2.404   5.917  -6.070  0.00  0.00    -0.000 A 
ATOM     18  C   UNL     1      -1.201   5.468  -6.587  0.00  0.00    -0.003 A 
ENDBRANCH  12  13
ENDBRANCH   1  12
BRANCH   1  19
ATOM     19  C   UNL     1       1.376   5.940  -9.260  0.00  0.00    +0.090 C 
BRANCH  19  20
ATOM     20  C   UNL     1       0.038   5.735  -9.962  0.00  0.00    +0.112 C 
ATOM     21 CL   UNL     1      -0.247   7.085 -11.100  0.00  0.00    -0.112 Cl
ENDBRANCH  19  20
ENDBRANCH   1  19
TORSDOF 8
ENDMDL
MODEL 4
REMARK VINA RESULT:      -6.8      1.856      3.898
REMARK  Name = 
REMARK  8 active torsions:
REMARK  status: ('A' for Active; 'I' for Inactive)
REMARK    1  A    between atoms: C_2  and  C_3
REMARK    2  A    between atoms: C_2  and  N_11
REMARK    3  A    between atoms: C_3  and  O_4
REMARK    4  A    between atoms: O_4  and  C_5
REMARK    5  A    between atoms: N_11  and  C_12
REMARK    6  A    between atoms: N_11  and  C_15
REMARK    7  A    between atoms: C_12  and  C_13
REMARK    8  A    between atoms: C_15  and  C_16
REMARK                            x       y       z     vdW  Elec       q    Type
REMARK                         _______ _______ _______ _____ _____    ______ ____
ROOT
ATOM      1  N   UNL     1       1.890   5.214  -6.953  0.00  0.00    -0.266 NA
ENDROOT
BRANCH   1   3
ATOM      2  C   UNL     1       1.199   5.761  -9.092  0.00  0.00    +0.021 C 
ATOM      3  C   UNL     1       2.576   5.887  -8.198  0.00  0.00    +0.102 C 
BRANCH   3   4
ATOM      4  C   UNL     1       3.184   4.485  -8.809  0.00  0.00    +0.221 C 
BRANCH   4   5
ATOM      5  O   UNL     1       4.026   4.864  -9.867  0.00  0.00    -0.474 OA
BRANCH   5   6
ATOM      6  C   UNL     1       5.039   5.816  -9.758  0.00  0.00    +0.139 A 
ATOM      7  C   UNL     1       6.186   5.543  -9.031  0.00  0.00    +0.037 A 
ATOM      8  C   UNL     1       7.438   6.007  -9.410  0.00  0.00    +0.003 A 
ATOM      9  C   UNL     1       7.540   6.824 -10.529  0.00  0.00    +0.000 A 
ATOM     10  C   UNL     1       6.377   7.370 -11.053  0.00  0.00    +0.003 A 
ATOM     11  C   UNL     1       5.142   6.891 -10.633  0.00  0.00    +0.037 A 
ENDBRANCH   5   6
ENDBRANCH   4   5
ENDBRANCH   3   4
ENDBRANCH   1   3
BRANCH   1  12
ATOM     12  C   UNL     1       2.839   4.698  -6.081  0.00  0.00    +0.099 C 
BRANCH  12  13
ATOM     13  C   UNL     1       3.412   5.578  -5.068  0.00  0.00    -0.006 A 
ATOM     14  C   UNL     1       4.537   6.307  -5.442  0.00  0.00    -0.003 A 
ATOM     15  C   UNL     1       5.219   7.099  -4.530  0.00  0.00    -0.000 A 
ATOM     16  C   UNL     1       4.743   7.185  -3.250  0.00  0.00    -0.000 A 
ATOM     17  C   UNL     1       3.827   6.257  -2.838  0.00  0.00    -0.000 A 
ATOM     18  C   UNL     1       3.216   5.391  -3.728  0.00  0.00    -0.003 A 
ENDBRANCH  12  13
ENDBRANCH   1  12
BRANCH   1  19
ATOM     19  C   UNL     1       0.949   6.160  -6.434  0.00  0.00    +0.090 C 
BRANCH  19  20
ATOM     20  C   UNL     1      -0.143   5.351  -5.743  0.00  0.00    +0.112 C 
ATOM     21 CL   UNL     1      -1.575   5.255  -6.811  0.00  0.00    -0.112 Cl
ENDBRANCH  19  20
ENDBRANCH   1  19
TORSDOF 8
ENDMDL
MODEL 5
REMARK VINA RESULT:      -6.7      2.932      6.809
REMARK  Name = 
REMARK  8 active torsions:
REMARK  status: ('A' for Active; 'I' for Inactive)
REMARK    1  A    between atoms: C_2  and  C_3
REMARK    2  A    between atoms: C_2  and  N_11
REMARK    3  A    between atoms: C_3  and  O_4
REMARK    4  A    between atoms: O_4  and  C_5
REMARK    5  A    between atoms: N_11  and  C_12
REMARK    6  A    between atoms: N_11  and  C_15
REMARK    7  A    between atoms: C_12  and  C_13
REMARK    8  A    between atoms: C_15  and  C_16
REMARK                            x       y       z     vdW  Elec       q    Type
REMARK                         _______ _______ _______ _____ _____    ______ ____
ROOT
ATOM      1  N   UNL     1       2.908   5.908  -9.330  0.00  0.00    -0.266 NA
ENDROOT
BRANCH   1   3
ATOM      2  C   UNL     1       2.739   3.783  -8.431  0.00  0.00    +0.021 C 
ATOM      3  C   UNL     1       3.143   5.288  -7.903  0.00  0.00    +0.102 C 
BRANCH   3   4
ATOM      4  C   UNL     1       1.617   5.583  -7.360  0.00  0.00    +0.221 C 
BRANCH   4   5
ATOM      5  O   UNL     1       1.597   5.146  -6.026  0.00  0.00    -0.474 OA
BRANCH   5   6
ATOM      6  C   UNL     1       2.520   5.542  -5.059  0.00  0.00    +0.139 A 
ATOM      7  C   UNL     1       3.521   4.678  -4.648  0.00  0.00    +0.037 A 
ATOM      8  C   UNL     1       4.796   5.117  -4.318  0.00  0.00    +0.003 A 
ATOM      9  C   UNL     1       5.066   6.480  -4.347  0.00  0.00    +0.000 A 
ATOM     10  C   UNL     1       3.995   7.360  -4.427  0.00  0.00    +0.003 A 
ATOM     11  C   UNL     1       2.730   6.878  -4.739  0.00  0.00    +0.037 A 
ENDBRANCH   5   6
ENDBRANCH   4   5
ENDBRANCH   3   4
ENDBRANCH   1   3
BRANCH   1  12
ATOM     12  C   UNL     1       3.785   5.365 -10.259  0.00  0.00    +0.099 C 
BRANCH  12  13
ATOM     13  C   UNL     1       5.077   6.012 -10.465  0.00  0.00    -0.006 A 
ATOM     14  C   UNL     1       6.131   5.564  -9.675  0.00  0.00    -0.003 A 
ATOM     15  C   UNL     1       7.376   6.174  -9.719  0.00  0.00    -0.000 A 
ATOM     16  C   UNL     1       7.567   7.213 -10.590  0.00  0.00    -0.000 A 
ATOM     17  C   UNL     1       6.465   7.811 -11.134  0.00  0.00    -0.000 A 
ATOM     18  C   UNL     1       5.201   7.261 -11.007  0.00  0.00    -0.003 A 
ENDBRANCH  12  13
ENDBRANCH   1  12
BRANCH   1  19
ATOM     19  C   UNL     1       1.505   5.812  -9.599  0.00  0.00    +0.090 C 
BRANCH  19  20
ATOM     20  C   UNL     1       1.303   6.304 -11.029  0.00  0.00    +0.112 C 
ATOM     21 CL   UNL     1      -0.272   7.143 -11.149  0.00  0.00    -0.112 Cl
ENDBRANCH  19  20
ENDBRANCH   1  19
TORSDOF 8
ENDMDL
MODEL 6
REMARK VINA RESULT:      -6.7      2.644      6.473
REMARK  Name = 
REMARK  8 active torsions:
REMARK  status: ('A' for Active; 'I' for Inactive)
REMARK    1  A    between atoms: C_2  and  C_3
REMARK    2  A    between atoms: C_2  and  N_11
REMARK    3  A    between atoms: C_3  and  O_4
REMARK    4  A    between atoms: O_4  and  C_5
REMARK    5  A    between atoms: N_11  and  C_12
REMARK    6  A    between atoms: N_11  and  C_15
REMARK    7  A    between atoms: C_12  and  C_13
REMARK    8  A    between atoms: C_15  and  C_16
REMARK                            x       y       z     vdW  Elec       q    Type
REMARK                         _______ _______ _______ _____ _____    ______ ____
ROOT
ATOM      1  N   UNL     1       3.647   5.659  -8.296  0.00  0.00    -0.266 NA
ENDROOT
BRANCH   1   3
ATOM      2  C   UNL     1       4.447   5.472  -6.133  0.00  0.00    +0.021 C 
ATOM      3  C   UNL     1       3.100   6.058  -6.876  0.00  0.00    +0.102 C 
BRANCH   3   4
ATOM      4  C   UNL     1       2.273   4.656  -6.636  0.00  0.00    +0.221 C 
BRANCH   4   5
ATOM      5  O   UNL     1       1.270   4.960  -5.701  0.00  0.00    -0.474 OA
BRANCH   5   6
ATOM      6  C   UNL     1       0.183   5.793  -5.964  0.00  0.00    +0.139 A 
ATOM      7  C   UNL     1      -0.893   5.332  -6.703  0.00  0.00    +0.037 A 
ATOM      8  C   UNL     1      -2.201   5.714  -6.436  0.00  0.00    +0.003 A 
ATOM      9  C   UNL     1      -2.437   6.637  -5.424  0.00  0.00    +0.000 A 
ATOM     10  C   UNL     1      -1.357   7.346  -4.917  0.00  0.00    +0.003 A 
ATOM     11  C   UNL     1      -0.064   6.944  -5.224  0.00  0.00    +0.037 A 
ENDBRANCH   5   6
ENDBRANCH   4   5
ENDBRANCH   3   4
ENDBRANCH   1   3
BRANCH   1  12
ATOM     12  C   UNL     1       3.288   6.601  -9.250  0.00  0.00    +0.099 C 
BRANCH  12  13
ATOM     13  C   UNL     1       2.149   6.319 -10.118  0.00  0.00    -0.006 A 
ATOM     14  C   UNL     1       2.433   6.077 -11.459  0.00  0.00    -0.003 A 
ATOM     15  C   UNL     1       1.420   5.895 -12.389  0.00  0.00    -0.000 A 
ATOM     16  C   UNL     1       0.121   5.920 -11.958  0.00  0.00    -0.000 A 
ATOM     17  C   UNL     1      -0.139   6.434 -10.719  0.00  0.00    -0.000 A 
ATOM     18  C   UNL     1       0.875   6.716  -9.820  0.00  0.00    -0.003 A 
ENDBRANCH  12  13
ENDBRANCH   1  12
BRANCH   1  19
ATOM     19  C   UNL     1       5.039   5.364  -8.138  0.00  0.00    +0.090 C 
BRANCH  19  20
ATOM     20  C   UNL     1       5.699   5.651  -9.482  0.00  0.00    +0.112 C 
ATOM     21 CL   UNL     1       7.476   5.666  -9.278  0.00  0.00    -0.112 Cl
ENDBRANCH  19  20
ENDBRANCH   1  19
TORSDOF 8
ENDMDL
MODEL 7
REMARK VINA RESULT:      -6.6      2.228      6.095
REMARK  Name = 
REMARK  8 active torsions:
REMARK  status: ('A' for Active; 'I' for Inactive)
REMARK    1  A    between atoms: C_2  and  C_3
REMARK    2  A    between atoms: C_2  and  N_11
REMARK    3  A    between atoms: C_3  and  O_4
REMARK    4  A    between atoms: O_4  and  C_5
REMARK    5  A    between atoms: N_11  and  C_12
REMARK    6  A    between atoms: N_11  and  C_15
REMARK    7  A    between atoms: C_12  and  C_13
REMARK    8  A    between atoms: C_15  and  C_16
REMARK                            x       y       z     vdW  Elec       q    Type
REMARK                         _______ _______ _______ _____ _____    ______ ____
ROOT
ATOM      1  N   UNL     1       3.811   5.787  -8.376  0.00  0.00    -0.266 NA
ENDROOT
BRANCH   1   3
ATOM      2  C   UNL     1       2.847   5.668 -10.476  0.00  0.00    +0.021 C 
ATOM      3  C   UNL     1       2.551   5.060  -8.975  0.00  0.00    +0.102 C 
BRANCH   3   4
ATOM      4  C   UNL     1       1.496   6.271  -8.617  0.00  0.00    +0.221 C 
BRANCH   4   5
ATOM      5  O   UNL     1       0.303   5.637  -8.235  0.00  0.00    -0.474 OA
BRANCH   5   6
ATOM      6  C   UNL     1      -0.245   5.706  -6.955  0.00  0.00    +0.139 A 
ATOM      7  C   UNL     1       0.351   6.485  -5.977  0.00  0.00    +0.037 A 
ATOM      8  C   UNL     1      -0.383   7.180  -5.025  0.00  0.00    +0.003 A 
ATOM      9  C   UNL     1      -1.767   7.046  -5.016  0.00  0.00    +0.000 A 
ATOM     10  C   UNL     1      -2.333   6.022  -5.762  0.00  0.00    +0.003 A 
ATOM     11  C   UNL     1      -1.558   5.337  -6.690  0.00  0.00    +0.037 A 
ENDBRANCH   5   6
ENDBRANCH   4   5
ENDBRANCH   3   4
ENDBRANCH   1   3
BRANCH   1  12
ATOM     12  C   UNL     1       4.316   5.091  -7.287  0.00  0.00    +0.099 C 
BRANCH  12  13
ATOM     13  C   UNL     1       4.106   5.634  -5.949  0.00  0.00    -0.006 A 
ATOM     14  C   UNL     1       3.560   4.771  -5.005  0.00  0.00    -0.003 A 
ATOM     15  C   UNL     1       3.229   5.210  -3.731  0.00  0.00    -0.000 A 
ATOM     16  C   UNL     1       3.484   6.513  -3.400  0.00  0.00    -0.000 A 
ATOM     17  C   UNL     1       3.747   7.397  -4.408  0.00  0.00    -0.000 A 
ATOM     18  C   UNL     1       3.978   6.974  -5.706  0.00  0.00    -0.003 A 
ENDBRANCH  12  13
ENDBRANCH   1  12
BRANCH   1  19
ATOM     19  C   UNL     1       4.696   6.053  -9.469  0.00  0.00    +0.090 C 
BRANCH  19  20
ATOM     20  C   UNL     1       6.073   5.557  -9.043  0.00  0.00    +0.112 C 
ATOM     21 CL   UNL     1       7.327   6.369 -10.027  0.00  0.00    -0.112 Cl
ENDBRANCH  19  20
ENDBRANCH   1  19
TORSDOF 8
ENDMDL
MODEL 8
REMARK VINA RESULT:      -6.5      2.467      3.339
REMARK  Name = 
REMARK  8 active torsions:
REMARK  status: ('A' for Active; 'I' for Inactive)
REMARK    1  A    between atoms: C_2  and  C_3
REMARK    2  A    between atoms: C_2  and  N_11
REMARK    3  A    between atoms: C_3  and  O_4
REMARK    4  A    between atoms: O_4  and  C_5
REMARK    5  A    between atoms: N_11  and  C_12
REMARK    6  A    between atoms: N_11  and  C_15
REMARK    7  A    between atoms: C_12  and  C_13
REMARK    8  A    between atoms: C_15  and  C_16
REMARK                            x       y       z     vdW  Elec       q    Type
REMARK                         _______ _______ _______ _____ _____    ______ ____
ROOT
ATOM      1  N   UNL     1       1.844   5.206  -9.736  0.00  0.00    -0.266 NA
ENDROOT
BRANCH   1   3
ATOM      2  C   UNL     1       3.693   4.082  -8.917  0.00  0.00    +0.021 C 
ATOM      3  C   UNL     1       3.336   5.040 -10.207  0.00  0.00    +0.102 C 
BRANCH   3   4
ATOM      4  C   UNL     1       3.884   6.391  -9.443  0.00  0.00    +0.221 C 
BRANCH   4   5
ATOM      5  O   UNL     1       5.255   6.177  -9.226  0.00  0.00    -0.474 OA
BRANCH   5   6
ATOM      6  C   UNL     1       6.257   6.557 -10.118  0.00  0.00    +0.139 A 
ATOM      7  C   UNL     1       7.408   5.799 -10.246  0.00  0.00    +0.037 A 
ATOM      8  C   UNL     1       8.058   5.627 -11.461  0.00  0.00    +0.003 A 
ATOM      9  C   UNL     1       7.569   6.287 -12.582  0.00  0.00    +0.000 A 
ATOM     10  C   UNL     1       6.636   7.297 -12.396  0.00  0.00    +0.003 A 
ATOM     11  C   UNL     1       6.023   7.448 -11.159  0.00  0.00    +0.037 A 
ENDBRANCH   5   6
ENDBRANCH   4   5
ENDBRANCH   3   4
ENDBRANCH   1   3
BRANCH   1  12
ATOM     12  C   UNL     1       1.714   6.275  -8.860  0.00  0.00    +0.099 C 
BRANCH  12  13
ATOM     13  C   UNL     1       0.888   6.109  -7.669  0.00  0.00    -0.006 A 
ATOM     14  C   UNL     1      -0.355   5.510  -7.852  0.00  0.00    -0.003 A 
ATOM     15  C   UNL     1      -1.259   5.391  -6.807  0.00  0.00    -0.000 A 
ATOM     16  C   UNL     1      -0.893   5.843  -5.568  0.00  0.00    -0.000 A 
ATOM     17  C   UNL     1       0.192   6.668  -5.475  0.00  0.00    -0.000 A 
ATOM     18  C   UNL     1       1.044   6.874  -6.547  0.00  0.00    -0.003 A 
ENDBRANCH  12  13
ENDBRANCH   1  12
BRANCH   1  19
ATOM     19  C   UNL     1       1.033   5.205 -10.916  0.00  0.00    +0.090 C 
BRANCH  19  20
ATOM     20  C   UNL     1       0.955   6.652 -11.390  0.00  0.00    +0.112 C 
ATOM     21 CL   UNL     1      -0.749   7.196 -11.351  0.00  0.00    -0.112 Cl
ENDBRANCH  19  20
ENDBRANCH   1  19
TORSDOF 8
ENDMDL
MODEL 9
REMARK VINA RESULT:      -6.5      3.012      7.432
REMARK  Name = 
REMARK  8 active torsions:
REMARK  status: ('A' for Active; 'I' for Inactive)
REMARK    1  A    between atoms: C_2  and  C_3
REMARK    2  A    between atoms: C_2  and  N_11
REMARK    3  A    between atoms: C_3  and  O_4
REMARK    4  A    between atoms: O_4  and  C_5
REMARK    5  A    between atoms: N_11  and  C_12
REMARK    6  A    between atoms: N_11  and  C_15
REMARK    7  A    between atoms: C_12  and  C_13
REMARK    8  A    between atoms: C_15  and  C_16
REMARK                            x       y       z     vdW  Elec       q    Type
REMARK                         _______ _______ _______ _____ _____    ______ ____
ROOT
ATOM      1  N   UNL     1       1.972   5.730  -7.362  0.00  0.00    -0.266 NA
ENDROOT
BRANCH   1   3
ATOM      2  C   UNL     1      -0.256   5.439  -7.915  0.00  0.00    +0.021 C 
ATOM      3  C   UNL     1       0.761   4.967  -6.710  0.00  0.00    +0.102 C 
BRANCH   3   4
ATOM      4  C   UNL     1       0.304   6.215  -5.740  0.00  0.00    +0.221 C 
BRANCH   4   5
ATOM      5  O   UNL     1      -1.079   6.359  -5.931  0.00  0.00    -0.474 OA
BRANCH   5   6
ATOM      6  C   UNL     1      -1.993   6.585  -4.902  0.00  0.00    +0.139 A 
ATOM      7  C   UNL     1      -2.768   5.548  -4.411  0.00  0.00    +0.037 A 
ATOM      8  C   UNL     1      -3.111   5.442  -3.070  0.00  0.00    +0.003 A 
ATOM      9  C   UNL     1      -2.709   6.444  -2.194  0.00  0.00    +0.000 A 
ATOM     10  C   UNL     1      -2.233   7.633  -2.728  0.00  0.00    +0.003 A 
ATOM     11  C   UNL     1      -1.921   7.703  -4.080  0.00  0.00    +0.037 A 
ENDBRANCH   5   6
ENDBRANCH   4   5
ENDBRANCH   3   4
ENDBRANCH   1   3
BRANCH   1  12
ATOM     12  C   UNL     1       3.181   5.161  -6.985  0.00  0.00    +0.099 C 
BRANCH  12  13
ATOM     13  C   UNL     1       3.911   5.745  -5.864  0.00  0.00    -0.006 A 
ATOM     14  C   UNL     1       4.208   4.895  -4.804  0.00  0.00    -0.003 A 
ATOM     15  C   UNL     1       4.812   5.367  -3.647  0.00  0.00    -0.000 A 
ATOM     16  C   UNL     1       5.150   6.692  -3.578  0.00  0.00    -0.000 A 
ATOM     17  C   UNL     1       4.601   7.548  -4.492  0.00  0.00    -0.000 A 
ATOM     18  C   UNL     1       3.907   7.086  -5.597  0.00  0.00    -0.003 A 
ENDBRANCH  12  13
ENDBRANCH   1  12
BRANCH   1  19
ATOM     19  C   UNL     1       1.691   5.837  -8.762  0.00  0.00    +0.090 C 
BRANCH  19  20
ATOM     20  C   UNL     1       3.002   5.562  -9.490  0.00  0.00    +0.112 C 
ATOM     21 CL   UNL     1       2.910   6.228 -11.148  0.00  0.00    -0.112 Cl
ENDBRANCH  19  20
ENDBRANCH   1  19
TORSDOF 8
ENDMDL
