MODEL 1
REMARK VINA RESULT:      -8.0      0.000      0.000
REMARK  Name = 
REMARK  4 active torsions:
REMARK  status: ('A' for Active; 'I' for Inactive)
REMARK    1  A    between atoms: C_2  and  C_3
REMARK    2  A    between atoms: C_3  and  C_4
REMARK    3  A    between atoms: C_4  and  C_5
REMARK    4  A    between atoms: C_5  and  C_6
REMARK                            x       y       z     vdW  Elec       q    Type
REMARK                         _______ _______ _______ _____ _____    ______ ____
ROOT
ATOM      1  C   UNL     1      -0.170   6.344  -2.783  0.00  0.00    -0.016 A 
ATOM      2  C   UNL     1       0.709   6.674  -3.747  0.00  0.00    +0.033 A 
ATOM      3  C   UNL     1       2.011   6.426  -3.551  0.00  0.00    +0.137 A 
ATOM      4  O   UNL     1       3.033   6.748  -4.516  0.00  0.00    -0.483 OA
ATOM      5  C   UNL     1       4.418   6.649  -4.196  0.00  0.00    +0.134 C 
ATOM      6  C   UNL     1       4.883   5.361  -3.258  0.00  0.00    +0.045 C 
ATOM      7  C   UNL     1       3.819   5.248  -1.851  0.00  0.00    +0.053 C 
ATOM      8  C   UNL     1       4.304   6.573  -1.102  0.00  0.00    -0.030 C 
ATOM      9  C   UNL     1       3.815   7.202  -2.021  0.00  0.00    -0.048 C 
ATOM     10  C   UNL     1       3.566   8.623  -1.797  0.00  0.00    +0.026 C 
ATOM     11  C   UNL     1       3.912   6.239  -2.859  0.00  0.00    +0.022 C 
ATOM     12  C   UNL     1       3.529   4.930  -3.669  0.00  0.00    +0.008 C 
ATOM     13  C   UNL     1       5.423   7.556  -4.522  0.00  0.00    +0.044 C 
ATOM     14  C   UNL     1       4.730   5.778  -5.474  0.00  0.00    +0.044 C 
ATOM     15  C   UNL     1       2.366   5.628  -2.447  0.00  0.00    +0.054 A 
ATOM     16  C   UNL     1       1.430   4.996  -1.669  0.00  0.00    +0.195 A 
ATOM     17  O   UNL     1       1.685   4.050  -0.693  0.00  0.00    -0.287 OA
ATOM     18  C   UNL     1       0.127   5.365  -1.871  0.00  0.00    +0.038 A 
ENDROOT
BRANCH   1  19
ATOM     19  C   UNL     1      -1.574   6.826  -2.926  0.00  0.00    +0.027 C 
BRANCH  19  20
ATOM     20  C   UNL     1      -1.641   7.651  -4.204  0.00  0.00    +0.005 C 
BRANCH  20  21
ATOM     21  C   UNL     1      -2.703   7.145  -5.143  0.00  0.00    +0.000 C 
BRANCH  21  23
ATOM     22  C   UNL     1      -2.235   5.630  -6.358  0.00  0.00    +0.000 C 
ATOM     23  C   UNL     1      -2.238   5.992  -5.993  0.00  0.00    +0.000 C 
ENDBRANCH  21  23
ENDBRANCH  20  21
ENDBRANCH  19  20
ENDBRANCH   1  19
TORSDOF 4
ENDMDL
MODEL 2
REMARK VINA RESULT:      -7.7      2.206      6.063
REMARK  Name = 
REMARK  4 active torsions:
REMARK  status: ('A' for Active; 'I' for Inactive)
REMARK    1  A    between atoms: C_2  and  C_3
REMARK    2  A    between atoms: C_3  and  C_4
REMARK    3  A    between atoms: C_4  and  C_5
REMARK    4  A    between atoms: C_5  and  C_6
REMARK                            x       y       z     vdW  Elec       q    Type
REMARK                         _______ _______ _______ _____ _____    ______ ____
ROOT
ATOM      1  C   UNL     1       1.584   6.685  -6.035  0.00  0.00    -0.016 A 
ATOM      2  C   UNL     1       1.370   6.798  -4.712  0.00  0.00    +0.033 A 
ATOM      3  C   UNL     1       0.140   6.568  -4.232  0.00  0.00    +0.137 A 
ATOM      4  O   UNL     1      -0.197   6.670  -2.833  0.00  0.00    -0.483 OA
ATOM      5  C   UNL     1      -1.548   6.609  -2.386  0.00  0.00    +0.134 C 
ATOM      6  C   UNL     1      -2.546   5.526  -3.152  0.00  0.00    +0.045 C 
ATOM      7  C   UNL     1      -2.385   5.719  -4.901  0.00  0.00    +0.053 C 
ATOM      8  C   UNL     1      -3.069   7.157  -5.027  0.00  0.00    -0.030 C 
ATOM      9  C   UNL     1      -2.119   7.599  -4.410  0.00  0.00    -0.048 C 
ATOM     10  C   UNL     1      -1.897   9.040  -4.470  0.00  0.00    +0.026 C 
ATOM     11  C   UNL     1      -1.851   6.485  -3.836  0.00  0.00    +0.022 C 
ATOM     12  C   UNL     1      -1.221   5.049  -3.603  0.00  0.00    +0.008 C 
ATOM     13  C   UNL     1      -2.151   7.412  -1.421  0.00  0.00    +0.044 C 
ATOM     14  C   UNL     1      -1.225   5.494  -1.317  0.00  0.00    +0.044 C 
ATOM     15  C   UNL     1      -0.807   6.000  -5.105  0.00  0.00    +0.054 A 
ATOM     16  C   UNL     1      -0.474   5.556  -6.358  0.00  0.00    +0.195 A 
ATOM     17  O   UNL     1      -1.283   4.819  -7.205  0.00  0.00    -0.287 OA
ATOM     18  C   UNL     1       0.770   5.903  -6.812  0.00  0.00    +0.038 A 
ENDROOT
BRANCH   1  19
ATOM     19  C   UNL     1       2.894   7.156  -6.571  0.00  0.00    +0.027 C 
BRANCH  19  20
ATOM     20  C   UNL     1       3.888   7.138  -5.417  0.00  0.00    +0.005 C 
BRANCH  20  21
ATOM     21  C   UNL     1       4.825   5.963  -5.502  0.00  0.00    +0.000 C 
BRANCH  21  23
ATOM     22  C   UNL     1       4.450   4.592  -4.097  0.00  0.00    +0.000 C 
ATOM     23  C   UNL     1       4.642   4.980  -4.376  0.00  0.00    +0.000 C 
ENDBRANCH  21  23
ENDBRANCH  20  21
ENDBRANCH  19  20
ENDBRANCH   1  19
TORSDOF 4
ENDMDL
MODEL 3
REMARK VINA RESULT:      -7.7      5.221      8.595
REMARK  Name = 
REMARK  4 active torsions:
REMARK  status: ('A' for Active; 'I' for Inactive)
REMARK    1  A    between atoms: C_2  and  C_3
REMARK    2  A    between atoms: C_3  and  C_4
REMARK    3  A    between atoms: C_4  and  C_5
REMARK    4  A    between atoms: C_5  and  C_6
REMARK                            x       y       z     vdW  Elec       q    Type
REMARK                         _______ _______ _______ _____ _____    ______ ____
ROOT
ATOM      1  C   UNL     1       5.854   6.000  -9.921  0.00  0.00    -0.016 A 
ATOM      2  C   UNL     1       5.430   5.603  -8.708  0.00  0.00    +0.033 A 
ATOM      3  C   UNL     1       4.117   5.425  -8.505  0.00  0.00    +0.137 A 
ATOM      4  O   UNL     1       3.559   5.008  -7.242  0.00  0.00    -0.483 OA
ATOM      5  C   UNL     1       2.154   5.017  -7.009  0.00  0.00    +0.134 C 
ATOM      6  C   UNL     1       1.180   4.539  -8.265  0.00  0.00    +0.045 C 
ATOM      7  C   UNL     1       1.661   5.393  -9.736  0.00  0.00    +0.053 C 
ATOM      8  C   UNL     1       1.187   6.856  -9.305  0.00  0.00    -0.030 C 
ATOM      9  C   UNL     1       2.062   6.829  -8.461  0.00  0.00    -0.048 C 
ATOM     10  C   UNL     1       2.462   8.105  -7.875  0.00  0.00    +0.026 C 
ATOM     11  C   UNL     1       2.092   5.550  -8.396  0.00  0.00    +0.022 C 
ATOM     12  C   UNL     1       2.496   4.055  -8.735  0.00  0.00    +0.008 C 
ATOM     13  C   UNL     1       1.495   5.454  -5.862  0.00  0.00    +0.044 C 
ATOM     14  C   UNL     1       2.153   3.526  -6.493  0.00  0.00    +0.044 C 
ATOM     15  C   UNL     1       3.273   5.442  -9.632  0.00  0.00    +0.054 A 
ATOM     16  C   UNL     1       3.761   5.493 -10.912  0.00  0.00    +0.195 A 
ATOM     17  O   UNL     1       3.027   5.324 -12.072  0.00  0.00    -0.287 OA
ATOM     18  C   UNL     1       5.098   5.763 -11.040  0.00  0.00    +0.038 A 
ENDROOT
BRANCH   1  19
ATOM     19  C   UNL     1       7.282   6.403 -10.062  0.00  0.00    +0.027 C 
BRANCH  19  20
ATOM     20  C   UNL     1       7.979   5.320 -10.875  0.00  0.00    +0.005 C 
BRANCH  20  21
ATOM     21  C   UNL     1       8.753   5.895 -12.031  0.00  0.00    +0.000 C 
BRANCH  21  23
ATOM     22  C   UNL     1       7.567   5.886 -13.638  0.00  0.00    +0.000 C 
ATOM     23  C   UNL     1       7.960   5.936 -13.310  0.00  0.00    +0.000 C 
ENDBRANCH  21  23
ENDBRANCH  20  21
ENDBRANCH  19  20
ENDBRANCH   1  19
TORSDOF 4
ENDMDL
MODEL 4
REMARK VINA RESULT:      -7.5      6.033      8.230
REMARK  Name = 
REMARK  4 active torsions:
REMARK  status: ('A' for Active; 'I' for Inactive)
REMARK    1  A    between atoms: C_2  and  C_3
REMARK    2  A    between atoms: C_3  and  C_4
REMARK    3  A    between atoms: C_4  and  C_5
REMARK    4  A    between atoms: C_5  and  C_6
REMARK                            x       y       z     vdW  Elec       q    Type
REMARK                         _______ _______ _______ _____ _____    ______ ____
ROOT
ATOM      1  C   UNL     1       3.203   6.625  -9.273  0.00  0.00    -0.016 A 
ATOM      2  C   UNL     1       3.318   6.715 -10.610  0.00  0.00    +0.033 A 
ATOM      3  C   UNL     1       4.512   6.490 -11.175  0.00  0.00    +0.137 A 
ATOM      4  O   UNL     1       4.744   6.569 -12.596  0.00  0.00    -0.483 OA
ATOM      5  C   UNL     1       6.059   6.514 -13.141  0.00  0.00    +0.134 C 
ATOM      6  C   UNL     1       7.124   5.456 -12.431  0.00  0.00    +0.045 C 
ATOM      7  C   UNL     1       7.089   5.679 -10.679  0.00  0.00    +0.053 C 
ATOM      8  C   UNL     1       7.764   7.126 -10.628  0.00  0.00    -0.030 C 
ATOM      9  C   UNL     1       6.766   7.547 -11.182  0.00  0.00    -0.048 C 
ATOM     10  C   UNL     1       6.532   8.987 -11.131  0.00  0.00    +0.026 C 
ATOM     11  C   UNL     1       6.470   6.420 -11.714  0.00  0.00    +0.022 C 
ATOM     12  C   UNL     1       5.841   4.973 -11.875  0.00  0.00    +0.008 C 
ATOM     13  C   UNL     1       6.580   7.305 -14.161  0.00  0.00    +0.044 C 
ATOM     14  C   UNL     1       5.672   5.376 -14.163  0.00  0.00    +0.044 C 
ATOM     15  C   UNL     1       5.527   5.948 -10.364  0.00  0.00    +0.054 A 
ATOM     16  C   UNL     1       5.292   5.523  -9.082  0.00  0.00    +0.195 A 
ATOM     17  O   UNL     1       6.170   4.810  -8.285  0.00  0.00    -0.287 OA
ATOM     18  C   UNL     1       4.080   5.865  -8.544  0.00  0.00    +0.038 A 
ENDROOT
BRANCH   1  19
ATOM     19  C   UNL     1       1.931   7.092  -8.651  0.00  0.00    +0.027 C 
BRANCH  19  20
ATOM     20  C   UNL     1       1.083   5.858  -8.373  0.00  0.00    +0.005 C 
BRANCH  20  21
ATOM     21  C   UNL     1      -0.060   5.731  -9.344  0.00  0.00    +0.000 C 
BRANCH  21  23
ATOM     22  C   UNL     1       0.256   4.501 -10.886  0.00  0.00    +0.000 C 
ATOM     23  C   UNL     1       0.189   4.708 -10.419  0.00  0.00    +0.000 C 
ENDBRANCH  21  23
ENDBRANCH  20  21
ENDBRANCH  19  20
ENDBRANCH   1  19
TORSDOF 4
ENDMDL
MODEL 5
REMARK VINA RESULT:      -7.4      1.640      2.808
REMARK  Name = 
REMARK  4 active torsions:
REMARK  status: ('A' for Active; 'I' for Inactive)
REMARK    1  A    between atoms: C_2  and  C_3
REMARK    2  A    between atoms: C_3  and  C_4
REMARK    3  A    between atoms: C_4  and  C_5
REMARK    4  A    between atoms: C_5  and  C_6
REMARK                            x       y       z     vdW  Elec       q    Type
REMARK                         _______ _______ _______ _____ _____    ______ ____
ROOT
ATOM      1  C   UNL     1      -0.065   6.112  -5.322  0.00  0.00    -0.016 A 
ATOM      2  C   UNL     1       0.785   7.037  -4.838  0.00  0.00    +0.033 A 
ATOM      3  C   UNL     1       2.014   6.656  -4.463  0.00  0.00    +0.137 A 
ATOM      4  O   UNL     1       2.996   7.565  -3.925  0.00  0.00    -0.483 OA
ATOM      5  C   UNL     1       4.216   7.094  -3.360  0.00  0.00    +0.134 C 
ATOM      6  C   UNL     1       4.954   5.817  -4.121  0.00  0.00    +0.045 C 
ATOM      7  C   UNL     1       3.766   4.541  -4.409  0.00  0.00    +0.053 C 
ATOM      8  C   UNL     1       3.535   4.110  -2.888  0.00  0.00    -0.030 C 
ATOM      9  C   UNL     1       3.029   5.202  -2.715  0.00  0.00    -0.048 C 
ATOM     10  C   UNL     1       2.204   5.374  -1.524  0.00  0.00    +0.026 C 
ATOM     11  C   UNL     1       3.659   5.754  -3.685  0.00  0.00    +0.022 C 
ATOM     12  C   UNL     1       3.987   6.237  -5.159  0.00  0.00    +0.008 C 
ATOM     13  C   UNL     1       4.827   7.539  -2.191  0.00  0.00    +0.044 C 
ATOM     14  C   UNL     1       5.089   8.071  -4.239  0.00  0.00    +0.044 C 
ATOM     15  C   UNL     1       2.428   5.356  -4.807  0.00  0.00    +0.054 A 
ATOM     16  C   UNL     1       1.683   4.539  -5.618  0.00  0.00    +0.195 A 
ATOM     17  O   UNL     1       2.091   3.334  -6.160  0.00  0.00    -0.287 OA
ATOM     18  C   UNL     1       0.407   4.956  -5.888  0.00  0.00    +0.038 A 
ENDROOT
BRANCH   1  19
ATOM     19  C   UNL     1      -1.487   6.512  -5.524  0.00  0.00    +0.027 C 
BRANCH  19  20
ATOM     20  C   UNL     1      -2.353   5.468  -4.830  0.00  0.00    +0.005 C 
BRANCH  20  21
ATOM     21  C   UNL     1      -2.158   5.478  -3.338  0.00  0.00    +0.000 C 
BRANCH  21  23
ATOM     22  C   UNL     1      -3.655   6.512  -2.515  0.00  0.00    +0.000 C 
ATOM     23  C   UNL     1      -3.214   6.265  -2.609  0.00  0.00    +0.000 C 
ENDBRANCH  21  23
ENDBRANCH  20  21
ENDBRANCH  19  20
ENDBRANCH   1  19
TORSDOF 4
ENDMDL
MODEL 6
REMARK VINA RESULT:      -7.4      1.536      3.596
REMARK  Name = 
REMARK  4 active torsions:
REMARK  status: ('A' for Active; 'I' for Inactive)
REMARK    1  A    between atoms: C_2  and  C_3
REMARK    2  A    between atoms: C_3  and  C_4
REMARK    3  A    between atoms: C_4  and  C_5
REMARK    4  A    between atoms: C_5  and  C_6
REMARK                            x       y       z     vdW  Elec       q    Type
REMARK                         _______ _______ _______ _____ _____    ______ ____
ROOT
ATOM      1  C   UNL     1       0.274   5.771  -5.840  0.00  0.00    -0.016 A 
ATOM      2  C   UNL     1       0.591   5.672  -4.536  0.00  0.00    +0.033 A 
ATOM      3  C   UNL     1       1.823   6.016  -4.139  0.00  0.00    +0.137 A 
ATOM      4  O   UNL     1       2.265   5.940  -2.768  0.00  0.00    -0.483 OA
ATOM      5  C   UNL     1       3.632   6.129  -2.414  0.00  0.00    +0.134 C 
ATOM      6  C   UNL     1       4.466   7.307  -3.233  0.00  0.00    +0.045 C 
ATOM      7  C   UNL     1       4.202   7.111  -4.969  0.00  0.00    +0.053 C 
ATOM      8  C   UNL     1       5.010   5.746  -5.161  0.00  0.00    -0.030 C 
ATOM      9  C   UNL     1       4.153   5.210  -4.485  0.00  0.00    -0.048 C 
ATOM     10  C   UNL     1       4.067   3.755  -4.548  0.00  0.00    +0.026 C 
ATOM     11  C   UNL     1       3.820   6.290  -3.881  0.00  0.00    +0.022 C 
ATOM     12  C   UNL     1       3.072   7.657  -3.586  0.00  0.00    +0.008 C 
ATOM     13  C   UNL     1       4.375   5.382  -1.503  0.00  0.00    +0.044 C 
ATOM     14  C   UNL     1       3.279   7.200  -1.312  0.00  0.00    +0.044 C 
ATOM     15  C   UNL     1       2.648   6.678  -5.068  0.00  0.00    +0.054 A 
ATOM     16  C   UNL     1       2.187   7.096  -6.290  0.00  0.00    +0.195 A 
ATOM     17  O   UNL     1       2.861   7.913  -7.180  0.00  0.00    -0.287 OA
ATOM     18  C   UNL     1       0.953   6.633  -6.661  0.00  0.00    +0.038 A 
ENDROOT
BRANCH   1  19
ATOM     19  C   UNL     1      -1.018   5.178  -6.290  0.00  0.00    +0.027 C 
BRANCH  19  20
ATOM     20  C   UNL     1      -2.082   5.595  -5.283  0.00  0.00    +0.005 C 
BRANCH  20  21
ATOM     21  C   UNL     1      -2.681   6.933  -5.621  0.00  0.00    +0.000 C 
BRANCH  21  23
ATOM     22  C   UNL     1      -1.947   8.285  -4.346  0.00  0.00    +0.000 C 
ATOM     23  C   UNL     1      -2.188   8.044  -4.732  0.00  0.00    +0.000 C 
ENDBRANCH  21  23
ENDBRANCH  20  21
ENDBRANCH  19  20
ENDBRANCH   1  19
TORSDOF 4
ENDMDL
MODEL 7
REMARK VINA RESULT:      -7.2      2.865      5.933
REMARK  Name = 
REMARK  4 active torsions:
REMARK  status: ('A' for Active; 'I' for Inactive)
REMARK    1  A    between atoms: C_2  and  C_3
REMARK    2  A    between atoms: C_3  and  C_4
REMARK    3  A    between atoms: C_4  and  C_5
REMARK    4  A    between atoms: C_5  and  C_6
REMARK                            x       y       z     vdW  Elec       q    Type
REMARK                         _______ _______ _______ _____ _____    ______ ____
ROOT
ATOM      1  C   UNL     1       1.538   6.706  -6.124  0.00  0.00    -0.016 A 
ATOM      2  C   UNL     1       1.371   6.833  -4.795  0.00  0.00    +0.033 A 
ATOM      3  C   UNL     1       0.162   6.597  -4.267  0.00  0.00    +0.137 A 
ATOM      4  O   UNL     1      -0.124   6.713  -2.858  0.00  0.00    -0.483 OA
ATOM      5  C   UNL     1      -1.457   6.644  -2.361  0.00  0.00    +0.134 C 
ATOM      6  C   UNL     1      -2.471   5.542  -3.076  0.00  0.00    +0.045 C 
ATOM      7  C   UNL     1      -2.377   5.714  -4.832  0.00  0.00    +0.053 C 
ATOM      8  C   UNL     1      -3.080   7.143  -4.951  0.00  0.00    -0.030 C 
ATOM      9  C   UNL     1      -2.112   7.603  -4.374  0.00  0.00    -0.048 C 
ATOM     10  C   UNL     1      -1.908   9.045  -4.461  0.00  0.00    +0.026 C 
ATOM     11  C   UNL     1      -1.812   6.499  -3.798  0.00  0.00    +0.022 C 
ATOM     12  C   UNL     1      -1.158   5.072  -3.570  0.00  0.00    +0.008 C 
ATOM     13  C   UNL     1      -2.032   7.453  -1.384  0.00  0.00    +0.044 C 
ATOM     14  C   UNL     1      -1.083   5.546  -1.291  0.00  0.00    +0.044 C 
ATOM     15  C   UNL     1      -0.810   6.009  -5.097  0.00  0.00    +0.054 A 
ATOM     16  C   UNL     1      -0.519   5.552  -6.357  0.00  0.00    +0.195 A 
ATOM     17  O   UNL     1      -1.351   4.796  -7.164  0.00  0.00    -0.287 OA
ATOM     18  C   UNL     1       0.705   5.905  -6.861  0.00  0.00    +0.038 A 
ENDROOT
BRANCH   1  19
ATOM     19  C   UNL     1       2.822   7.183  -6.713  0.00  0.00    +0.027 C 
BRANCH  19  20
ATOM     20  C   UNL     1       2.537   7.586  -8.154  0.00  0.00    +0.005 C 
BRANCH  20  21
ATOM     21  C   UNL     1       3.385   6.818  -9.130  0.00  0.00    +0.000 C 
BRANCH  21  23
ATOM     22  C   UNL     1       2.173   5.926 -10.443  0.00  0.00    +0.000 C 
ATOM     23  C   UNL     1       2.578   6.114 -10.189  0.00  0.00    +0.000 C 
ENDBRANCH  21  23
ENDBRANCH  20  21
ENDBRANCH  19  20
ENDBRANCH   1  19
TORSDOF 4
ENDMDL
MODEL 8
REMARK VINA RESULT:      -7.2      4.008      7.183
REMARK  Name = 
REMARK  4 active torsions:
REMARK  status: ('A' for Active; 'I' for Inactive)
REMARK    1  A    between atoms: C_2  and  C_3
REMARK    2  A    between atoms: C_3  and  C_4
REMARK    3  A    between atoms: C_4  and  C_5
REMARK    4  A    between atoms: C_5  and  C_6
REMARK                            x       y       z     vdW  Elec       q    Type
REMARK                         _______ _______ _______ _____ _____    ______ ____
ROOT
ATOM      1  C   UNL     1       4.850   5.411  -9.316  0.00  0.00    -0.016 A 
ATOM      2  C   UNL     1       5.125   5.894  -8.091  0.00  0.00    +0.033 A 
ATOM      3  C   UNL     1       4.215   5.752  -7.117  0.00  0.00    +0.137 A 
ATOM      4  O   UNL     1       4.408   6.241  -5.774  0.00  0.00    -0.483 OA
ATOM      5  C   UNL     1       3.349   6.244  -4.823  0.00  0.00    +0.134 C 
ATOM      6  C   UNL     1       2.328   4.934  -4.829  0.00  0.00    +0.045 C 
ATOM      7  C   UNL     1       1.796   4.615  -6.484  0.00  0.00    +0.053 C 
ATOM      8  C   UNL     1       0.890   5.916  -6.678  0.00  0.00    -0.030 C 
ATOM      9  C   UNL     1       1.916   6.568  -6.625  0.00  0.00    -0.048 C 
ATOM     10  C   UNL     1       1.862   7.938  -7.125  0.00  0.00    +0.026 C 
ATOM     11  C   UNL     1       2.554   5.686  -5.950  0.00  0.00    +0.022 C 
ATOM     12  C   UNL     1       3.450   4.415  -5.640  0.00  0.00    +0.008 C 
ATOM     13  C   UNL     1       3.024   7.262  -3.930  0.00  0.00    +0.044 C 
ATOM     14  C   UNL     1       4.220   5.508  -3.733  0.00  0.00    +0.044 C 
ATOM     15  C   UNL     1       3.118   4.906  -7.366  0.00  0.00    +0.054 A 
ATOM     16  C   UNL     1       3.031   4.132  -8.495  0.00  0.00    +0.195 A 
ATOM     17  O   UNL     1       2.097   3.140  -8.734  0.00  0.00    -0.287 OA
ATOM     18  C   UNL     1       3.945   4.395  -9.481  0.00  0.00    +0.038 A 
ENDROOT
BRANCH   1  19
ATOM     19  C   UNL     1       5.773   5.772 -10.430  0.00  0.00    +0.027 C 
BRANCH  19  20
ATOM     20  C   UNL     1       7.149   6.005  -9.821  0.00  0.00    +0.005 C 
BRANCH  20  21
ATOM     21  C   UNL     1       8.047   6.784 -10.743  0.00  0.00    +0.000 C 
BRANCH  21  23
ATOM     22  C   UNL     1       8.912   5.773 -12.233  0.00  0.00    +0.000 C 
ATOM     23  C   UNL     1       8.587   5.956 -11.879  0.00  0.00    +0.000 C 
ENDBRANCH  21  23
ENDBRANCH  20  21
ENDBRANCH  19  20
ENDBRANCH   1  19
TORSDOF 4
ENDMDL
MODEL 9
REMARK VINA RESULT:      -7.1      7.180     10.786
REMARK  Name = 
REMARK  4 active torsions:
REMARK  status: ('A' for Active; 'I' for Inactive)
REMARK    1  A    between atoms: C_2  and  C_3
REMARK    2  A    between atoms: C_3  and  C_4
REMARK    3  A    between atoms: C_4  and  C_5
REMARK    4  A    between atoms: C_5  and  C_6
REMARK                            x       y       z     vdW  Elec       q    Type
REMARK                         _______ _______ _______ _____ _____    ______ ____
ROOT
ATOM      1  C   UNL     1       4.822   6.135 -12.817  0.00  0.00    -0.016 A 
ATOM      2  C   UNL     1       3.929   6.585 -11.917  0.00  0.00    +0.033 A 
ATOM      3  C   UNL     1       2.632   6.294 -12.088  0.00  0.00    +0.137 A 
ATOM      4  O   UNL     1       1.596   6.734 -11.186  0.00  0.00    -0.483 OA
ATOM      5  C   UNL     1       0.216   6.572 -11.501  0.00  0.00    +0.134 C 
ATOM      6  C   UNL     1      -0.223   5.160 -12.255  0.00  0.00    +0.045 C 
ATOM      7  C   UNL     1       0.857   4.866 -13.622  0.00  0.00    +0.053 C 
ATOM      8  C   UNL     1       0.364   6.066 -14.553  0.00  0.00    -0.030 C 
ATOM      9  C   UNL     1       0.836   6.825 -13.728  0.00  0.00    -0.048 C 
ATOM     10  C   UNL     1       1.070   8.203 -14.145  0.00  0.00    +0.026 C 
ATOM     11  C   UNL     1       0.741   5.986 -12.763  0.00  0.00    +0.022 C 
ATOM     12  C   UNL     1       1.131   4.809 -11.775  0.00  0.00    +0.008 C 
ATOM     13  C   UNL     1      -0.803   7.503 -11.315  0.00  0.00    +0.044 C 
ATOM     14  C   UNL     1      -0.099   5.885 -10.117  0.00  0.00    +0.044 C 
ATOM     15  C   UNL     1       2.299   5.345 -13.072  0.00  0.00    +0.054 A 
ATOM     16  C   UNL     1       3.250   4.623 -13.746  0.00  0.00    +0.195 A 
ATOM     17  O   UNL     1       3.017   3.546 -14.582  0.00  0.00    -0.287 OA
ATOM     18  C   UNL     1       4.547   5.034 -13.586  0.00  0.00    +0.038 A 
ENDROOT
BRANCH   1  19
ATOM     19  C   UNL     1       6.218   6.651 -12.731  0.00  0.00    +0.027 C 
BRANCH  19  20
ATOM     20  C   UNL     1       6.311   7.495 -11.466  0.00  0.00    +0.005 C 
BRANCH  20  21
ATOM     21  C   UNL     1       7.481   7.095 -10.609  0.00  0.00    +0.000 C 
BRANCH  21  23
ATOM     22  C   UNL     1       6.979   5.670  -9.303  0.00  0.00    +0.000 C 
ATOM     23  C   UNL     1       7.175   5.938  -9.695  0.00  0.00    +0.000 C 
ENDBRANCH  21  23
ENDBRANCH  20  21
ENDBRANCH  19  20
ENDBRANCH   1  19
TORSDOF 4
ENDMDL
