MODEL 1
REMARK VINA RESULT:      -5.0      0.000      0.000
REMARK  Name = 
REMARK  5 active torsions:
REMARK  status: ('A' for Active; 'I' for Inactive)
REMARK    1  A    between atoms: P_2  and  N_3
REMARK    2  A    between atoms: N_3  and  C_4
REMARK    3  A    between atoms: C_4  and  C_5
REMARK    4  A    between atoms: N_11  and  C_12
REMARK    5  A    between atoms: C_12  and  C_13
REMARK                            x       y       z     vdW  Elec       q    Type
REMARK                         _______ _______ _______ _____ _____    ______ ____
ROOT
ATOM      1  O   UNL     1       2.097   8.394  -7.877  0.00  0.00    -0.253 OA
ATOM      2  P   UNL     1       2.282   7.068  -7.483  0.00  0.00    +0.365 P 
ATOM      3  N   UNL     1       0.726   6.261  -7.598  0.00  0.00    -0.196 NA
ATOM      4  C   UNL     1       0.704   5.576  -8.880  0.00  0.00    +0.084 C 
ATOM      5  C   UNL     1       1.362   6.479  -9.896  0.00  0.00    +0.050 C 
ATOM      6  C   UNL     1       2.844   6.232  -9.843  0.00  0.00    +0.153 C 
ATOM      7  O   UNL     1       3.367   6.329  -8.561  0.00  0.00    -0.291 OA
ENDROOT
BRANCH   3   8
ATOM      8  C   UNL     1       0.513   5.372  -6.486  0.00  0.00    +0.099 C 
BRANCH   8   9
ATOM      9  C   UNL     1      -0.656   5.833  -5.650  0.00  0.00    +0.113 C 
ATOM     10 CL   UNL     1      -2.160   5.467  -6.533  0.00  0.00    -0.112 Cl
ENDBRANCH   8   9
ENDBRANCH   3   8
BRANCH   2  11
ATOM     11  N   UNL     1       2.971   6.945  -5.893  0.00  0.00    -0.132 NA
BRANCH  11  12
ATOM     12  C   UNL     1       4.112   6.074  -5.823  0.00  0.00    +0.117 C 
BRANCH  12  13
ATOM     13  C   UNL     1       4.834   6.116  -4.511  0.00  0.00    +0.114 C 
ATOM     14 CL   UNL     1       5.445   7.716  -4.089  0.00  0.00    -0.112 Cl
ENDBRANCH  12  13
ENDBRANCH  11  12
ENDBRANCH   2  11
TORSDOF 5
ENDMDL
MODEL 2
REMARK VINA RESULT:      -4.8      2.872      4.697
REMARK  Name = 
REMARK  5 active torsions:
REMARK  status: ('A' for Active; 'I' for Inactive)
REMARK    1  A    between atoms: P_2  and  N_3
REMARK    2  A    between atoms: N_3  and  C_4
REMARK    3  A    between atoms: C_4  and  C_5
REMARK    4  A    between atoms: N_11  and  C_12
REMARK    5  A    between atoms: C_12  and  C_13
REMARK                            x       y       z     vdW  Elec       q    Type
REMARK                         _______ _______ _______ _____ _____    ______ ____
ROOT
ATOM      1  O   UNL     1       2.639   7.270  -3.729  0.00  0.00    -0.253 OA
ATOM      2  P   UNL     1       2.093   6.633  -4.845  0.00  0.00    +0.365 P 
ATOM      3  N   UNL     1       2.942   7.230  -6.261  0.00  0.00    -0.196 NA
ATOM      4  C   UNL     1       3.976   6.256  -6.570  0.00  0.00    +0.084 C 
ATOM      5  C   UNL     1       4.565   5.781  -5.264  0.00  0.00    +0.050 C 
ATOM      6  C   UNL     1       3.715   4.648  -4.759  0.00  0.00    +0.153 C 
ATOM      7  O   UNL     1       2.365   4.963  -4.701  0.00  0.00    -0.291 OA
ENDROOT
BRANCH   3   8
ATOM      8  C   UNL     1       2.038   7.451  -7.360  0.00  0.00    +0.099 C 
BRANCH   8   9
ATOM      9  C   UNL     1       1.995   6.246  -8.268  0.00  0.00    +0.113 C 
ATOM     10 CL   UNL     1       0.310   5.676  -8.368  0.00  0.00    -0.112 Cl
ENDBRANCH   8   9
ENDBRANCH   3   8
BRANCH   2  11
ATOM     11  N   UNL     1       0.375   6.867  -4.960  0.00  0.00    -0.132 NA
BRANCH  11  12
ATOM     12  C   UNL     1      -0.388   5.669  -4.746  0.00  0.00    +0.117 C 
BRANCH  12  13
ATOM     13  C   UNL     1      -1.872   5.872  -4.785  0.00  0.00    +0.114 C 
ATOM     14 CL   UNL     1      -2.589   5.556  -6.365  0.00  0.00    -0.112 Cl
ENDBRANCH  12  13
ENDBRANCH  11  12
ENDBRANCH   2  11
TORSDOF 5
ENDMDL
MODEL 3
REMARK VINA RESULT:      -4.8      2.948      3.970
REMARK  Name = 
REMARK  5 active torsions:
REMARK  status: ('A' for Active; 'I' for Inactive)
REMARK    1  A    between atoms: P_2  and  N_3
REMARK    2  A    between atoms: N_3  and  C_4
REMARK    3  A    between atoms: C_4  and  C_5
REMARK    4  A    between atoms: N_11  and  C_12
REMARK    5  A    between atoms: C_12  and  C_13
REMARK                            x       y       z     vdW  Elec       q    Type
REMARK                         _______ _______ _______ _____ _____    ______ ____
ROOT
ATOM      1  O   UNL     1      -0.348   5.298  -3.577  0.00  0.00    -0.253 OA
ATOM      2  P   UNL     1       0.180   6.040  -4.634  0.00  0.00    +0.365 P 
ATOM      3  N   UNL     1       0.090   5.044  -6.077  0.00  0.00    -0.196 NA
ATOM      4  C   UNL     1      -1.118   5.437  -6.783  0.00  0.00    +0.084 C 
ATOM      5  C   UNL     1      -2.194   5.682  -5.752  0.00  0.00    +0.050 C 
ATOM      6  C   UNL     1      -2.065   7.103  -5.278  0.00  0.00    +0.153 C 
ATOM      7  O   UNL     1      -0.781   7.423  -4.858  0.00  0.00    -0.291 OA
ENDROOT
BRANCH   3   8
ATOM      8  C   UNL     1       1.276   5.178  -6.883  0.00  0.00    +0.099 C 
BRANCH   8   9
ATOM      9  C   UNL     1       1.051   6.161  -8.006  0.00  0.00    +0.113 C 
ATOM     10 CL   UNL     1       2.010   7.626  -7.674  0.00  0.00    -0.112 Cl
ENDBRANCH   8   9
ENDBRANCH   3   8
BRANCH   2  11
ATOM     11  N   UNL     1       1.798   6.585  -4.310  0.00  0.00    -0.132 NA
BRANCH  11  12
ATOM     12  C   UNL     1       2.525   5.736  -3.407  0.00  0.00    +0.117 C 
BRANCH  12  13
ATOM     13  C   UNL     1       3.734   5.091  -4.013  0.00  0.00    +0.114 C 
ATOM     14 CL   UNL     1       4.488   6.053  -5.284  0.00  0.00    -0.112 Cl
ENDBRANCH  12  13
ENDBRANCH  11  12
ENDBRANCH   2  11
TORSDOF 5
ENDMDL
MODEL 4
REMARK VINA RESULT:      -4.8      2.136      4.913
REMARK  Name = 
REMARK  5 active torsions:
REMARK  status: ('A' for Active; 'I' for Inactive)
REMARK    1  A    between atoms: P_2  and  N_3
REMARK    2  A    between atoms: N_3  and  C_4
REMARK    3  A    between atoms: C_4  and  C_5
REMARK    4  A    between atoms: N_11  and  C_12
REMARK    5  A    between atoms: C_12  and  C_13
REMARK                            x       y       z     vdW  Elec       q    Type
REMARK                         _______ _______ _______ _____ _____    ______ ____
ROOT
ATOM      1  O   UNL     1       1.101   3.740  -6.005  0.00  0.00    -0.253 OA
ATOM      2  P   UNL     1       1.500   5.040  -5.691  0.00  0.00    +0.365 P 
ATOM      3  N   UNL     1       3.233   5.010  -5.416  0.00  0.00    -0.196 NA
ATOM      4  C   UNL     1       3.862   5.425  -6.659  0.00  0.00    +0.084 C 
ATOM      5  C   UNL     1       3.088   4.802  -7.796  0.00  0.00    +0.050 C 
ATOM      6  C   UNL     1       1.938   5.713  -8.127  0.00  0.00    +0.153 C 
ATOM      7  O   UNL     1       1.169   6.044  -7.021  0.00  0.00    -0.291 OA
ENDROOT
BRANCH   3   8
ATOM      8  C   UNL     1       3.602   5.840  -4.299  0.00  0.00    +0.099 C 
BRANCH   8   9
ATOM      9  C   UNL     1       4.010   7.216  -4.767  0.00  0.00    +0.113 C 
ATOM     10 CL   UNL     1       5.675   7.529  -4.214  0.00  0.00    -0.112 Cl
ENDBRANCH   8   9
ENDBRANCH   3   8
BRANCH   2  11
ATOM     11  N   UNL     1       0.629   5.683  -4.332  0.00  0.00    -0.132 NA
BRANCH  11  12
ATOM     12  C   UNL     1      -0.414   6.601  -4.694  0.00  0.00    +0.117 C 
BRANCH  12  13
ATOM     13  C   UNL     1      -1.774   5.979  -4.789  0.00  0.00    +0.114 C 
ATOM     14 CL   UNL     1      -2.265   5.597  -6.439  0.00  0.00    -0.112 Cl
ENDBRANCH  12  13
ENDBRANCH  11  12
ENDBRANCH   2  11
TORSDOF 5
ENDMDL
MODEL 5
REMARK VINA RESULT:      -4.8      2.304      4.391
REMARK  Name = 
REMARK  5 active torsions:
REMARK  status: ('A' for Active; 'I' for Inactive)
REMARK    1  A    between atoms: P_2  and  N_3
REMARK    2  A    between atoms: N_3  and  C_4
REMARK    3  A    between atoms: C_4  and  C_5
REMARK    4  A    between atoms: N_11  and  C_12
REMARK    5  A    between atoms: C_12  and  C_13
REMARK                            x       y       z     vdW  Elec       q    Type
REMARK                         _______ _______ _______ _____ _____    ______ ____
ROOT
ATOM      1  O   UNL     1       4.178   5.899  -7.769  0.00  0.00    -0.253 OA
ATOM      2  P   UNL     1       3.004   6.105  -7.043  0.00  0.00    +0.365 P 
ATOM      3  N   UNL     1       2.710   4.660  -6.091  0.00  0.00    -0.196 NA
ATOM      4  C   UNL     1       3.238   4.920  -4.761  0.00  0.00    +0.084 C 
ATOM      5  C   UNL     1       4.531   5.683  -4.921  0.00  0.00    +0.050 C 
ATOM      6  C   UNL     1       4.196   7.146  -5.023  0.00  0.00    +0.153 C 
ATOM      7  O   UNL     1       3.242   7.419  -5.993  0.00  0.00    -0.291 OA
ENDROOT
BRANCH   3   8
ATOM      8  C   UNL     1       1.313   4.314  -6.078  0.00  0.00    +0.099 C 
BRANCH   8   9
ATOM      9  C   UNL     1       0.588   5.058  -4.983  0.00  0.00    +0.113 C 
ATOM     10 CL   UNL     1      -0.908   5.746  -5.664  0.00  0.00    -0.112 Cl
ENDBRANCH   8   9
ENDBRANCH   3   8
BRANCH   2  11
ATOM     11  N   UNL     1       1.659   6.503  -8.069  0.00  0.00    -0.132 NA
BRANCH  11  12
ATOM     12  C   UNL     1       1.872   6.182  -9.453  0.00  0.00    +0.117 C 
BRANCH  12  13
ATOM     13  C   UNL     1       1.503   4.777  -9.820  0.00  0.00    +0.114 C 
ATOM     14 CL   UNL     1      -0.003   4.656 -10.730  0.00  0.00    -0.112 Cl
ENDBRANCH  12  13
ENDBRANCH  11  12
ENDBRANCH   2  11
TORSDOF 5
ENDMDL
MODEL 6
REMARK VINA RESULT:      -4.7      2.781      5.343
REMARK  Name = 
REMARK  5 active torsions:
REMARK  status: ('A' for Active; 'I' for Inactive)
REMARK    1  A    between atoms: P_2  and  N_3
REMARK    2  A    between atoms: N_3  and  C_4
REMARK    3  A    between atoms: C_4  and  C_5
REMARK    4  A    between atoms: N_11  and  C_12
REMARK    5  A    between atoms: C_12  and  C_13
REMARK                            x       y       z     vdW  Elec       q    Type
REMARK                         _______ _______ _______ _____ _____    ______ ____
ROOT
ATOM      1  O   UNL     1       2.090   8.169  -7.747  0.00  0.00    -0.253 OA
ATOM      2  P   UNL     1       2.002   6.780  -7.634  0.00  0.00    +0.365 P 
ATOM      3  N   UNL     1       3.626   6.133  -7.795  0.00  0.00    -0.196 NA
ATOM      4  C   UNL     1       4.128   5.922  -6.447  0.00  0.00    +0.084 C 
ATOM      5  C   UNL     1       3.668   7.083  -5.598  0.00  0.00    +0.050 C 
ATOM      6  C   UNL     1       2.292   6.764  -5.085  0.00  0.00    +0.153 C 
ATOM      7  O   UNL     1       1.407   6.399  -6.089  0.00  0.00    -0.291 OA
ENDROOT
BRANCH   3   8
ATOM      8  C   UNL     1       3.636   4.931  -8.588  0.00  0.00    +0.099 C 
BRANCH   8   9
ATOM      9  C   UNL     1       4.513   5.102  -9.806  0.00  0.00    +0.113 C 
ATOM     10 CL   UNL     1       4.579   6.835 -10.213  0.00  0.00    -0.112 Cl
ENDBRANCH   8   9
ENDBRANCH   3   8
BRANCH   2  11
ATOM     11  N   UNL     1       0.903   6.096  -8.793  0.00  0.00    -0.132 NA
BRANCH  11  12
ATOM     12  C   UNL     1       0.883   6.789 -10.051  0.00  0.00    +0.117 C 
BRANCH  12  13
ATOM     13  C   UNL     1       1.120   5.907 -11.239  0.00  0.00    +0.114 C 
ATOM     14 CL   UNL     1      -0.129   4.685 -11.475  0.00  0.00    -0.112 Cl
ENDBRANCH  12  13
ENDBRANCH  11  12
ENDBRANCH   2  11
TORSDOF 5
ENDMDL
MODEL 7
REMARK VINA RESULT:      -4.7      2.976      4.393
REMARK  Name = 
REMARK  5 active torsions:
REMARK  status: ('A' for Active; 'I' for Inactive)
REMARK    1  A    between atoms: P_2  and  N_3
REMARK    2  A    between atoms: N_3  and  C_4
REMARK    3  A    between atoms: C_4  and  C_5
REMARK    4  A    between atoms: N_11  and  C_12
REMARK    5  A    between atoms: C_12  and  C_13
REMARK                            x       y       z     vdW  Elec       q    Type
REMARK                         _______ _______ _______ _____ _____    ______ ____
ROOT
ATOM      1  O   UNL     1       0.786   5.428  -8.825  0.00  0.00    -0.253 OA
ATOM      2  P   UNL     1       1.473   6.492  -9.413  0.00  0.00    +0.365 P 
ATOM      3  N   UNL     1       2.804   5.817 -10.336  0.00  0.00    -0.196 NA
ATOM      4  C   UNL     1       2.352   5.723 -11.715  0.00  0.00    +0.084 C 
ATOM      5  C   UNL     1       0.910   5.276 -11.697  0.00  0.00    +0.050 C 
ATOM      6  C   UNL     1       0.049   6.499 -11.547  0.00  0.00    +0.153 C 
ATOM      7  O   UNL     1       0.418   7.297 -10.473  0.00  0.00    -0.291 OA
ENDROOT
BRANCH   3   8
ATOM      8  C   UNL     1       3.998   6.609 -10.193  0.00  0.00    +0.099 C 
BRANCH   8   9
ATOM      9  C   UNL     1       5.201   5.861 -10.714  0.00  0.00    +0.113 C 
ATOM     10 CL   UNL     1       6.394   5.724  -9.398  0.00  0.00    -0.112 Cl
ENDBRANCH   8   9
ENDBRANCH   3   8
BRANCH   2  11
ATOM     11  N   UNL     1       2.009   7.655  -8.239  0.00  0.00    -0.132 NA
BRANCH  11  12
ATOM     12  C   UNL     1       1.911   7.195  -6.881  0.00  0.00    +0.117 C 
BRANCH  12  13
ATOM     13  C   UNL     1       3.233   7.026  -6.196  0.00  0.00    +0.114 C 
ATOM     14 CL   UNL     1       4.108   5.578  -6.694  0.00  0.00    -0.112 Cl
ENDBRANCH  12  13
ENDBRANCH  11  12
ENDBRANCH   2  11
TORSDOF 5
ENDMDL
MODEL 8
REMARK VINA RESULT:      -4.7      3.350      4.478
REMARK  Name = 
REMARK  5 active torsions:
REMARK  status: ('A' for Active; 'I' for Inactive)
REMARK    1  A    between atoms: P_2  and  N_3
REMARK    2  A    between atoms: N_3  and  C_4
REMARK    3  A    between atoms: C_4  and  C_5
REMARK    4  A    between atoms: N_11  and  C_12
REMARK    5  A    between atoms: C_12  and  C_13
REMARK                            x       y       z     vdW  Elec       q    Type
REMARK                         _______ _______ _______ _____ _____    ______ ____
ROOT
ATOM      1  O   UNL     1       3.552   3.780  -8.800  0.00  0.00    -0.253 OA
ATOM      2  P   UNL     1       3.065   4.988  -9.301  0.00  0.00    +0.365 P 
ATOM      3  N   UNL     1       1.337   4.799  -9.546  0.00  0.00    -0.196 NA
ATOM      4  C   UNL     1       0.684   5.354  -8.372  0.00  0.00    +0.084 C 
ATOM      5  C   UNL     1       1.501   4.964  -7.164  0.00  0.00    +0.050 C 
ATOM      6  C   UNL     1       2.587   5.990  -6.988  0.00  0.00    +0.153 C 
ATOM      7  O   UNL     1       3.328   6.201  -8.142  0.00  0.00    -0.291 OA
ENDROOT
BRANCH   3   8
ATOM      8  C   UNL     1       0.909   5.425 -10.771  0.00  0.00    +0.099 C 
BRANCH   8   9
ATOM      9  C   UNL     1       0.622   6.890 -10.551  0.00  0.00    +0.113 C 
ATOM     10 CL   UNL     1      -0.827   7.328 -11.491  0.00  0.00    -0.112 Cl
ENDBRANCH   8   9
ENDBRANCH   3   8
BRANCH   2  11
ATOM     11  N   UNL     1       3.887   5.475 -10.752  0.00  0.00    -0.132 NA
BRANCH  11  12
ATOM     12  C   UNL     1       4.432   6.803 -10.691  0.00  0.00    +0.117 C 
BRANCH  12  13
ATOM     13  C   UNL     1       5.927   6.855 -10.776  0.00  0.00    +0.114 C 
ATOM     14 CL   UNL     1       6.544   8.348 -11.485  0.00  0.00    -0.112 Cl
ENDBRANCH  12  13
ENDBRANCH  11  12
ENDBRANCH   2  11
TORSDOF 5
ENDMDL
MODEL 9
REMARK VINA RESULT:      -4.7      5.973      7.325
REMARK  Name = 
REMARK  5 active torsions:
REMARK  status: ('A' for Active; 'I' for Inactive)
REMARK    1  A    between atoms: P_2  and  N_3
REMARK    2  A    between atoms: N_3  and  C_4
REMARK    3  A    between atoms: C_4  and  C_5
REMARK    4  A    between atoms: N_11  and  C_12
REMARK    5  A    between atoms: C_12  and  C_13
REMARK                            x       y       z     vdW  Elec       q    Type
REMARK                         _______ _______ _______ _____ _____    ______ ____
ROOT
ATOM      1  O   UNL     1      -2.698   4.982  -2.096  0.00  0.00    -0.253 OA
ATOM      2  P   UNL     1      -1.634   5.816  -1.747  0.00  0.00    +0.365 P 
ATOM      3  N   UNL     1      -0.147   4.967  -2.134  0.00  0.00    -0.196 NA
ATOM      4  C   UNL     1       0.281   5.445  -3.438  0.00  0.00    +0.084 C 
ATOM      5  C   UNL     1      -0.950   5.605  -4.296  0.00  0.00    +0.050 C 
ATOM      6  C   UNL     1      -1.522   6.971  -4.036  0.00  0.00    +0.153 C 
ATOM      7  O   UNL     1      -1.723   7.228  -2.687  0.00  0.00    -0.291 OA
ENDROOT
BRANCH   3   8
ATOM      8  C   UNL     1       0.849   5.161  -1.112  0.00  0.00    +0.099 C 
BRANCH   8   9
ATOM      9  C   UNL     1       1.975   6.028  -1.623  0.00  0.00    +0.113 C 
ATOM     10 CL   UNL     1       3.495   5.106  -1.501  0.00  0.00    -0.112 Cl
ENDBRANCH   8   9
ENDBRANCH   3   8
BRANCH   2  11
ATOM     11  N   UNL     1      -1.701   6.302  -0.080  0.00  0.00    -0.132 NA
BRANCH  11  12
ATOM     12  C   UNL     1      -1.668   7.726   0.110  0.00  0.00    +0.117 C 
BRANCH  12  13
ATOM     13  C   UNL     1      -2.274   8.186   1.400  0.00  0.00    +0.114 C 
ATOM     14 CL   UNL     1      -1.798   9.820   1.864  0.00  0.00    -0.112 Cl
ENDBRANCH  12  13
ENDBRANCH  11  12
ENDBRANCH   2  11
TORSDOF 5
ENDMDL
