MODEL 1
REMARK VINA RESULT:      -5.3      0.000      0.000
REMARK  Name = 
REMARK  3 active torsions:
REMARK  status: ('A' for Active; 'I' for Inactive)
REMARK    1  A    between atoms: N_2  and  C_3
REMARK    2  A    between atoms: C_3  and  C_5
REMARK    3  A    between atoms: C_5  and  C_6
REMARK                            x       y       z     vdW  Elec       q    Type
REMARK                         _______ _______ _______ _____ _____    ______ ____
ROOT
ATOM      1  C   UNL     1       6.499   7.447 -11.393  0.00  0.00    +0.001 C 
ATOM      2  C   UNL     1       7.571   6.935 -10.499  0.00  0.00    +0.000 C 
ATOM      3  C   UNL     1       8.156   5.630 -10.953  0.00  0.00    +0.000 C 
ATOM      4  C   UNL     1       8.706   5.839 -12.333  0.00  0.00    +0.000 C 
ATOM      5  C   UNL     1       7.612   6.167 -13.279  0.00  0.00    +0.000 C 
ATOM      6  C   UNL     1       6.481   6.955 -12.777  0.00  0.00    +0.000 C 
ENDROOT
BRANCH   1   7
ATOM      7  C   UNL     1       5.101   7.280 -10.808  0.00  0.00    +0.017 C 
BRANCH   7   8
ATOM      8  C   UNL     1       4.638   5.884 -11.532  0.00  0.00    +0.073 C 
ATOM      9  C   UNL     1       4.417   5.132 -10.093  0.00  0.00    +0.019 C 
BRANCH   8  11
ATOM     10  C   UNL     1       2.658   5.958 -12.741  0.00  0.00    +0.107 C 
ATOM     11  N   UNL     1       3.137   6.341 -11.595  0.00  0.00    -0.218 NA
ENDBRANCH   8  11
ENDBRANCH   7   8
ENDBRANCH   1   7
TORSDOF 3
ENDMDL
MODEL 2
REMARK VINA RESULT:      -5.1      2.069      3.179
REMARK  Name = 
REMARK  3 active torsions:
REMARK  status: ('A' for Active; 'I' for Inactive)
REMARK    1  A    between atoms: N_2  and  C_3
REMARK    2  A    between atoms: C_3  and  C_5
REMARK    3  A    between atoms: C_5  and  C_6
REMARK                            x       y       z     vdW  Elec       q    Type
REMARK                         _______ _______ _______ _____ _____    ______ ____
ROOT
ATOM      1  C   UNL     1       4.985   6.176 -10.259  0.00  0.00    +0.001 C 
ATOM      2  C   UNL     1       5.493   7.067 -11.334  0.00  0.00    +0.000 C 
ATOM      3  C   UNL     1       6.788   7.742 -10.989  0.00  0.00    +0.000 C 
ATOM      4  C   UNL     1       7.795   6.667 -10.705  0.00  0.00    +0.000 C 
ATOM      5  C   UNL     1       7.391   5.885  -9.511  0.00  0.00    +0.000 C 
ATOM      6  C   UNL     1       5.958   5.674  -9.279  0.00  0.00    +0.000 C 
ENDROOT
BRANCH   1   7
ATOM      7  C   UNL     1       3.804   6.770  -9.498  0.00  0.00    +0.017 C 
BRANCH   7   8
ATOM      8  C   UNL     1       3.794   5.814  -8.166  0.00  0.00    +0.073 C 
ATOM      9  C   UNL     1       2.976   6.930  -7.289  0.00  0.00    +0.019 C 
BRANCH   8  11
ATOM     10  C   UNL     1       2.670   3.818  -8.542  0.00  0.00    +0.107 C 
ATOM     11  N   UNL     1       2.468   5.101  -8.612  0.00  0.00    -0.218 NA
ENDBRANCH   8  11
ENDBRANCH   7   8
ENDBRANCH   1   7
TORSDOF 3
ENDMDL
MODEL 3
REMARK VINA RESULT:      -5.1      6.164      8.722
REMARK  Name = 
REMARK  3 active torsions:
REMARK  status: ('A' for Active; 'I' for Inactive)
REMARK    1  A    between atoms: N_2  and  C_3
REMARK    2  A    between atoms: C_3  and  C_5
REMARK    3  A    between atoms: C_5  and  C_6
REMARK                            x       y       z     vdW  Elec       q    Type
REMARK                         _______ _______ _______ _____ _____    ______ ____
ROOT
ATOM      1  C   UNL     1      -0.023   5.790  -6.163  0.00  0.00    +0.001 C 
ATOM      2  C   UNL     1       0.001   6.766  -5.042  0.00  0.00    +0.000 C 
ATOM      3  C   UNL     1      -1.217   7.640  -4.984  0.00  0.00    +0.000 C 
ATOM      4  C   UNL     1      -2.411   6.742  -4.847  0.00  0.00    +0.000 C 
ATOM      5  C   UNL     1      -2.556   5.889  -6.052  0.00  0.00    +0.000 C 
ATOM      6  C   UNL     1      -1.334   5.443  -6.729  0.00  0.00    +0.000 C 
ENDROOT
BRANCH   1   7
ATOM      7  C   UNL     1       0.907   6.172  -7.309  0.00  0.00    +0.017 C 
BRANCH   7   8
ATOM      8  C   UNL     1       2.011   7.082  -6.508  0.00  0.00    +0.073 C 
ATOM      9  C   UNL     1       3.246   6.108  -6.968  0.00  0.00    +0.019 C 
BRANCH   8  11
ATOM     10  C   UNL     1       2.725   7.317  -8.704  0.00  0.00    +0.107 C 
ATOM     11  N   UNL     1       2.217   8.030  -7.743  0.00  0.00    -0.218 NA
ENDBRANCH   8  11
ENDBRANCH   7   8
ENDBRANCH   1   7
TORSDOF 3
ENDMDL
MODEL 4
REMARK VINA RESULT:      -5.0      1.977      3.027
REMARK  Name = 
REMARK  3 active torsions:
REMARK  status: ('A' for Active; 'I' for Inactive)
REMARK    1  A    between atoms: N_2  and  C_3
REMARK    2  A    between atoms: C_3  and  C_5
REMARK    3  A    between atoms: C_5  and  C_6
REMARK                            x       y       z     vdW  Elec       q    Type
REMARK                         _______ _______ _______ _____ _____    ______ ____
ROOT
ATOM      1  C   UNL     1       5.005   6.195  -9.749  0.00  0.00    +0.001 C 
ATOM      2  C   UNL     1       6.244   5.626  -9.157  0.00  0.00    +0.000 C 
ATOM      3  C   UNL     1       7.435   5.713 -10.065  0.00  0.00    +0.000 C 
ATOM      4  C   UNL     1       7.649   7.161 -10.391  0.00  0.00    +0.000 C 
ATOM      5  C   UNL     1       6.493   7.694 -11.153  0.00  0.00    +0.000 C 
ATOM      6  C   UNL     1       5.161   7.167 -10.840  0.00  0.00    +0.000 C 
ENDROOT
BRANCH   1   7
ATOM      7  C   UNL     1       4.013   5.128 -10.199  0.00  0.00    +0.017 C 
BRANCH   7   8
ATOM      8  C   UNL     1       2.718   5.513  -9.272  0.00  0.00    +0.073 C 
ATOM      9  C   UNL     1       1.680   5.328 -10.526  0.00  0.00    +0.019 C 
BRANCH   8  11
ATOM     10  C   UNL     1       2.435   4.022  -7.515  0.00  0.00    +0.107 C 
ATOM     11  N   UNL     1       2.525   4.023  -8.812  0.00  0.00    -0.218 NA
ENDBRANCH   8  11
ENDBRANCH   7   8
ENDBRANCH   1   7
TORSDOF 3
ENDMDL
MODEL 5
REMARK VINA RESULT:      -5.0      6.353      9.025
REMARK  Name = 
REMARK  3 active torsions:
REMARK  status: ('A' for Active; 'I' for Inactive)
REMARK    1  A    between atoms: N_2  and  C_3
REMARK    2  A    between atoms: C_3  and  C_5
REMARK    3  A    between atoms: C_5  and  C_6
REMARK                            x       y       z     vdW  Elec       q    Type
REMARK                         _______ _______ _______ _____ _____    ______ ____
ROOT
ATOM      1  C   UNL     1      -0.171   5.803  -6.318  0.00  0.00    +0.001 C 
ATOM      2  C   UNL     1      -1.557   5.393  -6.668  0.00  0.00    +0.000 C 
ATOM      3  C   UNL     1      -2.554   5.672  -5.583  0.00  0.00    +0.000 C 
ATOM      4  C   UNL     1      -2.518   7.145  -5.304  0.00  0.00    +0.000 C 
ATOM      5  C   UNL     1      -1.190   7.536  -4.771  0.00  0.00    +0.000 C 
ATOM      6  C   UNL     1      -0.011   6.821  -5.270  0.00  0.00    +0.000 C 
ENDROOT
BRANCH   1   7
ATOM      7  C   UNL     1       0.734   4.623  -5.980  0.00  0.00    +0.017 C 
BRANCH   7   8
ATOM      8  C   UNL     1       2.148   5.133  -6.635  0.00  0.00    +0.073 C 
ATOM      9  C   UNL     1       3.001   4.683  -5.310  0.00  0.00    +0.019 C 
BRANCH   8  11
ATOM     10  C   UNL     1       2.582   3.984  -8.604  0.00  0.00    +0.107 C 
ATOM     11  N   UNL     1       2.393   3.751  -7.339  0.00  0.00    -0.218 NA
ENDBRANCH   8  11
ENDBRANCH   7   8
ENDBRANCH   1   7
TORSDOF 3
ENDMDL
MODEL 6
REMARK VINA RESULT:      -4.9      7.989     10.540
REMARK  Name = 
REMARK  3 active torsions:
REMARK  status: ('A' for Active; 'I' for Inactive)
REMARK    1  A    between atoms: N_2  and  C_3
REMARK    2  A    between atoms: C_3  and  C_5
REMARK    3  A    between atoms: C_5  and  C_6
REMARK                            x       y       z     vdW  Elec       q    Type
REMARK                         _______ _______ _______ _____ _____    ______ ____
ROOT
ATOM      1  C   UNL     1      -1.783   6.775  -5.183  0.00  0.00    +0.001 C 
ATOM      2  C   UNL     1      -2.578   5.539  -4.958  0.00  0.00    +0.000 C 
ATOM      3  C   UNL     1      -2.704   5.165  -3.511  0.00  0.00    +0.000 C 
ATOM      4  C   UNL     1      -3.350   6.317  -2.801  0.00  0.00    +0.000 C 
ATOM      5  C   UNL     1      -2.474   7.513  -2.856  0.00  0.00    +0.000 C 
ATOM      6  C   UNL     1      -1.657   7.713  -4.058  0.00  0.00    +0.000 C 
ENDROOT
BRANCH   1   7
ATOM      7  C   UNL     1      -0.387   6.497  -5.731  0.00  0.00    +0.017 C 
BRANCH   7   8
ATOM      8  C   UNL     1      -0.643   5.066  -6.488  0.00  0.00    +0.073 C 
ATOM      9  C   UNL     1       0.093   5.583  -7.858  0.00  0.00    +0.019 C 
BRANCH   8  11
ATOM     10  C   UNL     1       1.611   4.629  -6.830  0.00  0.00    +0.107 C 
ATOM     11  N   UNL     1       0.692   4.459  -5.926  0.00  0.00    -0.218 NA
ENDBRANCH   8  11
ENDBRANCH   7   8
ENDBRANCH   1   7
TORSDOF 3
ENDMDL
MODEL 7
REMARK VINA RESULT:      -4.8      6.365      8.973
REMARK  Name = 
REMARK  3 active torsions:
REMARK  status: ('A' for Active; 'I' for Inactive)
REMARK    1  A    between atoms: N_2  and  C_3
REMARK    2  A    between atoms: C_3  and  C_5
REMARK    3  A    between atoms: C_5  and  C_6
REMARK                            x       y       z     vdW  Elec       q    Type
REMARK                         _______ _______ _______ _____ _____    ______ ____
ROOT
ATOM      1  C   UNL     1       0.230   6.018  -5.871  0.00  0.00    +0.001 C 
ATOM      2  C   UNL     1      -0.077   6.870  -4.691  0.00  0.00    +0.000 C 
ATOM      3  C   UNL     1      -1.378   7.606  -4.808  0.00  0.00    +0.000 C 
ATOM      4  C   UNL     1      -2.461   6.584  -4.987  0.00  0.00    +0.000 C 
ATOM      5  C   UNL     1      -2.271   5.851  -6.263  0.00  0.00    +0.000 C 
ATOM      6  C   UNL     1      -0.898   5.602  -6.716  0.00  0.00    +0.000 C 
ENDROOT
BRANCH   1   7
ATOM      7  C   UNL     1       1.309   6.609  -6.771  0.00  0.00    +0.017 C 
BRANCH   7   8
ATOM      8  C   UNL     1       2.650   5.932  -6.114  0.00  0.00    +0.073 C 
ATOM      9  C   UNL     1       3.329   5.689  -7.585  0.00  0.00    +0.019 C 
BRANCH   8  11
ATOM     10  C   UNL     1       4.160   7.245  -4.938  0.00  0.00    +0.107 C 
ATOM     11  N   UNL     1       3.351   7.328  -5.952  0.00  0.00    -0.218 NA
ENDBRANCH   8  11
ENDBRANCH   7   8
ENDBRANCH   1   7
TORSDOF 3
ENDMDL
MODEL 8
REMARK VINA RESULT:      -4.8      7.381      9.951
REMARK  Name = 
REMARK  3 active torsions:
REMARK  status: ('A' for Active; 'I' for Inactive)
REMARK    1  A    between atoms: N_2  and  C_3
REMARK    2  A    between atoms: C_3  and  C_5
REMARK    3  A    between atoms: C_5  and  C_6
REMARK                            x       y       z     vdW  Elec       q    Type
REMARK                         _______ _______ _______ _____ _____    ______ ____
ROOT
ATOM      1  C   UNL     1      -0.206   6.892  -4.659  0.00  0.00    +0.001 C 
ATOM      2  C   UNL     1      -1.295   7.891  -4.817  0.00  0.00    +0.000 C 
ATOM      3  C   UNL     1      -2.669   7.288  -4.779  0.00  0.00    +0.000 C 
ATOM      4  C   UNL     1      -2.816   6.585  -3.463  0.00  0.00    +0.000 C 
ATOM      5  C   UNL     1      -1.855   5.458  -3.370  0.00  0.00    +0.000 C 
ATOM      6  C   UNL     1      -0.546   5.616  -4.013  0.00  0.00    +0.000 C 
ENDROOT
BRANCH   1   7
ATOM      7  C   UNL     1       0.522   6.588  -5.964  0.00  0.00    +0.017 C 
BRANCH   7   8
ATOM      8  C   UNL     1       0.106   5.017  -6.180  0.00  0.00    +0.073 C 
ATOM      9  C   UNL     1      -0.759   5.362  -7.528  0.00  0.00    +0.019 C 
BRANCH   8  11
ATOM     10  C   UNL     1       2.122   3.878  -6.331  0.00  0.00    +0.107 C 
ATOM     11  N   UNL     1       1.404   4.722  -7.012  0.00  0.00    -0.218 NA
ENDBRANCH   8  11
ENDBRANCH   7   8
ENDBRANCH   1   7
TORSDOF 3
ENDMDL
MODEL 9
REMARK VINA RESULT:      -4.7      6.815      9.135
REMARK  Name = 
REMARK  3 active torsions:
REMARK  status: ('A' for Active; 'I' for Inactive)
REMARK    1  A    between atoms: N_2  and  C_3
REMARK    2  A    between atoms: C_3  and  C_5
REMARK    3  A    between atoms: C_5  and  C_6
REMARK                            x       y       z     vdW  Elec       q    Type
REMARK                         _______ _______ _______ _____ _____    ______ ____
ROOT
ATOM      1  C   UNL     1       0.245   6.832  -5.749  0.00  0.00    +0.001 C 
ATOM      2  C   UNL     1      -0.074   5.896  -6.859  0.00  0.00    +0.000 C 
ATOM      3  C   UNL     1      -1.295   5.062  -6.605  0.00  0.00    +0.000 C 
ATOM      4  C   UNL     1      -2.445   6.000  -6.390  0.00  0.00    +0.000 C 
ATOM      5  C   UNL     1      -2.225   6.813  -5.169  0.00  0.00    +0.000 C 
ATOM      6  C   UNL     1      -0.849   7.198  -4.838  0.00  0.00    +0.000 C 
ENDROOT
BRANCH   1   7
ATOM      7  C   UNL     1       1.435   6.382  -4.909  0.00  0.00    +0.017 C 
BRANCH   7   8
ATOM      8  C   UNL     1       2.455   5.869  -6.086  0.00  0.00    +0.073 C 
ATOM      9  C   UNL     1       3.656   6.855  -5.568  0.00  0.00    +0.019 C 
BRANCH   8  11
ATOM     10  C   UNL     1       3.595   5.183  -4.184  0.00  0.00    +0.107 C 
ATOM     11  N   UNL     1       2.971   4.675  -5.206  0.00  0.00    -0.218 NA
ENDBRANCH   8  11
ENDBRANCH   7   8
ENDBRANCH   1   7
TORSDOF 3
ENDMDL
