MODEL 1
REMARK VINA RESULT:      -7.2      0.000      0.000
REMARK  Name = 
REMARK  4 active torsions:
REMARK  status: ('A' for Active; 'I' for Inactive)
REMARK    1  A    between atoms: O_2  and  C_3
REMARK    2  A    between atoms: C_3  and  C_5
REMARK    3  A    between atoms: C_5  and  C_6
REMARK    4  A    between atoms: C_5  and  N_13
REMARK                            x       y       z     vdW  Elec       q    Type
REMARK                         _______ _______ _______ _____ _____    ______ ____
ROOT
ATOM      1  C   UNL     1       1.428   5.960  -6.898  0.00  0.00    +0.182 C 
ENDROOT
BRANCH   1   2
ATOM      2  N   UNL     1       0.708   5.488  -8.251  0.00  0.00    -0.257 NA
ATOM      3  C   UNL     1       0.742   6.794  -8.910  0.00  0.00    +0.100 C 
ATOM      4  C   UNL     1       0.658   6.697 -10.379  0.00  0.00    -0.004 A 
ATOM      5  C   UNL     1       1.244   5.608 -10.991  0.00  0.00    +0.006 A 
ATOM      6  S   UNL     1       1.086   6.017 -12.649  0.00  0.00    -0.091 S 
ATOM      7  C   UNL     1       0.096   7.410 -12.469  0.00  0.00    +0.035 A 
ATOM      8  C   UNL     1       1.750   4.434 -10.247  0.00  0.00    +0.050 C 
ATOM      9  C   UNL     1      -0.326   7.255 -11.177  0.00  0.00    +0.004 A 
ATOM     10  C   UNL     1       1.771   4.696  -8.796  0.00  0.00    +0.078 C 
ENDBRANCH   1   2
BRANCH   1  11
ATOM     11  C   UNL     1       0.023   5.910  -6.064  0.00  0.00    +0.014 A 
ATOM     12  C   UNL     1      -0.179   6.811  -5.088  0.00  0.00    +0.055 A 
ATOM     13 CL   UNL     1       1.139   6.710  -3.913  0.00  0.00    -0.083 Cl
ATOM     14  C   UNL     1      -1.479   7.123  -4.724  0.00  0.00    +0.011 A 
ATOM     15  C   UNL     1      -2.496   6.763  -5.598  0.00  0.00    +0.001 A 
ATOM     16  C   UNL     1      -2.310   5.703  -6.473  0.00  0.00    -0.000 A 
ATOM     17  C   UNL     1      -1.011   5.372  -6.827  0.00  0.00    -0.002 A 
ENDBRANCH   1  11
BRANCH   1  18
ATOM     18  C   UNL     1       1.915   4.439  -6.521  0.00  0.00    +0.336 C 
ATOM     19  O   UNL     1       0.956   4.004  -5.800  0.00  0.00    -0.248 OA
BRANCH  18  21
ATOM     20  C   UNL     1       4.019   5.387  -5.752  0.00  0.00    +0.256 C 
ATOM     21  O   UNL     1       3.123   4.420  -5.814  0.00  0.00    -0.443 OA
ENDBRANCH  18  21
ENDBRANCH   1  18
TORSDOF 4
ENDMDL
MODEL 2
REMARK VINA RESULT:      -7.1      4.104      6.906
REMARK  Name = 
REMARK  4 active torsions:
REMARK  status: ('A' for Active; 'I' for Inactive)
REMARK    1  A    between atoms: O_2  and  C_3
REMARK    2  A    between atoms: C_3  and  C_5
REMARK    3  A    between atoms: C_5  and  C_6
REMARK    4  A    between atoms: C_5  and  N_13
REMARK                            x       y       z     vdW  Elec       q    Type
REMARK                         _______ _______ _______ _____ _____    ______ ____
ROOT
ATOM      1  C   UNL     1       3.189   5.939  -8.497  0.00  0.00    +0.182 C 
ENDROOT
BRANCH   1   2
ATOM      2  N   UNL     1       3.962   5.608  -7.131  0.00  0.00    -0.257 NA
ATOM      3  C   UNL     1       3.858   6.952  -6.563  0.00  0.00    +0.100 C 
ATOM      4  C   UNL     1       3.975   6.964  -5.093  0.00  0.00    -0.004 A 
ATOM      5  C   UNL     1       3.471   5.886  -4.395  0.00  0.00    +0.006 A 
ATOM      6  S   UNL     1       3.634   6.418  -2.773  0.00  0.00    -0.091 S 
ATOM      7  C   UNL     1       4.530   7.854  -3.070  0.00  0.00    +0.035 A 
ATOM      8  C   UNL     1       3.026   4.634  -5.045  0.00  0.00    +0.050 C 
ATOM      9  C   UNL     1       4.937   7.636  -4.358  0.00  0.00    +0.004 A 
ATOM     10  C   UNL     1       2.962   4.792  -6.510  0.00  0.00    +0.078 C 
ENDBRANCH   1   2
BRANCH   1  11
ATOM     11  C   UNL     1       4.558   5.792  -9.377  0.00  0.00    +0.014 A 
ATOM     12  C   UNL     1       4.726   6.588 -10.446  0.00  0.00    +0.055 A 
ATOM     13 CL   UNL     1       3.361   6.384 -11.551  0.00  0.00    -0.083 Cl
ATOM     14  C   UNL     1       6.012   6.849 -10.891  0.00  0.00    +0.011 A 
ATOM     15  C   UNL     1       7.062   6.566 -10.027  0.00  0.00    +0.001 A 
ATOM     16  C   UNL     1       6.905   5.601  -9.043  0.00  0.00    -0.000 A 
ATOM     17  C   UNL     1       5.619   5.322  -8.606  0.00  0.00    -0.002 A 
ENDBRANCH   1  11
BRANCH   1  18
ATOM     18  C   UNL     1       2.682   4.391  -8.691  0.00  0.00    +0.336 C 
ATOM     19  O   UNL     1       3.690   3.828  -9.234  0.00  0.00    -0.248 OA
BRANCH  18  21
ATOM     20  C   UNL     1       0.543   5.141  -9.571  0.00  0.00    +0.256 C 
ATOM     21  O   UNL     1       1.551   4.293  -9.509  0.00  0.00    -0.443 OA
ENDBRANCH  18  21
ENDBRANCH   1  18
TORSDOF 4
ENDMDL
MODEL 3
REMARK VINA RESULT:      -6.9      3.500      5.202
REMARK  Name = 
REMARK  4 active torsions:
REMARK  status: ('A' for Active; 'I' for Inactive)
REMARK    1  A    between atoms: O_2  and  C_3
REMARK    2  A    between atoms: C_3  and  C_5
REMARK    3  A    between atoms: C_5  and  C_6
REMARK    4  A    between atoms: C_5  and  N_13
REMARK                            x       y       z     vdW  Elec       q    Type
REMARK                         _______ _______ _______ _____ _____    ______ ____
ROOT
ATOM      1  C   UNL     1       2.806   5.516  -8.205  0.00  0.00    +0.182 C 
ENDROOT
BRANCH   1   2
ATOM      2  N   UNL     1       4.104   6.387  -8.567  0.00  0.00    -0.257 NA
ATOM      3  C   UNL     1       4.981   5.250  -8.848  0.00  0.00    +0.100 C 
ATOM      4  C   UNL     1       6.114   5.604  -9.724  0.00  0.00    -0.004 A 
ATOM      5  C   UNL     1       5.908   6.564 -10.694  0.00  0.00    +0.006 A 
ATOM      6  S   UNL     1       7.380   6.492 -11.570  0.00  0.00    -0.091 S 
ATOM      7  C   UNL     1       8.239   5.430 -10.527  0.00  0.00    +0.035 A 
ATOM      8  C   UNL     1       4.694   7.408 -10.755  0.00  0.00    +0.050 C 
ATOM      9  C   UNL     1       7.456   5.487  -9.407  0.00  0.00    +0.004 A 
ATOM     10  C   UNL     1       3.662   6.920  -9.822  0.00  0.00    +0.078 C 
ENDBRANCH   1   2
BRANCH   1  11
ATOM     11  C   UNL     1       3.033   5.738  -6.601  0.00  0.00    +0.014 A 
ATOM     12  C   UNL     1       2.936   4.676  -5.784  0.00  0.00    +0.055 A 
ATOM     13 CL   UNL     1       1.355   3.914  -5.995  0.00  0.00    -0.083 Cl
ATOM     14  C   UNL     1       3.589   4.711  -4.562  0.00  0.00    +0.011 A 
ATOM     15  C   UNL     1       4.576   5.672  -4.386  0.00  0.00    +0.001 A 
ATOM     16  C   UNL     1       4.538   6.843  -5.128  0.00  0.00    -0.000 A 
ATOM     17  C   UNL     1       3.870   6.821  -6.343  0.00  0.00    -0.002 A 
ENDBRANCH   1  11
BRANCH   1  18
ATOM     18  C   UNL     1       1.785   6.783  -8.419  0.00  0.00    +0.336 C 
ATOM     19  O   UNL     1       1.291   6.950  -7.255  0.00  0.00    -0.248 OA
BRANCH  18  21
ATOM     20  C   UNL     1       0.243   5.339  -9.623  0.00  0.00    +0.256 C 
ATOM     21  O   UNL     1       0.782   6.513  -9.357  0.00  0.00    -0.443 OA
ENDBRANCH  18  21
ENDBRANCH   1  18
TORSDOF 4
ENDMDL
MODEL 4
REMARK VINA RESULT:      -6.8      3.810      6.074
REMARK  Name = 
REMARK  4 active torsions:
REMARK  status: ('A' for Active; 'I' for Inactive)
REMARK    1  A    between atoms: O_2  and  C_3
REMARK    2  A    between atoms: C_3  and  C_5
REMARK    3  A    between atoms: C_5  and  C_6
REMARK    4  A    between atoms: C_5  and  N_13
REMARK                            x       y       z     vdW  Elec       q    Type
REMARK                         _______ _______ _______ _____ _____    ______ ____
ROOT
ATOM      1  C   UNL     1       1.592   6.435 -10.373  0.00  0.00    +0.182 C 
ENDROOT
BRANCH   1   2
ATOM      2  N   UNL     1       2.964   5.654 -10.658  0.00  0.00    -0.257 NA
ATOM      3  C   UNL     1       3.802   6.848 -10.774  0.00  0.00    +0.100 C 
ATOM      4  C   UNL     1       5.228   6.575 -10.513  0.00  0.00    -0.004 A 
ATOM      5  C   UNL     1       5.542   5.608  -9.580  0.00  0.00    +0.006 A 
ATOM      6  S   UNL     1       7.243   5.782  -9.461  0.00  0.00    -0.091 S 
ATOM      7  C   UNL     1       7.471   6.894 -10.752  0.00  0.00    +0.035 A 
ATOM      8  C   UNL     1       4.542   4.685  -8.999  0.00  0.00    +0.050 C 
ATOM      9  C   UNL     1       6.272   6.779 -11.399  0.00  0.00    +0.004 A 
ATOM     10  C   UNL     1       3.172   5.099  -9.353  0.00  0.00    +0.078 C 
ENDBRANCH   1   2
BRANCH   1  11
ATOM     11  C   UNL     1       1.115   6.283 -11.929  0.00  0.00    +0.014 A 
ATOM     12  C   UNL     1       0.418   7.285 -12.490  0.00  0.00    +0.055 A 
ATOM     13 CL   UNL     1      -1.025   7.613 -11.523  0.00  0.00    -0.083 Cl
ATOM     14  C   UNL     1       0.438   7.424 -13.869  0.00  0.00    +0.011 A 
ATOM     15  C   UNL     1       1.430   6.751 -14.570  0.00  0.00    +0.001 A 
ATOM     16  C   UNL     1       2.001   5.608 -14.030  0.00  0.00    -0.000 A 
ATOM     17  C   UNL     1       1.968   5.454 -12.652  0.00  0.00    -0.002 A 
ENDBRANCH   1  11
BRANCH   1  18
ATOM     18  C   UNL     1       0.836   5.088  -9.820  0.00  0.00    +0.336 C 
ATOM     19  O   UNL     1       0.331   4.589 -10.881  0.00  0.00    -0.248 OA
BRANCH  18  21
ATOM     20  C   UNL     1      -0.009   5.461  -7.571  0.00  0.00    +0.256 C 
ATOM     21  O   UNL     1      -0.158   5.376  -8.879  0.00  0.00    -0.443 OA
ENDBRANCH  18  21
ENDBRANCH   1  18
TORSDOF 4
ENDMDL
MODEL 5
REMARK VINA RESULT:      -6.8      3.909      5.982
REMARK  Name = 
REMARK  4 active torsions:
REMARK  status: ('A' for Active; 'I' for Inactive)
REMARK    1  A    between atoms: O_2  and  C_3
REMARK    2  A    between atoms: C_3  and  C_5
REMARK    3  A    between atoms: C_5  and  C_6
REMARK    4  A    between atoms: C_5  and  N_13
REMARK                            x       y       z     vdW  Elec       q    Type
REMARK                         _______ _______ _______ _____ _____    ______ ____
ROOT
ATOM      1  C   UNL     1       2.302   6.015  -6.614  0.00  0.00    +0.182 C 
ENDROOT
BRANCH   1   2
ATOM      2  N   UNL     1       2.428   6.751  -5.194  0.00  0.00    -0.257 NA
ATOM      3  C   UNL     1       2.386   5.533  -4.383  0.00  0.00    +0.100 C 
ATOM      4  C   UNL     1       2.998   5.709  -3.053  0.00  0.00    -0.004 A 
ATOM      5  C   UNL     1       4.074   6.566  -2.944  0.00  0.00    +0.006 A 
ATOM      6  S   UNL     1       4.567   6.297  -1.324  0.00  0.00    -0.091 S 
ATOM      7  C   UNL     1       3.256   5.304  -0.826  0.00  0.00    +0.035 A 
ATOM      8  C   UNL     1       4.500   7.477  -4.029  0.00  0.00    +0.050 C 
ATOM      9  C   UNL     1       2.363   5.539  -1.835  0.00  0.00    +0.004 A 
ATOM     10  C   UNL     1       3.796   7.167  -5.286  0.00  0.00    +0.078 C 
ENDBRANCH   1   2
BRANCH   1  11
ATOM     11  C   UNL     1       0.697   6.311  -6.691  0.00  0.00    +0.014 A 
ATOM     12  C   UNL     1      -0.089   5.436  -7.342  0.00  0.00    +0.055 A 
ATOM     13 CL   UNL     1       0.495   5.243  -9.000  0.00  0.00    -0.083 Cl
ATOM     14  C   UNL     1      -1.433   5.371  -7.014  0.00  0.00    +0.011 A 
ATOM     15  C   UNL     1      -1.832   5.950  -5.816  0.00  0.00    +0.001 A 
ATOM     16  C   UNL     1      -1.085   6.980  -5.265  0.00  0.00    -0.000 A 
ATOM     17  C   UNL     1       0.258   7.063  -5.604  0.00  0.00    -0.002 A 
ENDBRANCH   1  11
BRANCH   1  18
ATOM     18  C   UNL     1       2.771   7.349  -7.447  0.00  0.00    +0.336 C 
ATOM     19  O   UNL     1       1.683   8.002  -7.573  0.00  0.00    -0.248 OA
BRANCH  18  21
ATOM     20  C   UNL     1       4.089   6.008  -8.990  0.00  0.00    +0.256 C 
ATOM     21  O   UNL     1       3.318   7.038  -8.697  0.00  0.00    -0.443 OA
ENDBRANCH  18  21
ENDBRANCH   1  18
TORSDOF 4
ENDMDL
MODEL 6
REMARK VINA RESULT:      -6.6      2.993      3.961
REMARK  Name = 
REMARK  4 active torsions:
REMARK  status: ('A' for Active; 'I' for Inactive)
REMARK    1  A    between atoms: O_2  and  C_3
REMARK    2  A    between atoms: C_3  and  C_5
REMARK    3  A    between atoms: C_5  and  C_6
REMARK    4  A    between atoms: C_5  and  N_13
REMARK                            x       y       z     vdW  Elec       q    Type
REMARK                         _______ _______ _______ _____ _____    ______ ____
ROOT
ATOM      1  C   UNL     1       0.574   6.467  -3.770  0.00  0.00    +0.182 C 
ENDROOT
BRANCH   1   2
ATOM      2  N   UNL     1       1.217   5.558  -4.925  0.00  0.00    -0.257 NA
ATOM      3  C   UNL     1       1.513   6.659  -5.842  0.00  0.00    +0.100 C 
ATOM      4  C   UNL     1       2.584   6.332  -6.803  0.00  0.00    -0.004 A 
ATOM      5  C   UNL     1       3.603   5.503  -6.380  0.00  0.00    +0.006 A 
ATOM      6  S   UNL     1       4.682   5.576  -7.710  0.00  0.00    -0.091 S 
ATOM      7  C   UNL     1       3.681   6.454  -8.796  0.00  0.00    +0.035 A 
ATOM      8  C   UNL     1       3.563   4.754  -5.104  0.00  0.00    +0.050 C 
ATOM      9  C   UNL     1       2.466   6.322  -8.182  0.00  0.00    +0.004 A 
ATOM     10  C   UNL     1       2.437   5.201  -4.263  0.00  0.00    +0.078 C 
ENDBRANCH   1   2
BRANCH   1  11
ATOM     11  C   UNL     1      -0.935   6.255  -4.363  0.00  0.00    +0.014 A 
ATOM     12  C   UNL     1      -1.783   7.297  -4.353  0.00  0.00    +0.055 A 
ATOM     13 CL   UNL     1      -1.944   7.908  -2.702  0.00  0.00    -0.083 Cl
ATOM     14  C   UNL     1      -2.831   7.315  -5.259  0.00  0.00    +0.011 A 
ATOM     15  C   UNL     1      -2.760   6.450  -6.343  0.00  0.00    +0.001 A 
ATOM     16  C   UNL     1      -2.011   5.286  -6.249  0.00  0.00    -0.000 A 
ATOM     17  C   UNL     1      -0.973   5.254  -5.331  0.00  0.00    -0.002 A 
ENDBRANCH   1  11
BRANCH   1  18
ATOM     18  C   UNL     1       0.522   5.226  -2.698  0.00  0.00    +0.336 C 
ATOM     19  O   UNL     1      -0.729   5.008  -2.575  0.00  0.00    -0.248 OA
BRANCH  18  21
ATOM     20  C   UNL     1       0.607   6.375  -0.557  0.00  0.00    +0.256 C 
ATOM     21  O   UNL     1       1.097   5.555  -1.466  0.00  0.00    -0.443 OA
ENDBRANCH  18  21
ENDBRANCH   1  18
TORSDOF 4
ENDMDL
MODEL 7
REMARK VINA RESULT:      -6.5      3.947      6.260
REMARK  Name = 
REMARK  4 active torsions:
REMARK  status: ('A' for Active; 'I' for Inactive)
REMARK    1  A    between atoms: O_2  and  C_3
REMARK    2  A    between atoms: C_3  and  C_5
REMARK    3  A    between atoms: C_5  and  C_6
REMARK    4  A    between atoms: C_5  and  N_13
REMARK                            x       y       z     vdW  Elec       q    Type
REMARK                         _______ _______ _______ _____ _____    ______ ____
ROOT
ATOM      1  C   UNL     1       1.590   5.593  -1.896  0.00  0.00    +0.182 C 
ENDROOT
BRANCH   1   2
ATOM      2  N   UNL     1       0.799   6.403  -3.032  0.00  0.00    -0.257 NA
ATOM      3  C   UNL     1       0.857   5.349  -4.044  0.00  0.00    +0.100 C 
ATOM      4  C   UNL     1      -0.203   5.473  -5.062  0.00  0.00    -0.004 A 
ATOM      5  C   UNL     1      -1.427   5.972  -4.665  0.00  0.00    +0.006 A 
ATOM      6  S   UNL     1      -2.369   5.742  -6.078  0.00  0.00    -0.091 S 
ATOM      7  C   UNL     1      -1.110   5.250  -7.140  0.00  0.00    +0.035 A 
ATOM      8  C   UNL     1      -1.660   6.591  -3.341  0.00  0.00    +0.050 C 
ATOM      9  C   UNL     1      -0.011   5.634  -6.424  0.00  0.00    +0.004 A 
ATOM     10  C   UNL     1      -0.508   6.376  -2.446  0.00  0.00    +0.078 C 
ENDBRANCH   1   2
BRANCH   1  11
ATOM     11  C   UNL     1       3.040   5.995  -2.534  0.00  0.00    +0.014 A 
ATOM     12  C   UNL     1       3.963   5.033  -2.694  0.00  0.00    +0.055 A 
ATOM     13 CL   UNL     1       4.269   4.248  -1.140  0.00  0.00    -0.083 Cl
ATOM     14  C   UNL     1       4.953   5.207  -3.648  0.00  0.00    +0.011 A 
ATOM     15  C   UNL     1       4.752   6.184  -4.614  0.00  0.00    +0.001 A 
ATOM     16  C   UNL     1       3.925   7.263  -4.341  0.00  0.00    -0.000 A 
ATOM     17  C   UNL     1       2.944   7.102  -3.374  0.00  0.00    -0.002 A 
ENDBRANCH   1  11
BRANCH   1  18
ATOM     18  C   UNL     1       1.512   6.836  -0.827  0.00  0.00    +0.336 C 
ATOM     19  O   UNL     1       2.741   7.100  -0.609  0.00  0.00    -0.248 OA
BRANCH  18  21
ATOM     20  C   UNL     1      -0.009   7.224   1.029  0.00  0.00    +0.256 C 
ATOM     21  O   UNL     1       0.855   6.487   0.357  0.00  0.00    -0.443 OA
ENDBRANCH  18  21
ENDBRANCH   1  18
TORSDOF 4
ENDMDL
MODEL 8
REMARK VINA RESULT:      -6.4      3.559      5.320
REMARK  Name = 
REMARK  4 active torsions:
REMARK  status: ('A' for Active; 'I' for Inactive)
REMARK    1  A    between atoms: O_2  and  C_3
REMARK    2  A    between atoms: C_3  and  C_5
REMARK    3  A    between atoms: C_5  and  C_6
REMARK    4  A    between atoms: C_5  and  N_13
REMARK                            x       y       z     vdW  Elec       q    Type
REMARK                         _______ _______ _______ _____ _____    ______ ____
ROOT
ATOM      1  C   UNL     1       3.323   6.571  -5.066  0.00  0.00    +0.182 C 
ENDROOT
BRANCH   1   2
ATOM      2  N   UNL     1       1.954   5.782  -4.788  0.00  0.00    -0.257 NA
ATOM      3  C   UNL     1       1.099   6.968  -4.733  0.00  0.00    +0.100 C 
ATOM      4  C   UNL     1      -0.317   6.668  -5.019  0.00  0.00    -0.004 A 
ATOM      5  C   UNL     1      -0.596   5.666  -5.926  0.00  0.00    +0.006 A 
ATOM      6  S   UNL     1      -2.296   5.814  -6.091  0.00  0.00    -0.091 S 
ATOM      7  C   UNL     1      -2.569   6.964  -4.844  0.00  0.00    +0.035 A 
ATOM      8  C   UNL     1       0.430   4.738  -6.452  0.00  0.00    +0.050 C 
ATOM      9  C   UNL     1      -1.384   6.887  -4.165  0.00  0.00    +0.004 A 
ATOM     10  C   UNL     1       1.785   5.182  -6.079  0.00  0.00    +0.078 C 
ENDBRANCH   1   2
BRANCH   1  11
ATOM     11  C   UNL     1       3.887   6.238  -3.568  0.00  0.00    +0.014 A 
ATOM     12  C   UNL     1       4.644   7.157  -2.946  0.00  0.00    +0.055 A 
ATOM     13 CL   UNL     1       6.036   7.557  -3.960  0.00  0.00    -0.083 Cl
ATOM     14  C   UNL     1       4.710   7.143  -1.562  0.00  0.00    +0.011 A 
ATOM     15  C   UNL     1       3.742   6.419  -0.878  0.00  0.00    +0.001 A 
ATOM     16  C   UNL     1       3.107   5.356  -1.502  0.00  0.00    -0.000 A 
ATOM     17  C   UNL     1       3.054   5.353  -2.888  0.00  0.00    -0.002 A 
ENDBRANCH   1  11
BRANCH   1  18
ATOM     18  C   UNL     1       4.018   5.285  -5.811  0.00  0.00    +0.336 C 
ATOM     19  O   UNL     1       4.726   4.768  -4.883  0.00  0.00    -0.248 OA
BRANCH  18  21
ATOM     20  C   UNL     1       4.845   5.087  -8.089  0.00  0.00    +0.256 C 
ATOM     21  O   UNL     1       4.813   5.658  -6.900  0.00  0.00    -0.443 OA
ENDBRANCH  18  21
ENDBRANCH   1  18
TORSDOF 4
ENDMDL
MODEL 9
REMARK VINA RESULT:      -6.4      3.782      5.004
REMARK  Name = 
REMARK  4 active torsions:
REMARK  status: ('A' for Active; 'I' for Inactive)
REMARK    1  A    between atoms: O_2  and  C_3
REMARK    2  A    between atoms: C_3  and  C_5
REMARK    3  A    between atoms: C_5  and  C_6
REMARK    4  A    between atoms: C_5  and  N_13
REMARK                            x       y       z     vdW  Elec       q    Type
REMARK                         _______ _______ _______ _____ _____    ______ ____
ROOT
ATOM      1  C   UNL     1       2.212   6.372  -1.935  0.00  0.00    +0.182 C 
ENDROOT
BRANCH   1   2
ATOM      2  N   UNL     1       2.063   5.678  -3.373  0.00  0.00    -0.257 NA
ATOM      3  C   UNL     1       1.998   6.922  -4.141  0.00  0.00    +0.100 C 
ATOM      4  C   UNL     1       2.387   6.745  -5.553  0.00  0.00    -0.004 A 
ATOM      5  C   UNL     1       3.362   5.813  -5.843  0.00  0.00    +0.006 A 
ATOM      6  S   UNL     1       3.626   6.098  -7.513  0.00  0.00    -0.091 S 
ATOM      7  C   UNL     1       2.339   7.204  -7.784  0.00  0.00    +0.035 A 
ATOM      8  C   UNL     1       3.871   4.835  -4.856  0.00  0.00    +0.050 C 
ATOM      9  C   UNL     1       1.592   7.004  -6.656  0.00  0.00    +0.004 A 
ATOM     10  C   UNL     1       3.391   5.155  -3.499  0.00  0.00    +0.078 C 
ENDBRANCH   1   2
BRANCH   1  11
ATOM     11  C   UNL     1       0.652   6.063  -1.559  0.00  0.00    +0.014 A 
ATOM     12  C   UNL     1      -0.021   6.958  -0.815  0.00  0.00    +0.055 A 
ATOM     13 CL   UNL     1       0.845   7.232   0.701  0.00  0.00    -0.083 Cl
ATOM     14  C   UNL     1      -1.404   6.993  -0.900  0.00  0.00    +0.011 A 
ATOM     15  C   UNL     1      -1.999   6.357  -1.981  0.00  0.00    +0.001 A 
ATOM     16  C   UNL     1      -1.343   5.311  -2.613  0.00  0.00    -0.000 A 
ATOM     17  C   UNL     1       0.040   5.258  -2.516  0.00  0.00    -0.002 A 
ENDBRANCH   1  11
BRANCH   1  18
ATOM     18  C   UNL     1       2.835   5.020  -1.246  0.00  0.00    +0.336 C 
ATOM     19  O   UNL     1       1.820   4.498  -0.675  0.00  0.00    -0.248 OA
BRANCH  18  21
ATOM     20  C   UNL     1       4.509   6.435  -0.195  0.00  0.00    +0.256 C 
ATOM     21  O   UNL     1       3.842   5.303  -0.318  0.00  0.00    -0.443 OA
ENDBRANCH  18  21
ENDBRANCH   1  18
TORSDOF 4
ENDMDL
