MODEL 1
REMARK VINA RESULT:      -3.6      0.000      0.000
REMARK  Name = 
REMARK  2 active torsions:
REMARK  status: ('A' for Active; 'I' for Inactive)
REMARK    1  A    between atoms: C_2  and  C_3
REMARK    2  A    between atoms: C_3  and  S_4
REMARK                            x       y       z     vdW  Elec       q    Type
REMARK                         _______ _______ _______ _____ _____    ______ ____
ROOT
ATOM      1  S   UNL     1       8.064   5.709 -12.023  0.00  0.00    -0.106 S 
ATOM      2  O   UNL     1       7.920   5.380 -10.369  0.00  0.00    -0.291 OA
ATOM      3  O   UNL     1       7.671   4.519 -12.829  0.00  0.00    -0.371 OA
ATOM      4  O   UNL     1       9.511   5.976 -12.256  0.00  0.00    -0.371 OA
ENDROOT
BRANCH   1   5
ATOM      5  C   UNL     1       7.010   7.065 -12.388  0.00  0.00    +0.146 C 
BRANCH   5   7
ATOM      6  N   UNL     1       5.222   7.472 -10.878  0.00  0.00    -0.130 NA
ATOM      7  C   UNL     1       6.592   7.867 -11.200  0.00  0.00    +0.132 C 
ENDBRANCH   5   7
ENDBRANCH   1   5
TORSDOF 2
ENDMDL
MODEL 2
REMARK VINA RESULT:      -3.3     12.186     12.571
REMARK  Name = 
REMARK  2 active torsions:
REMARK  status: ('A' for Active; 'I' for Inactive)
REMARK    1  A    between atoms: C_2  and  C_3
REMARK    2  A    between atoms: C_3  and  S_4
REMARK                            x       y       z     vdW  Elec       q    Type
REMARK                         _______ _______ _______ _____ _____    ______ ____
ROOT
ATOM      1  S   UNL     1      -1.660   5.583  -2.777  0.00  0.00    -0.106 S 
ATOM      2  O   UNL     1      -0.431   4.845  -1.877  0.00  0.00    -0.291 OA
ATOM      3  O   UNL     1      -1.994   6.920  -2.210  0.00  0.00    -0.371 OA
ATOM      4  O   UNL     1      -2.852   4.701  -2.631  0.00  0.00    -0.371 OA
ENDROOT
BRANCH   1   5
ATOM      5  C   UNL     1      -1.083   5.750  -4.427  0.00  0.00    +0.146 C 
BRANCH   5   7
ATOM      6  N   UNL     1      -2.475   5.480  -6.333  0.00  0.00    -0.130 NA
ATOM      7  C   UNL     1      -2.022   6.460  -5.346  0.00  0.00    +0.132 C 
ENDBRANCH   5   7
ENDBRANCH   1   5
TORSDOF 2
ENDMDL
MODEL 3
REMARK VINA RESULT:      -3.3      2.234      2.836
REMARK  Name = 
REMARK  2 active torsions:
REMARK  status: ('A' for Active; 'I' for Inactive)
REMARK    1  A    between atoms: C_2  and  C_3
REMARK    2  A    between atoms: C_3  and  S_4
REMARK                            x       y       z     vdW  Elec       q    Type
REMARK                         _______ _______ _______ _____ _____    ______ ____
ROOT
ATOM      1  S   UNL     1       6.342   5.428 -12.740  0.00  0.00    -0.106 S 
ATOM      2  O   UNL     1       6.468   6.943 -13.483  0.00  0.00    -0.291 OA
ATOM      3  O   UNL     1       7.617   4.669 -12.879  0.00  0.00    -0.371 OA
ATOM      4  O   UNL     1       5.278   4.700 -13.487  0.00  0.00    -0.371 OA
ENDROOT
BRANCH   1   5
ATOM      5  C   UNL     1       5.978   5.698 -11.043  0.00  0.00    +0.146 C 
BRANCH   5   7
ATOM      6  N   UNL     1       7.731   7.108 -10.281  0.00  0.00    -0.130 NA
ATOM      7  C   UNL     1       7.175   5.762 -10.152  0.00  0.00    +0.132 C 
ENDBRANCH   5   7
ENDBRANCH   1   5
TORSDOF 2
ENDMDL
MODEL 4
REMARK VINA RESULT:      -3.3      2.170      2.655
REMARK  Name = 
REMARK  2 active torsions:
REMARK  status: ('A' for Active; 'I' for Inactive)
REMARK    1  A    between atoms: C_2  and  C_3
REMARK    2  A    between atoms: C_3  and  S_4
REMARK                            x       y       z     vdW  Elec       q    Type
REMARK                         _______ _______ _______ _____ _____    ______ ____
ROOT
ATOM      1  S   UNL     1       6.484   5.506 -12.680  0.00  0.00    -0.106 S 
ATOM      2  O   UNL     1       5.243   4.668 -13.469  0.00  0.00    -0.291 OA
ATOM      3  O   UNL     1       6.783   6.784 -13.385  0.00  0.00    -0.371 OA
ATOM      4  O   UNL     1       7.684   4.628 -12.770  0.00  0.00    -0.371 OA
ENDROOT
BRANCH   1   5
ATOM      5  C   UNL     1       5.946   5.829 -11.040  0.00  0.00    +0.146 C 
BRANCH   5   7
ATOM      6  N   UNL     1       7.766   7.073 -10.154  0.00  0.00    -0.130 NA
ATOM      7  C   UNL     1       7.032   5.816 -10.014  0.00  0.00    +0.132 C 
ENDBRANCH   5   7
ENDBRANCH   1   5
TORSDOF 2
ENDMDL
MODEL 5
REMARK VINA RESULT:      -3.3      3.078      3.405
REMARK  Name = 
REMARK  2 active torsions:
REMARK  status: ('A' for Active; 'I' for Inactive)
REMARK    1  A    between atoms: C_2  and  C_3
REMARK    2  A    between atoms: C_3  and  S_4
REMARK                            x       y       z     vdW  Elec       q    Type
REMARK                         _______ _______ _______ _____ _____    ______ ____
ROOT
ATOM      1  S   UNL     1       6.457   7.414 -11.882  0.00  0.00    -0.106 S 
ATOM      2  O   UNL     1       5.026   6.650 -11.401  0.00  0.00    -0.291 OA
ATOM      3  O   UNL     1       6.491   8.820 -11.390  0.00  0.00    -0.371 OA
ATOM      4  O   UNL     1       6.420   7.439 -13.371  0.00  0.00    -0.371 OA
ENDROOT
BRANCH   1   5
ATOM      5  C   UNL     1       7.798   6.502 -11.208  0.00  0.00    +0.146 C 
BRANCH   5   7
ATOM      6  N   UNL     1       7.770   4.615 -12.650  0.00  0.00    -0.130 NA
ATOM      7  C   UNL     1       8.598   5.737 -12.210  0.00  0.00    +0.132 C 
ENDBRANCH   5   7
ENDBRANCH   1   5
TORSDOF 2
ENDMDL
MODEL 6
REMARK VINA RESULT:      -3.3     13.104     13.616
REMARK  Name = 
REMARK  2 active torsions:
REMARK  status: ('A' for Active; 'I' for Inactive)
REMARK    1  A    between atoms: C_2  and  C_3
REMARK    2  A    between atoms: C_3  and  S_4
REMARK                            x       y       z     vdW  Elec       q    Type
REMARK                         _______ _______ _______ _____ _____    ______ ____
ROOT
ATOM      1  S   UNL     1      -1.675   5.689  -2.492  0.00  0.00    -0.106 S 
ATOM      2  O   UNL     1      -2.927   4.592  -2.799  0.00  0.00    -0.291 OA
ATOM      3  O   UNL     1      -1.115   6.215  -3.770  0.00  0.00    -0.371 OA
ATOM      4  O   UNL     1      -0.613   4.907  -1.801  0.00  0.00    -0.371 OA
ENDROOT
BRANCH   1   5
ATOM      5  C   UNL     1      -2.343   7.003  -1.537  0.00  0.00    +0.146 C 
BRANCH   5   7
ATOM      6  N   UNL     1      -1.423   8.544   0.018  0.00  0.00    -0.130 NA
ATOM      7  C   UNL     1      -1.763   7.135  -0.167  0.00  0.00    +0.132 C 
ENDBRANCH   5   7
ENDBRANCH   1   5
TORSDOF 2
ENDMDL
MODEL 7
REMARK VINA RESULT:      -3.2     12.227     12.770
REMARK  Name = 
REMARK  2 active torsions:
REMARK  status: ('A' for Active; 'I' for Inactive)
REMARK    1  A    between atoms: C_2  and  C_3
REMARK    2  A    between atoms: C_3  and  S_4
REMARK                            x       y       z     vdW  Elec       q    Type
REMARK                         _______ _______ _______ _____ _____    ______ ____
ROOT
ATOM      1  S   UNL     1      -2.207   5.675  -3.618  0.00  0.00    -0.106 S 
ATOM      2  O   UNL     1      -2.660   5.450  -5.233  0.00  0.00    -0.291 OA
ATOM      3  O   UNL     1      -2.827   4.634  -2.750  0.00  0.00    -0.371 OA
ATOM      4  O   UNL     1      -2.759   7.002  -3.226  0.00  0.00    -0.371 OA
ENDROOT
BRANCH   1   5
ATOM      5  C   UNL     1      -0.456   5.568  -3.537  0.00  0.00    +0.146 C 
BRANCH   5   7
ATOM      6  N   UNL     1       0.379   4.634  -1.519  0.00  0.00    -0.130 NA
ATOM      7  C   UNL     1       0.127   5.901  -2.204  0.00  0.00    +0.132 C 
ENDBRANCH   5   7
ENDBRANCH   1   5
TORSDOF 2
ENDMDL
MODEL 8
REMARK VINA RESULT:      -3.2     12.007     12.332
REMARK  Name = 
REMARK  2 active torsions:
REMARK  status: ('A' for Active; 'I' for Inactive)
REMARK    1  A    between atoms: C_2  and  C_3
REMARK    2  A    between atoms: C_3  and  S_4
REMARK                            x       y       z     vdW  Elec       q    Type
REMARK                         _______ _______ _______ _____ _____    ______ ____
ROOT
ATOM      1  S   UNL     1      -1.627   5.548  -2.667  0.00  0.00    -0.106 S 
ATOM      2  O   UNL     1      -2.014   7.120  -2.173  0.00  0.00    -0.291 OA
ATOM      3  O   UNL     1      -2.850   4.696  -2.708  0.00  0.00    -0.371 OA
ATOM      4  O   UNL     1      -0.715   5.009  -1.620  0.00  0.00    -0.371 OA
ENDROOT
BRANCH   1   5
ATOM      5  C   UNL     1      -0.909   5.656  -4.266  0.00  0.00    +0.146 C 
BRANCH   5   7
ATOM      6  N   UNL     1       1.260   6.618  -4.162  0.00  0.00    -0.130 NA
ATOM      7  C   UNL     1       0.551   5.349  -4.315  0.00  0.00    +0.132 C 
ENDBRANCH   5   7
ENDBRANCH   1   5
TORSDOF 2
ENDMDL
MODEL 9
REMARK VINA RESULT:      -3.2      6.881      7.469
REMARK  Name = 
REMARK  2 active torsions:
REMARK  status: ('A' for Active; 'I' for Inactive)
REMARK    1  A    between atoms: C_2  and  C_3
REMARK    2  A    between atoms: C_3  and  S_4
REMARK                            x       y       z     vdW  Elec       q    Type
REMARK                         _______ _______ _______ _____ _____    ______ ____
ROOT
ATOM      1  S   UNL     1       2.568   7.046  -7.311  0.00  0.00    -0.106 S 
ATOM      2  O   UNL     1       3.401   7.422  -5.886  0.00  0.00    -0.291 OA
ATOM      3  O   UNL     1       3.485   6.414  -8.302  0.00  0.00    -0.371 OA
ATOM      4  O   UNL     1       2.106   8.349  -7.863  0.00  0.00    -0.371 OA
ENDROOT
BRANCH   1   5
ATOM      5  C   UNL     1       1.272   5.938  -6.891  0.00  0.00    +0.146 C 
BRANCH   5   7
ATOM      6  N   UNL     1       2.071   3.747  -6.439  0.00  0.00    -0.130 NA
ATOM      7  C   UNL     1       1.605   4.976  -5.799  0.00  0.00    +0.132 C 
ENDBRANCH   5   7
ENDBRANCH   1   5
TORSDOF 2
ENDMDL
