MODEL 1
REMARK VINA RESULT:      -8.5      0.000      0.000
REMARK  Name = 
REMARK  9 active torsions:
REMARK  status: ('A' for Active; 'I' for Inactive)
REMARK    1  A    between atoms: O_2  and  C_3
REMARK    2  A    between atoms: C_8  and  O_9
REMARK    3  A    between atoms: O_9  and  C_10
REMARK    4  A    between atoms: C_10  and  C_11
REMARK    5  A    between atoms: C_11  and  C_13
REMARK    6  A    between atoms: C_13  and  N_14
REMARK    7  A    between atoms: N_17  and  C_18
REMARK    8  A    between atoms: C_18  and  C_19
REMARK    9  A    between atoms: N_21  and  C_22
REMARK                            x       y       z     vdW  Elec       q    Type
REMARK                         _______ _______ _______ _____ _____    ______ ____
ROOT
ATOM      1  N   UNL     1       3.533   6.468  -3.271  0.00  0.00    -0.268 NA
ATOM      2  C   UNL     1       4.005   5.211  -3.677  0.00  0.00    +0.090 C 
ATOM      3  C   UNL     1       3.846   5.038  -5.182  0.00  0.00    +0.090 C 
ATOM      4  N   UNL     1       4.195   6.271  -5.886  0.00  0.00    -0.263 NA
ATOM      5  C   UNL     1       4.985   7.148  -5.026  0.00  0.00    +0.090 C 
ATOM      6  C   UNL     1       4.030   7.617  -3.934  0.00  0.00    +0.090 C 
ENDROOT
BRANCH   4   7
ATOM      7  C   UNL     1       2.931   6.979  -6.090  0.00  0.00    +0.161 C 
BRANCH   7   8
ATOM      8  C   UNL     1       2.842   7.315  -7.545  0.00  0.00    +0.262 C 
ATOM      9  N   UNL     1       2.591   6.209  -8.411  0.00  0.00    -0.179 NA
ATOM     10  O   UNL     1       2.252   8.387  -7.827  0.00  0.00    -0.271 OA
BRANCH   9  11
ATOM     11  C   UNL     1       2.057   6.352  -9.722  0.00  0.00    +0.065 A 
ATOM     12  C   UNL     1       2.920   6.234 -10.788  0.00  0.00    -0.007 A 
ATOM     13  C   UNL     1       4.367   5.966 -10.577  0.00  0.00    +0.032 C 
ATOM     14  C   UNL     1       2.387   6.264 -12.068  0.00  0.00    -0.003 A 
ATOM     15  C   UNL     1       1.042   6.570 -12.222  0.00  0.00    -0.001 A 
ATOM     16  C   UNL     1       0.193   6.580 -11.132  0.00  0.00    -0.003 A 
ATOM     17  C   UNL     1       0.683   6.234  -9.891  0.00  0.00    -0.007 A 
ATOM     18  C   UNL     1      -0.184   5.538  -8.889  0.00  0.00    +0.032 C 
ENDBRANCH   9  11
ENDBRANCH   7   8
ENDBRANCH   4   7
BRANCH   1  19
ATOM     19  C   UNL     1       2.736   6.606  -2.151  0.00  0.00    +0.109 C 
BRANCH  19  20
ATOM     20  C   UNL     1       2.549   5.135  -1.405  0.00  0.00    +0.211 C 
ATOM     21  O   UNL     1       3.287   5.620  -0.154  0.00  0.00    -0.218 OA
BRANCH  20  22
ATOM     22  C   UNL     1       1.067   5.520  -0.753  0.00  0.00    +0.240 C 
BRANCH  22  23
ATOM     23  O   UNL     1       0.137   4.818  -1.533  0.00  0.00    -0.470 OA
BRANCH  23  25
ATOM     24  C   UNL     1      -0.909   5.406  -3.570  0.00  0.00    +0.172 A 
ATOM     25  C   UNL     1      -0.854   5.518  -2.186  0.00  0.00    +0.172 A 
ATOM     26  C   UNL     1      -1.966   6.007  -1.517  0.00  0.00    +0.040 A 
ATOM     27  C   UNL     1      -3.174   6.111  -2.193  0.00  0.00    +0.003 A 
ATOM     28  C   UNL     1      -3.285   5.741  -3.518  0.00  0.00    +0.003 A 
ATOM     29  C   UNL     1      -2.133   5.517  -4.221  0.00  0.00    +0.040 A 
BRANCH  24  31
ATOM     30  C   UNL     1       0.387   4.749  -5.449  0.00  0.00    +0.253 C 
ATOM     31  O   UNL     1       0.295   5.312  -4.266  0.00  0.00    -0.468 OA
ENDBRANCH  24  31
ENDBRANCH  23  25
ENDBRANCH  22  23
ENDBRANCH  20  22
ENDBRANCH  19  20
ENDBRANCH   1  19
TORSDOF 9
ENDMDL
MODEL 2
REMARK VINA RESULT:      -8.3      3.164      9.319
REMARK  Name = 
REMARK  9 active torsions:
REMARK  status: ('A' for Active; 'I' for Inactive)
REMARK    1  A    between atoms: O_2  and  C_3
REMARK    2  A    between atoms: C_8  and  O_9
REMARK    3  A    between atoms: O_9  and  C_10
REMARK    4  A    between atoms: C_10  and  C_11
REMARK    5  A    between atoms: C_11  and  C_13
REMARK    6  A    between atoms: C_13  and  N_14
REMARK    7  A    between atoms: N_17  and  C_18
REMARK    8  A    between atoms: C_18  and  C_19
REMARK    9  A    between atoms: N_21  and  C_22
REMARK                            x       y       z     vdW  Elec       q    Type
REMARK                         _______ _______ _______ _____ _____    ______ ____
ROOT
ATOM      1  N   UNL     1       0.818   6.120 -12.434  0.00  0.00    -0.268 NA
ATOM      2  C   UNL     1       0.558   4.801 -12.032  0.00  0.00    +0.090 C 
ATOM      3  C   UNL     1       0.906   4.609 -10.562  0.00  0.00    +0.090 C 
ATOM      4  N   UNL     1       0.485   5.765  -9.772  0.00  0.00    -0.263 NA
ATOM      5  C   UNL     1      -0.502   6.555 -10.505  0.00  0.00    +0.090 C 
ATOM      6  C   UNL     1       0.257   7.175 -11.673  0.00  0.00    +0.090 C 
ENDROOT
BRANCH   4   7
ATOM      7  C   UNL     1       1.663   6.627  -9.678  0.00  0.00    +0.161 C 
BRANCH   7   8
ATOM      8  C   UNL     1       1.706   7.166  -8.283  0.00  0.00    +0.262 C 
ATOM      9  N   UNL     1       1.992   6.204  -7.267  0.00  0.00    -0.179 NA
ATOM     10  O   UNL     1       2.238   8.295  -8.144  0.00  0.00    -0.271 OA
BRANCH   9  11
ATOM     11  C   UNL     1       2.491   6.553  -5.982  0.00  0.00    +0.065 A 
ATOM     12  C   UNL     1       1.598   6.615  -4.936  0.00  0.00    -0.007 A 
ATOM     13  C   UNL     1       0.154   6.325  -5.143  0.00  0.00    +0.032 C 
ATOM     14  C   UNL     1       2.096   6.848  -3.662  0.00  0.00    -0.003 A 
ATOM     15  C   UNL     1       3.439   7.167  -3.522  0.00  0.00    -0.001 A 
ATOM     16  C   UNL     1       4.318   6.996  -4.574  0.00  0.00    -0.003 A 
ATOM     17  C   UNL     1       3.859   6.456  -5.757  0.00  0.00    -0.007 A 
ATOM     18  C   UNL     1       4.746   5.603  -6.608  0.00  0.00    +0.032 C 
ENDBRANCH   9  11
ENDBRANCH   7   8
ENDBRANCH   4   7
BRANCH   1  19
ATOM     19  C   UNL     1       1.459   6.392 -13.626  0.00  0.00    +0.109 C 
BRANCH  19  20
ATOM     20  C   UNL     1       2.683   5.298 -13.873  0.00  0.00    +0.211 C 
ATOM     21  O   UNL     1       3.207   6.081 -15.081  0.00  0.00    -0.218 OA
BRANCH  20  22
ATOM     22  C   UNL     1       3.739   6.066 -12.842  0.00  0.00    +0.240 C 
BRANCH  22  23
ATOM     23  O   UNL     1       4.420   5.030 -12.186  0.00  0.00    -0.470 OA
BRANCH  23  25
ATOM     24  C   UNL     1       6.684   5.692 -12.351  0.00  0.00    +0.172 A 
ATOM     25  C   UNL     1       5.613   5.307 -11.553  0.00  0.00    +0.172 A 
ATOM     26  C   UNL     1       5.677   5.560 -10.192  0.00  0.00    +0.040 A 
ATOM     27  C   UNL     1       6.655   6.417  -9.705  0.00  0.00    +0.003 A 
ATOM     28  C   UNL     1       7.566   7.014 -10.553  0.00  0.00    +0.003 A 
ATOM     29  C   UNL     1       7.651   6.548 -11.836  0.00  0.00    +0.040 A 
BRANCH  24  31
ATOM     30  C   UNL     1       6.882   5.793 -14.715  0.00  0.00    +0.253 C 
ATOM     31  O   UNL     1       6.812   5.095 -13.604  0.00  0.00    -0.468 OA
ENDBRANCH  24  31
ENDBRANCH  23  25
ENDBRANCH  22  23
ENDBRANCH  20  22
ENDBRANCH  19  20
ENDBRANCH   1  19
TORSDOF 9
ENDMDL
MODEL 3
REMARK VINA RESULT:      -8.1      1.721      3.037
REMARK  Name = 
REMARK  9 active torsions:
REMARK  status: ('A' for Active; 'I' for Inactive)
REMARK    1  A    between atoms: O_2  and  C_3
REMARK    2  A    between atoms: C_8  and  O_9
REMARK    3  A    between atoms: O_9  and  C_10
REMARK    4  A    between atoms: C_10  and  C_11
REMARK    5  A    between atoms: C_11  and  C_13
REMARK    6  A    between atoms: C_13  and  N_14
REMARK    7  A    between atoms: N_17  and  C_18
REMARK    8  A    between atoms: C_18  and  C_19
REMARK    9  A    between atoms: N_21  and  C_22
REMARK                            x       y       z     vdW  Elec       q    Type
REMARK                         _______ _______ _______ _____ _____    ______ ____
ROOT
ATOM      1  N   UNL     1       2.996   5.927  -5.394  0.00  0.00    -0.268 NA
ATOM      2  C   UNL     1       3.007   4.529  -5.264  0.00  0.00    +0.090 C 
ATOM      3  C   UNL     1       2.257   3.877  -6.418  0.00  0.00    +0.090 C 
ATOM      4  N   UNL     1       2.561   4.548  -7.681  0.00  0.00    -0.263 NA
ATOM      5  C   UNL     1       3.781   5.341  -7.560  0.00  0.00    +0.090 C 
ATOM      6  C   UNL     1       3.431   6.489  -6.620  0.00  0.00    +0.090 C 
ENDROOT
BRANCH   4   7
ATOM      7  C   UNL     1       1.491   5.527  -7.873  0.00  0.00    +0.161 C 
BRANCH   7   8
ATOM      8  C   UNL     1       1.049   5.426  -9.299  0.00  0.00    +0.262 C 
ATOM      9  N   UNL     1       1.450   6.509 -10.138  0.00  0.00    -0.179 NA
ATOM     10  O   UNL     1       1.096   4.280  -9.810  0.00  0.00    -0.271 OA
BRANCH   9  11
ATOM     11  C   UNL     1       1.514   6.413 -11.556  0.00  0.00    +0.065 A 
ATOM     12  C   UNL     1       0.487   6.962 -12.289  0.00  0.00    -0.007 A 
ATOM     13  C   UNL     1      -0.657   7.636 -11.619  0.00  0.00    +0.032 C 
ATOM     14  C   UNL     1       0.598   6.967 -13.672  0.00  0.00    -0.003 A 
ATOM     15  C   UNL     1       1.653   6.281 -14.256  0.00  0.00    -0.001 A 
ATOM     16  C   UNL     1       2.712   5.833 -13.491  0.00  0.00    -0.003 A 
ATOM     17  C   UNL     1       2.739   6.117 -12.142  0.00  0.00    -0.007 A 
ATOM     18  C   UNL     1       4.035   6.337 -11.428  0.00  0.00    +0.032 C 
ENDBRANCH   9  11
ENDBRANCH   7   8
ENDBRANCH   4   7
BRANCH   1  19
ATOM     19  C   UNL     1       2.731   6.745  -4.314  0.00  0.00    +0.109 C 
BRANCH  19  20
ATOM     20  C   UNL     1       2.824   5.870  -2.906  0.00  0.00    +0.211 C 
ATOM     21  O   UNL     1       3.382   7.071  -2.137  0.00  0.00    -0.218 OA
BRANCH  20  22
ATOM     22  C   UNL     1       1.265   6.222  -2.444  0.00  0.00    +0.240 C 
BRANCH  22  23
ATOM     23  O   UNL     1       0.496   5.151  -2.921  0.00  0.00    -0.470 OA
BRANCH  23  25
ATOM     24  C   UNL     1      -1.756   5.861  -2.800  0.00  0.00    +0.172 A 
ATOM     25  C   UNL     1      -0.690   5.414  -3.572  0.00  0.00    +0.172 A 
ATOM     26  C   UNL     1      -0.746   5.594  -4.945  0.00  0.00    +0.040 A 
ATOM     27  C   UNL     1      -1.708   6.440  -5.481  0.00  0.00    +0.003 A 
ATOM     28  C   UNL     1      -2.609   7.099  -4.670  0.00  0.00    +0.003 A 
ATOM     29  C   UNL     1      -2.706   6.705  -3.364  0.00  0.00    +0.040 A 
BRANCH  24  31
ATOM     30  C   UNL     1      -1.922   6.092  -0.442  0.00  0.00    +0.253 C 
ATOM     31  O   UNL     1      -1.897   5.336  -1.516  0.00  0.00    -0.468 OA
ENDBRANCH  24  31
ENDBRANCH  23  25
ENDBRANCH  22  23
ENDBRANCH  20  22
ENDBRANCH  19  20
ENDBRANCH   1  19
TORSDOF 9
ENDMDL
MODEL 4
REMARK VINA RESULT:      -8.1      3.096      8.938
REMARK  Name = 
REMARK  9 active torsions:
REMARK  status: ('A' for Active; 'I' for Inactive)
REMARK    1  A    between atoms: O_2  and  C_3
REMARK    2  A    between atoms: C_8  and  O_9
REMARK    3  A    between atoms: O_9  and  C_10
REMARK    4  A    between atoms: C_10  and  C_11
REMARK    5  A    between atoms: C_11  and  C_13
REMARK    6  A    between atoms: C_13  and  N_14
REMARK    7  A    between atoms: N_17  and  C_18
REMARK    8  A    between atoms: C_18  and  C_19
REMARK    9  A    between atoms: N_21  and  C_22
REMARK                            x       y       z     vdW  Elec       q    Type
REMARK                         _______ _______ _______ _____ _____    ______ ____
ROOT
ATOM      1  N   UNL     1       1.258   6.184 -12.375  0.00  0.00    -0.268 NA
ATOM      2  C   UNL     1       0.774   4.874 -12.235  0.00  0.00    +0.090 C 
ATOM      3  C   UNL     1       0.545   4.540 -10.767  0.00  0.00    +0.090 C 
ATOM      4  N   UNL     1      -0.051   5.674 -10.063  0.00  0.00    -0.263 NA
ATOM      5  C   UNL     1      -0.641   6.615 -11.011  0.00  0.00    +0.090 C 
ATOM      6  C   UNL     1       0.535   7.235 -11.757  0.00  0.00    +0.090 C 
ENDROOT
BRANCH   4   7
ATOM      7  C   UNL     1       1.070   6.397  -9.461  0.00  0.00    +0.161 C 
BRANCH   7   8
ATOM      8  C   UNL     1       0.683   6.719  -8.053  0.00  0.00    +0.262 C 
ATOM      9  N   UNL     1       0.009   5.674  -7.352  0.00  0.00    -0.179 NA
ATOM     10  O   UNL     1       1.517   7.384  -7.391  0.00  0.00    -0.271 OA
BRANCH   9  11
ATOM     11  C   UNL     1      -0.058   5.605  -5.933  0.00  0.00    +0.065 A 
ATOM     12  C   UNL     1      -1.284   5.788  -5.333  0.00  0.00    -0.007 A 
ATOM     13  C   UNL     1      -2.502   6.050  -6.144  0.00  0.00    +0.032 C 
ATOM     14  C   UNL     1      -1.373   5.614  -3.959  0.00  0.00    -0.003 A 
ATOM     15  C   UNL     1      -0.205   5.424  -3.236  0.00  0.00    -0.001 A 
ATOM     16  C   UNL     1       0.985   5.146  -3.879  0.00  0.00    -0.003 A 
ATOM     17  C   UNL     1       0.995   5.008  -5.251  0.00  0.00    -0.007 A 
ATOM     18  C   UNL     1       1.941   4.062  -5.922  0.00  0.00    +0.032 C 
ENDBRANCH   9  11
ENDBRANCH   7   8
ENDBRANCH   4   7
BRANCH   1  19
ATOM     19  C   UNL     1       2.309   6.473 -13.222  0.00  0.00    +0.109 C 
BRANCH  19  20
ATOM     20  C   UNL     1       2.998   5.066 -13.771  0.00  0.00    +0.211 C 
ATOM     21  O   UNL     1       3.511   5.752 -15.040  0.00  0.00    -0.218 OA
BRANCH  20  22
ATOM     22  C   UNL     1       4.438   5.321 -12.978  0.00  0.00    +0.240 C 
BRANCH  22  23
ATOM     23  O   UNL     1       4.168   6.347 -12.061  0.00  0.00    -0.470 OA
BRANCH  23  25
ATOM     24  C   UNL     1       5.218   5.885  -9.993  0.00  0.00    +0.172 A 
ATOM     25  C   UNL     1       5.126   6.682 -11.128  0.00  0.00    +0.172 A 
ATOM     26  C   UNL     1       6.189   7.516 -11.439  0.00  0.00    +0.040 A 
ATOM     27  C   UNL     1       7.403   7.341 -10.788  0.00  0.00    +0.003 A 
ATOM     28  C   UNL     1       7.565   6.357  -9.834  0.00  0.00    +0.003 A 
ATOM     29  C   UNL     1       6.446   5.731  -9.359  0.00  0.00    +0.040 A 
BRANCH  24  31
ATOM     30  C   UNL     1       3.939   4.140  -9.014  0.00  0.00    +0.253 C 
ATOM     31  O   UNL     1       4.037   5.372  -9.459  0.00  0.00    -0.468 OA
ENDBRANCH  24  31
ENDBRANCH  23  25
ENDBRANCH  22  23
ENDBRANCH  20  22
ENDBRANCH  19  20
ENDBRANCH   1  19
TORSDOF 9
ENDMDL
MODEL 5
REMARK VINA RESULT:      -7.9      2.237      3.752
REMARK  Name = 
REMARK  9 active torsions:
REMARK  status: ('A' for Active; 'I' for Inactive)
REMARK    1  A    between atoms: O_2  and  C_3
REMARK    2  A    between atoms: C_8  and  O_9
REMARK    3  A    between atoms: O_9  and  C_10
REMARK    4  A    between atoms: C_10  and  C_11
REMARK    5  A    between atoms: C_11  and  C_13
REMARK    6  A    between atoms: C_13  and  N_14
REMARK    7  A    between atoms: N_17  and  C_18
REMARK    8  A    between atoms: C_18  and  C_19
REMARK    9  A    between atoms: N_21  and  C_22
REMARK                            x       y       z     vdW  Elec       q    Type
REMARK                         _______ _______ _______ _____ _____    ______ ____
ROOT
ATOM      1  N   UNL     1       2.347   6.483  -5.608  0.00  0.00    -0.268 NA
ATOM      2  C   UNL     1       1.455   7.347  -6.260  0.00  0.00    +0.090 C 
ATOM      3  C   UNL     1       1.837   7.507  -7.726  0.00  0.00    +0.090 C 
ATOM      4  N   UNL     1       2.246   6.226  -8.299  0.00  0.00    -0.263 NA
ATOM      5  C   UNL     1       1.778   5.119  -7.469  0.00  0.00    +0.090 C 
ATOM      6  C   UNL     1       2.582   5.207  -6.178  0.00  0.00    +0.090 C 
ENDROOT
BRANCH   4   7
ATOM      7  C   UNL     1       3.704   6.193  -8.185  0.00  0.00    +0.161 C 
BRANCH   7   8
ATOM      8  C   UNL     1       4.232   5.569  -9.439  0.00  0.00    +0.262 C 
ATOM      9  N   UNL     1       4.898   6.463 -10.330  0.00  0.00    -0.179 NA
ATOM     10  O   UNL     1       4.740   4.428  -9.314  0.00  0.00    -0.271 OA
BRANCH   9  11
ATOM     11  C   UNL     1       5.817   6.030 -11.325  0.00  0.00    +0.065 A 
ATOM     12  C   UNL     1       5.326   5.744 -12.579  0.00  0.00    -0.007 A 
ATOM     13  C   UNL     1       3.877   5.884 -12.885  0.00  0.00    +0.032 C 
ATOM     14  C   UNL     1       6.231   5.426 -13.581  0.00  0.00    -0.003 A 
ATOM     15  C   UNL     1       7.565   5.254 -13.241  0.00  0.00    -0.001 A 
ATOM     16  C   UNL     1       8.033   5.647 -12.003  0.00  0.00    -0.003 A 
ATOM     17  C   UNL     1       7.171   6.261 -11.118  0.00  0.00    -0.007 A 
ATOM     18  C   UNL     1       7.662   7.305 -10.165  0.00  0.00    +0.032 C 
ENDBRANCH   9  11
ENDBRANCH   7   8
ENDBRANCH   4   7
BRANCH   1  19
ATOM     19  C   UNL     1       2.859   6.789  -4.362  0.00  0.00    +0.109 C 
BRANCH  19  20
ATOM     20  C   UNL     1       2.902   5.425  -3.417  0.00  0.00    +0.211 C 
ATOM     21  O   UNL     1       3.933   6.050  -2.474  0.00  0.00    -0.218 OA
BRANCH  20  22
ATOM     22  C   UNL     1       1.636   5.908  -2.452  0.00  0.00    +0.240 C 
BRANCH  22  23
ATOM     23  O   UNL     1       0.499   5.318  -3.025  0.00  0.00    -0.470 OA
BRANCH  23  25
ATOM     24  C   UNL     1      -1.611   5.708  -4.019  0.00  0.00    +0.172 A 
ATOM     25  C   UNL     1      -0.690   6.014  -3.024  0.00  0.00    +0.172 A 
ATOM     26  C   UNL     1      -1.130   6.707  -1.906  0.00  0.00    +0.040 A 
ATOM     27  C   UNL     1      -2.494   6.835  -1.680  0.00  0.00    +0.003 A 
ATOM     28  C   UNL     1      -3.416   6.290  -2.550  0.00  0.00    +0.003 A 
ATOM     29  C   UNL     1      -2.970   5.849  -3.766  0.00  0.00    +0.040 A 
BRANCH  24  31
ATOM     30  C   UNL     1      -1.841   5.524  -6.376  0.00  0.00    +0.253 C 
ATOM     31  O   UNL     1      -1.120   5.391  -5.286  0.00  0.00    -0.468 OA
ENDBRANCH  24  31
ENDBRANCH  23  25
ENDBRANCH  22  23
ENDBRANCH  20  22
ENDBRANCH  19  20
ENDBRANCH   1  19
TORSDOF 9
ENDMDL
MODEL 6
REMARK VINA RESULT:      -7.9      2.907      9.196
REMARK  Name = 
REMARK  9 active torsions:
REMARK  status: ('A' for Active; 'I' for Inactive)
REMARK    1  A    between atoms: O_2  and  C_3
REMARK    2  A    between atoms: C_8  and  O_9
REMARK    3  A    between atoms: O_9  and  C_10
REMARK    4  A    between atoms: C_10  and  C_11
REMARK    5  A    between atoms: C_11  and  C_13
REMARK    6  A    between atoms: C_13  and  N_14
REMARK    7  A    between atoms: N_17  and  C_18
REMARK    8  A    between atoms: C_18  and  C_19
REMARK    9  A    between atoms: N_21  and  C_22
REMARK                            x       y       z     vdW  Elec       q    Type
REMARK                         _______ _______ _______ _____ _____    ______ ____
ROOT
ATOM      1  N   UNL     1       1.739   6.312  -9.646  0.00  0.00    -0.268 NA
ATOM      2  C   UNL     1       2.455   7.236  -8.868  0.00  0.00    +0.090 C 
ATOM      3  C   UNL     1       1.905   7.283  -7.448  0.00  0.00    +0.090 C 
ATOM      4  N   UNL     1       1.586   5.938  -6.970  0.00  0.00    -0.263 NA
ATOM      5  C   UNL     1       2.261   4.930  -7.783  0.00  0.00    +0.090 C 
ATOM      6  C   UNL     1       1.592   4.993  -9.151  0.00  0.00    +0.090 C 
ENDROOT
BRANCH   4   7
ATOM      7  C   UNL     1       0.161   5.752  -7.245  0.00  0.00    +0.161 C 
BRANCH   7   8
ATOM      8  C   UNL     1      -0.489   5.352  -5.958  0.00  0.00    +0.262 C 
ATOM      9  N   UNL     1      -0.133   6.144  -4.825  0.00  0.00    -0.179 NA
ATOM     10  O   UNL     1      -1.692   5.000  -6.034  0.00  0.00    -0.271 OA
BRANCH   9  11
ATOM     11  C   UNL     1      -0.925   6.217  -3.646  0.00  0.00    +0.065 A 
ATOM     12  C   UNL     1      -0.433   5.640  -2.497  0.00  0.00    -0.007 A 
ATOM     13  C   UNL     1       0.890   4.959  -2.489  0.00  0.00    +0.032 C 
ATOM     14  C   UNL     1      -1.151   5.803  -1.322  0.00  0.00    -0.003 A 
ATOM     15  C   UNL     1      -2.403   6.396  -1.385  0.00  0.00    -0.001 A 
ATOM     16  C   UNL     1      -2.817   7.050  -2.529  0.00  0.00    -0.003 A 
ATOM     17  C   UNL     1      -1.952   7.153  -3.598  0.00  0.00    -0.007 A 
ATOM     18  C   UNL     1      -1.978   8.350  -4.496  0.00  0.00    +0.032 C 
ENDBRANCH   9  11
ENDBRANCH   7   8
ENDBRANCH   4   7
BRANCH   1  19
ATOM     19  C   UNL     1       1.330   6.621 -10.928  0.00  0.00    +0.109 C 
BRANCH  19  20
ATOM     20  C   UNL     1       1.867   5.460 -11.987  0.00  0.00    +0.211 C 
ATOM     21  O   UNL     1       1.203   6.165 -13.174  0.00  0.00    -0.218 OA
BRANCH  20  22
ATOM     22  C   UNL     1       3.320   6.220 -12.271  0.00  0.00    +0.240 C 
BRANCH  22  23
ATOM     23  O   UNL     1       4.265   5.185 -12.316  0.00  0.00    -0.470 OA
BRANCH  23  25
ATOM     24  C   UNL     1       6.577   5.678 -12.381  0.00  0.00    +0.172 A 
ATOM     25  C   UNL     1       5.455   5.333 -11.637  0.00  0.00    +0.172 A 
ATOM     26  C   UNL     1       5.494   5.504 -10.261  0.00  0.00    +0.040 A 
ATOM     27  C   UNL     1       6.519   6.254  -9.700  0.00  0.00    +0.003 A 
ATOM     28  C   UNL     1       7.498   6.826 -10.486  0.00  0.00    +0.003 A 
ATOM     29  C   UNL     1       7.588   6.428 -11.791  0.00  0.00    +0.040 A 
BRANCH  24  31
ATOM     30  C   UNL     1       6.841   5.896 -14.731  0.00  0.00    +0.253 C 
ATOM     31  O   UNL     1       6.699   5.145 -13.663  0.00  0.00    -0.468 OA
ENDBRANCH  24  31
ENDBRANCH  23  25
ENDBRANCH  22  23
ENDBRANCH  20  22
ENDBRANCH  19  20
ENDBRANCH   1  19
TORSDOF 9
ENDMDL
MODEL 7
REMARK VINA RESULT:      -7.7      2.435      5.490
REMARK  Name = 
REMARK  9 active torsions:
REMARK  status: ('A' for Active; 'I' for Inactive)
REMARK    1  A    between atoms: O_2  and  C_3
REMARK    2  A    between atoms: C_8  and  O_9
REMARK    3  A    between atoms: O_9  and  C_10
REMARK    4  A    between atoms: C_10  and  C_11
REMARK    5  A    between atoms: C_11  and  C_13
REMARK    6  A    between atoms: C_13  and  N_14
REMARK    7  A    between atoms: N_17  and  C_18
REMARK    8  A    between atoms: C_18  and  C_19
REMARK    9  A    between atoms: N_21  and  C_22
REMARK                            x       y       z     vdW  Elec       q    Type
REMARK                         _______ _______ _______ _____ _____    ______ ____
ROOT
ATOM      1  N   UNL     1       1.085   5.029  -7.795  0.00  0.00    -0.268 NA
ATOM      2  C   UNL     1       0.325   5.847  -8.645  0.00  0.00    +0.090 C 
ATOM      3  C   UNL     1       1.233   6.717  -9.506  0.00  0.00    +0.090 C 
ATOM      4  N   UNL     1       2.387   5.954  -9.978  0.00  0.00    -0.263 NA
ATOM      5  C   UNL     1       2.136   4.520  -9.865  0.00  0.00    +0.090 C 
ATOM      6  C   UNL     1       2.103   4.228  -8.369  0.00  0.00    +0.090 C 
ENDROOT
BRANCH   4   7
ATOM      7  C   UNL     1       3.458   6.227  -9.020  0.00  0.00    +0.161 C 
BRANCH   7   8
ATOM      8  C   UNL     1       4.679   6.580  -9.810  0.00  0.00    +0.262 C 
ATOM      9  N   UNL     1       5.285   5.493 -10.510  0.00  0.00    -0.179 NA
ATOM     10  O   UNL     1       4.646   7.680 -10.413  0.00  0.00    -0.271 OA
BRANCH   9  11
ATOM     11  C   UNL     1       6.156   5.671 -11.620  0.00  0.00    +0.065 A 
ATOM     12  C   UNL     1       7.512   5.585 -11.400  0.00  0.00    -0.007 A 
ATOM     13  C   UNL     1       8.052   5.314 -10.041  0.00  0.00    +0.032 C 
ATOM     14  C   UNL     1       8.359   5.649 -12.496  0.00  0.00    -0.003 A 
ATOM     15  C   UNL     1       7.820   5.957 -13.736  0.00  0.00    -0.001 A 
ATOM     16  C   UNL     1       6.453   5.935 -13.935  0.00  0.00    -0.003 A 
ATOM     17  C   UNL     1       5.626   5.556 -12.899  0.00  0.00    -0.007 A 
ATOM     18  C   UNL     1       4.344   4.831 -13.165  0.00  0.00    +0.032 C 
ENDBRANCH   9  11
ENDBRANCH   7   8
ENDBRANCH   4   7
BRANCH   1  19
ATOM     19  C   UNL     1       0.752   4.875  -6.463  0.00  0.00    +0.109 C 
BRANCH  19  20
ATOM     20  C   UNL     1      -0.037   6.229  -5.917  0.00  0.00    +0.211 C 
ATOM     21  O   UNL     1      -1.326   5.441  -5.671  0.00  0.00    -0.218 OA
BRANCH  20  22
ATOM     22  C   UNL     1       0.458   6.028  -4.341  0.00  0.00    +0.240 C 
BRANCH  22  23
ATOM     23  O   UNL     1       1.417   7.031  -4.134  0.00  0.00    -0.470 OA
BRANCH  23  25
ATOM     24  C   UNL     1       3.187   5.926  -3.020  0.00  0.00    +0.172 A 
ATOM     25  C   UNL     1       2.751   6.686  -4.099  0.00  0.00    +0.172 A 
ATOM     26  C   UNL     1       3.552   6.751  -5.229  0.00  0.00    +0.040 A 
ATOM     27  C   UNL     1       4.609   5.861  -5.365  0.00  0.00    +0.003 A 
ATOM     28  C   UNL     1       4.876   4.918  -4.393  0.00  0.00    +0.003 A 
ATOM     29  C   UNL     1       4.249   5.045  -3.184  0.00  0.00    +0.040 A 
BRANCH  24  31
ATOM     30  C   UNL     1       3.330   6.280  -0.676  0.00  0.00    +0.253 C 
ATOM     31  O   UNL     1       2.615   6.176  -1.773  0.00  0.00    -0.468 OA
ENDBRANCH  24  31
ENDBRANCH  23  25
ENDBRANCH  22  23
ENDBRANCH  20  22
ENDBRANCH  19  20
ENDBRANCH   1  19
TORSDOF 9
ENDMDL
MODEL 8
REMARK VINA RESULT:      -7.6      2.707      9.359
REMARK  Name = 
REMARK  9 active torsions:
REMARK  status: ('A' for Active; 'I' for Inactive)
REMARK    1  A    between atoms: O_2  and  C_3
REMARK    2  A    between atoms: C_8  and  O_9
REMARK    3  A    between atoms: O_9  and  C_10
REMARK    4  A    between atoms: C_10  and  C_11
REMARK    5  A    between atoms: C_11  and  C_13
REMARK    6  A    between atoms: C_13  and  N_14
REMARK    7  A    between atoms: N_17  and  C_18
REMARK    8  A    between atoms: C_18  and  C_19
REMARK    9  A    between atoms: N_21  and  C_22
REMARK                            x       y       z     vdW  Elec       q    Type
REMARK                         _______ _______ _______ _____ _____    ______ ____
ROOT
ATOM      1  N   UNL     1       1.794   5.867 -10.277  0.00  0.00    -0.268 NA
ATOM      2  C   UNL     1       1.921   4.496 -10.005  0.00  0.00    +0.090 C 
ATOM      3  C   UNL     1       2.335   4.271  -8.556  0.00  0.00    +0.090 C 
ATOM      4  N   UNL     1       1.621   5.184  -7.664  0.00  0.00    -0.263 NA
ATOM      5  C   UNL     1       0.440   5.731  -8.328  0.00  0.00    +0.090 C 
ATOM      6  C   UNL     1       0.974   6.646  -9.424  0.00  0.00    +0.090 C 
ENDROOT
BRANCH   4   7
ATOM      7  C   UNL     1       2.513   6.328  -7.477  0.00  0.00    +0.161 C 
BRANCH   7   8
ATOM      8  C   UNL     1       2.472   6.687  -6.025  0.00  0.00    +0.262 C 
ATOM      9  N   UNL     1       2.193   5.604  -5.138  0.00  0.00    -0.179 NA
ATOM     10  O   UNL     1       3.333   7.514  -5.638  0.00  0.00    -0.271 OA
BRANCH   9  11
ATOM     11  C   UNL     1       2.522   5.625  -3.755  0.00  0.00    +0.065 A 
ATOM     12  C   UNL     1       1.493   5.561  -2.842  0.00  0.00    -0.007 A 
ATOM     13  C   UNL     1       0.078   5.471  -3.290  0.00  0.00    +0.032 C 
ATOM     14  C   UNL     1       1.815   5.472  -1.496  0.00  0.00    -0.003 A 
ATOM     15  C   UNL     1       3.143   5.614  -1.120  0.00  0.00    -0.001 A 
ATOM     16  C   UNL     1       4.151   5.574  -2.063  0.00  0.00    -0.003 A 
ATOM     17  C   UNL     1       3.831   5.342  -3.384  0.00  0.00    -0.007 A 
ATOM     18  C   UNL     1       4.768   4.597  -4.282  0.00  0.00    +0.032 C 
ENDBRANCH   9  11
ENDBRANCH   7   8
ENDBRANCH   4   7
BRANCH   1  19
ATOM     19  C   UNL     1       2.313   6.419 -11.432  0.00  0.00    +0.109 C 
BRANCH  19  20
ATOM     20  C   UNL     1       2.175   5.340 -12.686  0.00  0.00    +0.211 C 
ATOM     21  O   UNL     1       1.448   6.368 -13.557  0.00  0.00    -0.218 OA
BRANCH  20  22
ATOM     22  C   UNL     1       3.651   5.735 -13.346  0.00  0.00    +0.240 C 
BRANCH  22  23
ATOM     23  O   UNL     1       4.594   5.097 -12.527  0.00  0.00    -0.470 OA
BRANCH  23  25
ATOM     24  C   UNL     1       6.380   5.630 -11.071  0.00  0.00    +0.172 A 
ATOM     25  C   UNL     1       5.829   5.682 -12.346  0.00  0.00    +0.172 A 
ATOM     26  C   UNL     1       6.662   5.977 -13.415  0.00  0.00    +0.040 A 
ATOM     27  C   UNL     1       8.038   5.942 -13.233  0.00  0.00    +0.003 A 
ATOM     28  C   UNL     1       8.588   5.624 -12.009  0.00  0.00    +0.003 A 
ATOM     29  C   UNL     1       7.761   5.599 -10.919  0.00  0.00    +0.040 A 
BRANCH  24  31
ATOM     30  C   UNL     1       5.867   5.397  -8.763  0.00  0.00    +0.253 C 
ATOM     31  O   UNL     1       5.516   5.740  -9.982  0.00  0.00    -0.468 OA
ENDBRANCH  24  31
ENDBRANCH  23  25
ENDBRANCH  22  23
ENDBRANCH  20  22
ENDBRANCH  19  20
ENDBRANCH   1  19
TORSDOF 9
ENDMDL
MODEL 9
REMARK VINA RESULT:      -7.6      2.236      5.231
REMARK  Name = 
REMARK  9 active torsions:
REMARK  status: ('A' for Active; 'I' for Inactive)
REMARK    1  A    between atoms: O_2  and  C_3
REMARK    2  A    between atoms: C_8  and  O_9
REMARK    3  A    between atoms: O_9  and  C_10
REMARK    4  A    between atoms: C_10  and  C_11
REMARK    5  A    between atoms: C_11  and  C_13
REMARK    6  A    between atoms: C_13  and  N_14
REMARK    7  A    between atoms: N_17  and  C_18
REMARK    8  A    between atoms: C_18  and  C_19
REMARK    9  A    between atoms: N_21  and  C_22
REMARK                            x       y       z     vdW  Elec       q    Type
REMARK                         _______ _______ _______ _____ _____    ______ ____
ROOT
ATOM      1  N   UNL     1      -2.243   6.259  -2.686  0.00  0.00    -0.268 NA
ATOM      2  C   UNL     1      -2.229   7.551  -3.234  0.00  0.00    +0.090 C 
ATOM      3  C   UNL     1      -1.246   7.631  -4.395  0.00  0.00    +0.090 C 
ATOM      4  N   UNL     1      -1.323   6.429  -5.224  0.00  0.00    -0.263 NA
ATOM      5  C   UNL     1      -2.570   5.712  -4.975  0.00  0.00    +0.090 C 
ATOM      6  C   UNL     1      -2.451   5.163  -3.559  0.00  0.00    +0.090 C 
ENDROOT
BRANCH   4   7
ATOM      7  C   UNL     1      -0.272   5.541  -4.727  0.00  0.00    +0.161 C 
BRANCH   7   8
ATOM      8  C   UNL     1       0.530   5.099  -5.910  0.00  0.00    +0.262 C 
ATOM      9  N   UNL     1       1.323   6.117  -6.523  0.00  0.00    -0.179 NA
ATOM     10  O   UNL     1       1.055   3.962  -5.826  0.00  0.00    -0.271 OA
BRANCH   9  11
ATOM     11  C   UNL     1       2.445   5.838  -7.351  0.00  0.00    +0.065 A 
ATOM     12  C   UNL     1       2.257   5.823  -8.714  0.00  0.00    -0.007 A 
ATOM     13  C   UNL     1       0.919   6.092  -9.306  0.00  0.00    +0.032 C 
ATOM     14  C   UNL     1       3.369   5.659  -9.527  0.00  0.00    -0.003 A 
ATOM     15  C   UNL     1       4.586   5.357  -8.936  0.00  0.00    -0.001 A 
ATOM     16  C   UNL     1       4.756   5.481  -7.570  0.00  0.00    -0.003 A 
ATOM     17  C   UNL     1       3.715   5.956  -6.800  0.00  0.00    -0.007 A 
ATOM     18  C   UNL     1       3.977   6.771  -5.573  0.00  0.00    +0.032 C 
ENDBRANCH   9  11
ENDBRANCH   7   8
ENDBRANCH   4   7
BRANCH   1  19
ATOM     19  C   UNL     1      -2.222   6.061  -1.319  0.00  0.00    +0.109 C 
BRANCH  19  20
ATOM     20  C   UNL     1      -1.138   7.101  -0.613  0.00  0.00    +0.211 C 
ATOM     21  O   UNL     1      -1.418   6.528   0.779  0.00  0.00    -0.218 OA
BRANCH  20  22
ATOM     22  C   UNL     1       0.162   6.087  -0.835  0.00  0.00    +0.240 C 
BRANCH  22  23
ATOM     23  O   UNL     1       1.022   6.787  -1.695  0.00  0.00    -0.470 OA
BRANCH  23  25
ATOM     24  C   UNL     1       3.163   7.004  -0.714  0.00  0.00    +0.172 A 
ATOM     25  C   UNL     1       2.362   6.462  -1.712  0.00  0.00    +0.172 A 
ATOM     26  C   UNL     1       2.842   5.378  -2.431  0.00  0.00    +0.040 A 
ATOM     27  C   UNL     1       3.962   4.699  -1.970  0.00  0.00    +0.003 A 
ATOM     28  C   UNL     1       4.605   5.089  -0.813  0.00  0.00    +0.003 A 
ATOM     29  C   UNL     1       4.281   6.303  -0.274  0.00  0.00    +0.040 A 
BRANCH  24  31
ATOM     30  C   UNL     1       3.472   9.358  -0.788  0.00  0.00    +0.253 C 
ATOM     31  O   UNL     1       2.881   8.299  -0.282  0.00  0.00    -0.468 OA
ENDBRANCH  24  31
ENDBRANCH  23  25
ENDBRANCH  22  23
ENDBRANCH  20  22
ENDBRANCH  19  20
ENDBRANCH   1  19
TORSDOF 9
ENDMDL
