MODEL 1
REMARK VINA RESULT:      -9.0      0.000      0.000
REMARK  Name = 
REMARK  7 active torsions:
REMARK  status: ('A' for Active; 'I' for Inactive)
REMARK    1  A    between atoms: C_8  and  O_9
REMARK    2  A    between atoms: O_9  and  C_10
REMARK    3  A    between atoms: C_10  and  C_11
REMARK    4  A    between atoms: C_11  and  C_12
REMARK    5  A    between atoms: C_12  and  C_13
REMARK    6  A    between atoms: C_13  and  N_14
REMARK    7  A    between atoms: N_17  and  C_18
REMARK                            x       y       z     vdW  Elec       q    Type
REMARK                         _______ _______ _______ _____ _____    ______ ____
ROOT
ATOM      1  C   UNL     1       4.338   5.614  -3.249  0.00  0.00    +0.072 C 
ENDROOT
BRANCH   1   2
ATOM      2  N   UNL     1       3.199   5.776  -4.151  0.00  0.00    -0.270 NA
ATOM      3  C   UNL     1       3.456   6.963  -4.915  0.00  0.00    +0.094 C 
ATOM      4  C   UNL     1       2.715   7.043  -6.212  0.00  0.00    +0.108 C 
ATOM      5  N   UNL     1       2.636   5.779  -6.911  0.00  0.00    -0.305 N 
ATOM      6  C   UNL     1       2.193   4.649  -6.097  0.00  0.00    +0.108 C 
ATOM      7  C   UNL     1       3.138   4.569  -4.933  0.00  0.00    +0.094 C 
BRANCH   5   8
ATOM      8  C   UNL     1       3.496   5.439  -8.004  0.00  0.00    +0.048 A 
ATOM      9  C   UNL     1       3.062   5.474  -9.326  0.00  0.00    +0.020 A 
ATOM     10  C   UNL     1       4.022   5.536 -10.330  0.00  0.00    +0.031 A 
ATOM     11  S   UNL     1       3.046   5.945 -11.683  0.00  0.00    -0.086 S 
ATOM     12  C   UNL     1       1.498   5.748 -10.968  0.00  0.00    +0.035 A 
ATOM     13  C   UNL     1       5.377   5.575 -10.019  0.00  0.00    +0.007 A 
ATOM     14  C   UNL     1       5.819   5.404  -8.713  0.00  0.00    +0.002 A 
ATOM     15  C   UNL     1       1.853   5.062  -9.811  0.00  0.00    +0.009 A 
ATOM     16  C   UNL     1       4.839   5.407  -7.745  0.00  0.00    +0.015 A 
ENDBRANCH   5   8
ENDBRANCH   1   2
BRANCH   1  17
ATOM     17  C   UNL     1       3.967   4.914  -1.974  0.00  0.00    +0.021 C 
BRANCH  17  18
ATOM     18  C   UNL     1       4.082   5.884  -0.832  0.00  0.00    +0.049 C 
BRANCH  18  19
ATOM     19  C   UNL     1       2.732   6.556  -0.631  0.00  0.00    +0.205 C 
BRANCH  19  20
ATOM     20  O   UNL     1       1.763   5.526  -0.498  0.00  0.00    -0.475 OA
BRANCH  20  28
ATOM     21  O   UNL     1      -1.615   6.009  -6.406  0.00  0.00    -0.265 OA
ATOM     22  C   UNL     1      -1.369   6.348  -5.217  0.00  0.00    +0.279 A 
ATOM     23  N   UNL     1      -0.888   5.401  -4.376  0.00  0.00    -0.208 NA
ATOM     24  C   UNL     1      -0.745   5.760  -3.081  0.00  0.00    +0.088 A 
ATOM     25  C   UNL     1      -1.562   6.743  -2.561  0.00  0.00    +0.018 A 
ATOM     26  C   UNL     1      -1.499   6.987  -1.198  0.00  0.00    +0.005 A 
ATOM     27  C   UNL     1      -0.445   6.536  -0.413  0.00  0.00    +0.037 A 
ATOM     28  C   UNL     1       0.462   5.648  -0.975  0.00  0.00    +0.140 A 
ATOM     29  C   UNL     1      -2.101   7.710  -3.391  0.00  0.00    +0.006 A 
ATOM     30  C   UNL     1       0.235   5.211  -2.273  0.00  0.00    +0.056 A 
ATOM     31  C   UNL     1      -1.945   7.513  -4.753  0.00  0.00    +0.063 A 
ENDBRANCH  20  28
ENDBRANCH  19  20
ENDBRANCH  18  19
ENDBRANCH  17  18
ENDBRANCH   1  17
TORSDOF 7
ENDMDL
MODEL 2
REMARK VINA RESULT:      -8.9      1.878      2.892
REMARK  Name = 
REMARK  7 active torsions:
REMARK  status: ('A' for Active; 'I' for Inactive)
REMARK    1  A    between atoms: C_8  and  O_9
REMARK    2  A    between atoms: O_9  and  C_10
REMARK    3  A    between atoms: C_10  and  C_11
REMARK    4  A    between atoms: C_11  and  C_12
REMARK    5  A    between atoms: C_12  and  C_13
REMARK    6  A    between atoms: C_13  and  N_14
REMARK    7  A    between atoms: N_17  and  C_18
REMARK                            x       y       z     vdW  Elec       q    Type
REMARK                         _______ _______ _______ _____ _____    ______ ____
ROOT
ATOM      1  C   UNL     1       3.299   7.021  -6.269  0.00  0.00    +0.072 C 
ENDROOT
BRANCH   1   2
ATOM      2  N   UNL     1       2.895   6.233  -7.432  0.00  0.00    -0.270 NA
ATOM      3  C   UNL     1       2.877   7.140  -8.545  0.00  0.00    +0.094 C 
ATOM      4  C   UNL     1       2.996   6.485  -9.885  0.00  0.00    +0.108 C 
ATOM      5  N   UNL     1       3.934   5.385  -9.910  0.00  0.00    -0.305 N 
ATOM      6  C   UNL     1       3.768   4.407  -8.836  0.00  0.00    +0.108 C 
ATOM      7  C   UNL     1       3.860   5.172  -7.548  0.00  0.00    +0.094 C 
BRANCH   5   8
ATOM      8  C   UNL     1       5.267   5.509 -10.416  0.00  0.00    +0.048 A 
ATOM      9  C   UNL     1       5.530   5.714 -11.767  0.00  0.00    +0.020 A 
ATOM     10  C   UNL     1       6.774   6.225 -12.123  0.00  0.00    +0.031 A 
ATOM     11  S   UNL     1       6.487   6.656 -13.761  0.00  0.00    -0.086 S 
ATOM     12  C   UNL     1       4.943   5.932 -13.964  0.00  0.00    +0.035 A 
ATOM     13  C   UNL     1       7.722   6.534 -11.154  0.00  0.00    +0.007 A 
ATOM     14  C   UNL     1       7.517   6.205  -9.819  0.00  0.00    +0.002 A 
ATOM     15  C   UNL     1       4.904   5.127 -12.830  0.00  0.00    +0.009 A 
ATOM     16  C   UNL     1       6.253   5.758  -9.500  0.00  0.00    +0.015 A 
ENDBRANCH   5   8
ENDBRANCH   1   2
BRANCH   1  17
ATOM     17  C   UNL     1       4.466   6.416  -5.543  0.00  0.00    +0.021 C 
BRANCH  17  18
ATOM     18  C   UNL     1       4.739   7.219  -4.302  0.00  0.00    +0.049 C 
BRANCH  18  19
ATOM     19  C   UNL     1       3.434   7.385  -3.538  0.00  0.00    +0.205 C 
BRANCH  19  20
ATOM     20  O   UNL     1       3.144   6.137  -2.923  0.00  0.00    -0.475 OA
BRANCH  20  28
ATOM     21  O   UNL     1      -2.658   5.966  -6.510  0.00  0.00    -0.265 OA
ATOM     22  C   UNL     1      -1.993   6.108  -5.449  0.00  0.00    +0.279 A 
ATOM     23  N   UNL     1      -0.825   5.430  -5.338  0.00  0.00    -0.208 NA
ATOM     24  C   UNL     1      -0.191   5.507  -4.148  0.00  0.00    +0.088 A 
ATOM     25  C   UNL     1      -0.933   5.725  -3.004  0.00  0.00    +0.018 A 
ATOM     26  C   UNL     1      -0.281   5.650  -1.783  0.00  0.00    +0.005 A 
ATOM     27  C   UNL     1       1.103   5.699  -1.678  0.00  0.00    +0.037 A 
ATOM     28  C   UNL     1       1.855   5.618  -2.843  0.00  0.00    +0.140 A 
ATOM     29  C   UNL     1      -2.147   6.384  -3.077  0.00  0.00    +0.006 A 
ATOM     30  C   UNL     1       1.186   5.432  -4.044  0.00  0.00    +0.056 A 
ATOM     31  C   UNL     1      -2.648   6.617  -4.347  0.00  0.00    +0.063 A 
ENDBRANCH  20  28
ENDBRANCH  19  20
ENDBRANCH  18  19
ENDBRANCH  17  18
ENDBRANCH   1  17
TORSDOF 7
ENDMDL
MODEL 3
REMARK VINA RESULT:      -8.5      3.686      9.078
REMARK  Name = 
REMARK  7 active torsions:
REMARK  status: ('A' for Active; 'I' for Inactive)
REMARK    1  A    between atoms: C_8  and  O_9
REMARK    2  A    between atoms: O_9  and  C_10
REMARK    3  A    between atoms: C_10  and  C_11
REMARK    4  A    between atoms: C_11  and  C_12
REMARK    5  A    between atoms: C_12  and  C_13
REMARK    6  A    between atoms: C_13  and  N_14
REMARK    7  A    between atoms: N_17  and  C_18
REMARK                            x       y       z     vdW  Elec       q    Type
REMARK                         _______ _______ _______ _____ _____    ______ ____
ROOT
ATOM      1  C   UNL     1       0.870   5.965  -9.009  0.00  0.00    +0.072 C 
ENDROOT
BRANCH   1   2
ATOM      2  N   UNL     1       0.765   5.097  -7.837  0.00  0.00    -0.270 NA
ATOM      3  C   UNL     1       2.063   4.512  -7.653  0.00  0.00    +0.094 C 
ATOM      4  C   UNL     1       2.332   4.014  -6.268  0.00  0.00    +0.108 C 
ATOM      5  N   UNL     1       1.816   4.881  -5.231  0.00  0.00    -0.305 N 
ATOM      6  C   UNL     1       0.423   5.290  -5.405  0.00  0.00    +0.108 C 
ATOM      7  C   UNL     1       0.338   5.943  -6.754  0.00  0.00    +0.094 C 
BRANCH   5   8
ATOM      8  C   UNL     1       2.635   5.809  -4.513  0.00  0.00    +0.048 A 
ATOM      9  C   UNL     1       2.784   5.749  -3.130  0.00  0.00    +0.020 A 
ATOM     10  C   UNL     1       3.878   6.391  -2.560  0.00  0.00    +0.031 A 
ATOM     11  S   UNL     1       3.848   5.729  -0.975  0.00  0.00    -0.086 S 
ATOM     12  C   UNL     1       2.337   4.917  -1.050  0.00  0.00    +0.035 A 
ATOM     13  C   UNL     1       4.804   7.061  -3.352  0.00  0.00    +0.007 A 
ATOM     14  C   UNL     1       4.588   7.239  -4.713  0.00  0.00    +0.002 A 
ATOM     15  C   UNL     1       1.813   5.491  -2.204  0.00  0.00    +0.009 A 
ATOM     16  C   UNL     1       3.528   6.540  -5.248  0.00  0.00    +0.015 A 
ENDBRANCH   5   8
ENDBRANCH   1   2
BRANCH   1  17
ATOM     17  C   UNL     1      -0.041   5.537 -10.123  0.00  0.00    +0.021 C 
BRANCH  17  18
ATOM     18  C   UNL     1      -0.074   6.618 -11.168  0.00  0.00    +0.049 C 
BRANCH  18  19
ATOM     19  C   UNL     1       0.591   6.088 -12.430  0.00  0.00    +0.205 C 
BRANCH  19  20
ATOM     20  O   UNL     1       1.895   6.649 -12.487  0.00  0.00    -0.475 OA
BRANCH  20  28
ATOM     21  O   UNL     1       7.868   5.979  -9.258  0.00  0.00    -0.265 OA
ATOM     22  C   UNL     1       7.145   6.051 -10.289  0.00  0.00    +0.279 A 
ATOM     23  N   UNL     1       5.865   5.616 -10.195  0.00  0.00    -0.208 NA
ATOM     24  C   UNL     1       5.149   5.595 -11.341  0.00  0.00    +0.088 A 
ATOM     25  C   UNL     1       5.809   5.435 -12.543  0.00  0.00    +0.018 A 
ATOM     26  C   UNL     1       5.043   5.265 -13.686  0.00  0.00    +0.005 A 
ATOM     27  C   UNL     1       3.690   5.575 -13.724  0.00  0.00    +0.037 A 
ATOM     28  C   UNL     1       3.048   5.872 -12.529  0.00  0.00    +0.140 A 
ATOM     29  C   UNL     1       7.127   5.834 -12.672  0.00  0.00    +0.006 A 
ATOM     30  C   UNL     1       3.779   5.784 -11.352  0.00  0.00    +0.056 A 
ATOM     31  C   UNL     1       7.780   6.196 -11.505  0.00  0.00    +0.063 A 
ENDBRANCH  20  28
ENDBRANCH  19  20
ENDBRANCH  18  19
ENDBRANCH  17  18
ENDBRANCH   1  17
TORSDOF 7
ENDMDL
MODEL 4
REMARK VINA RESULT:      -8.5      1.252      1.540
REMARK  Name = 
REMARK  7 active torsions:
REMARK  status: ('A' for Active; 'I' for Inactive)
REMARK    1  A    between atoms: C_8  and  O_9
REMARK    2  A    between atoms: O_9  and  C_10
REMARK    3  A    between atoms: C_10  and  C_11
REMARK    4  A    between atoms: C_11  and  C_12
REMARK    5  A    between atoms: C_12  and  C_13
REMARK    6  A    between atoms: C_13  and  N_14
REMARK    7  A    between atoms: N_17  and  C_18
REMARK                            x       y       z     vdW  Elec       q    Type
REMARK                         _______ _______ _______ _____ _____    ______ ____
ROOT
ATOM      1  C   UNL     1       2.529   6.605  -3.930  0.00  0.00    +0.072 C 
ENDROOT
BRANCH   1   2
ATOM      2  N   UNL     1       1.706   5.692  -4.722  0.00  0.00    -0.270 NA
ATOM      3  C   UNL     1       0.977   6.510  -5.649  0.00  0.00    +0.094 C 
ATOM      4  C   UNL     1       0.482   5.787  -6.862  0.00  0.00    +0.108 C 
ATOM      5  N   UNL     1       1.426   4.826  -7.388  0.00  0.00    -0.305 N 
ATOM      6  C   UNL     1       1.991   3.910  -6.398  0.00  0.00    +0.108 C 
ATOM      7  C   UNL     1       2.620   4.767  -5.338  0.00  0.00    +0.094 C 
BRANCH   5   8
ATOM      8  C   UNL     1       2.267   5.097  -8.514  0.00  0.00    +0.048 A 
ATOM      9  C   UNL     1       1.752   5.305  -9.790  0.00  0.00    +0.020 A 
ATOM     10  C   UNL     1       2.555   5.951 -10.724  0.00  0.00    +0.031 A 
ATOM     11  S   UNL     1       1.401   6.313 -11.944  0.00  0.00    -0.086 S 
ATOM     12  C   UNL     1       0.074   5.409 -11.336  0.00  0.00    +0.035 A 
ATOM     13  C   UNL     1       3.832   6.388 -10.386  0.00  0.00    +0.007 A 
ATOM     14  C   UNL     1       4.400   6.063  -9.160  0.00  0.00    +0.002 A 
ATOM     15  C   UNL     1       0.729   4.627 -10.390  0.00  0.00    +0.009 A 
ATOM     16  C   UNL     1       3.554   5.477  -8.245  0.00  0.00    +0.015 A 
ENDBRANCH   5   8
ENDBRANCH   1   2
BRANCH   1  17
ATOM     17  C   UNL     1       3.852   6.005  -3.553  0.00  0.00    +0.021 C 
BRANCH  17  18
ATOM     18  C   UNL     1       3.997   6.043  -2.057  0.00  0.00    +0.049 C 
BRANCH  18  19
ATOM     19  C   UNL     1       3.042   5.023  -1.454  0.00  0.00    +0.205 C 
BRANCH  19  20
ATOM     20  O   UNL     1       2.331   5.675  -0.412  0.00  0.00    -0.475 OA
BRANCH  20  28
ATOM     21  O   UNL     1      -2.896   5.192  -4.771  0.00  0.00    -0.265 OA
ATOM     22  C   UNL     1      -2.217   5.779  -3.886  0.00  0.00    +0.279 A 
ATOM     23  N   UNL     1      -1.536   5.014  -2.999  0.00  0.00    -0.208 NA
ATOM     24  C   UNL     1      -0.912   5.664  -1.993  0.00  0.00    +0.088 A 
ATOM     25  C   UNL     1      -1.416   6.874  -1.561  0.00  0.00    +0.018 A 
ATOM     26  C   UNL     1      -0.851   7.447  -0.432  0.00  0.00    +0.005 A 
ATOM     27  C   UNL     1       0.378   7.039   0.070  0.00  0.00    +0.037 A 
ATOM     28  C   UNL     1       0.957   5.893  -0.458  0.00  0.00    +0.140 A 
ATOM     29  C   UNL     1      -2.146   7.672  -2.423  0.00  0.00    +0.006 A 
ATOM     30  C   UNL     1       0.249   5.182  -1.417  0.00  0.00    +0.056 A 
ATOM     31  C   UNL     1      -2.503   7.106  -3.636  0.00  0.00    +0.063 A 
ENDBRANCH  20  28
ENDBRANCH  19  20
ENDBRANCH  18  19
ENDBRANCH  17  18
ENDBRANCH   1  17
TORSDOF 7
ENDMDL
MODEL 5
REMARK VINA RESULT:      -8.5      3.669      9.461
REMARK  Name = 
REMARK  7 active torsions:
REMARK  status: ('A' for Active; 'I' for Inactive)
REMARK    1  A    between atoms: C_8  and  O_9
REMARK    2  A    between atoms: O_9  and  C_10
REMARK    3  A    between atoms: C_10  and  C_11
REMARK    4  A    between atoms: C_11  and  C_12
REMARK    5  A    between atoms: C_12  and  C_13
REMARK    6  A    between atoms: C_13  and  N_14
REMARK    7  A    between atoms: N_17  and  C_18
REMARK                            x       y       z     vdW  Elec       q    Type
REMARK                         _______ _______ _______ _____ _____    ______ ____
ROOT
ATOM      1  C   UNL     1       1.002   6.176 -10.806  0.00  0.00    +0.072 C 
ENDROOT
BRANCH   1   2
ATOM      2  N   UNL     1       2.214   5.805 -10.078  0.00  0.00    -0.270 NA
ATOM      3  C   UNL     1       2.480   6.881  -9.166  0.00  0.00    +0.094 C 
ATOM      4  C   UNL     1       3.335   6.510  -7.996  0.00  0.00    +0.108 C 
ATOM      5  N   UNL     1       3.034   5.205  -7.450  0.00  0.00    -0.305 N 
ATOM      6  C   UNL     1       2.955   4.127  -8.434  0.00  0.00    +0.108 C 
ATOM      7  C   UNL     1       1.925   4.547  -9.442  0.00  0.00    +0.094 C 
BRANCH   5   8
ATOM      8  C   UNL     1       2.232   5.017  -6.279  0.00  0.00    +0.048 A 
ATOM      9  C   UNL     1       2.767   5.087  -4.997  0.00  0.00    +0.020 A 
ATOM     10  C   UNL     1       1.897   5.303  -3.934  0.00  0.00    +0.031 A 
ATOM     11  S   UNL     1       3.007   5.694  -2.683  0.00  0.00    -0.086 S 
ATOM     12  C   UNL     1       4.471   5.303  -3.491  0.00  0.00    +0.035 A 
ATOM     13  C   UNL     1       0.532   5.457  -4.150  0.00  0.00    +0.007 A 
ATOM     14  C   UNL     1      -0.023   5.253  -5.408  0.00  0.00    +0.002 A 
ATOM     15  C   UNL     1       3.966   4.588  -4.571  0.00  0.00    +0.009 A 
ATOM     16  C   UNL     1       0.876   5.101  -6.441  0.00  0.00    +0.015 A 
ENDBRANCH   5   8
ENDBRANCH   1   2
BRANCH   1  17
ATOM     17  C   UNL     1       0.653   5.189 -11.881  0.00  0.00    +0.021 C 
BRANCH  17  18
ATOM     18  C   UNL     1       0.790   5.857 -13.221  0.00  0.00    +0.049 C 
BRANCH  18  19
ATOM     19  C   UNL     1       1.719   5.017 -14.086  0.00  0.00    +0.205 C 
BRANCH  19  20
ATOM     20  O   UNL     1       2.735   5.881 -14.576  0.00  0.00    -0.475 OA
BRANCH  20  28
ATOM     21  O   UNL     1       6.603   5.706  -8.957  0.00  0.00    -0.265 OA
ATOM     22  C   UNL     1       6.330   6.091 -10.126  0.00  0.00    +0.279 A 
ATOM     23  N   UNL     1       5.619   5.252 -10.919  0.00  0.00    -0.208 NA
ATOM     24  C   UNL     1       5.441   5.638 -12.201  0.00  0.00    +0.088 A 
ATOM     25  C   UNL     1       6.380   6.458 -12.793  0.00  0.00    +0.018 A 
ATOM     26  C   UNL     1       6.254   6.717 -14.149  0.00  0.00    +0.005 A 
ATOM     27  C   UNL     1       5.077   6.470 -14.844  0.00  0.00    +0.037 A 
ATOM     28  C   UNL     1       4.071   5.760 -14.204  0.00  0.00    +0.140 A 
ATOM     29  C   UNL     1       7.151   7.306 -12.017  0.00  0.00    +0.006 A 
ATOM     30  C   UNL     1       4.316   5.282 -12.924  0.00  0.00    +0.056 A 
ATOM     31  C   UNL     1       7.070   7.132 -10.646  0.00  0.00    +0.063 A 
ENDBRANCH  20  28
ENDBRANCH  19  20
ENDBRANCH  18  19
ENDBRANCH  17  18
ENDBRANCH   1  17
TORSDOF 7
ENDMDL
MODEL 6
REMARK VINA RESULT:      -8.5      1.686      3.065
REMARK  Name = 
REMARK  7 active torsions:
REMARK  status: ('A' for Active; 'I' for Inactive)
REMARK    1  A    between atoms: C_8  and  O_9
REMARK    2  A    between atoms: O_9  and  C_10
REMARK    3  A    between atoms: C_10  and  C_11
REMARK    4  A    between atoms: C_11  and  C_12
REMARK    5  A    between atoms: C_12  and  C_13
REMARK    6  A    between atoms: C_13  and  N_14
REMARK    7  A    between atoms: N_17  and  C_18
REMARK                            x       y       z     vdW  Elec       q    Type
REMARK                         _______ _______ _______ _____ _____    ______ ____
ROOT
ATOM      1  C   UNL     1       2.697   5.857  -5.375  0.00  0.00    +0.072 C 
ENDROOT
BRANCH   1   2
ATOM      2  N   UNL     1       3.329   5.109  -6.460  0.00  0.00    -0.270 NA
ATOM      3  C   UNL     1       2.289   4.333  -7.072  0.00  0.00    +0.094 C 
ATOM      4  C   UNL     1       2.575   3.902  -8.476  0.00  0.00    +0.108 C 
ATOM      5  N   UNL     1       3.232   4.918  -9.269  0.00  0.00    -0.305 N 
ATOM      6  C   UNL     1       4.397   5.537  -8.639  0.00  0.00    +0.108 C 
ATOM      7  C   UNL     1       3.923   6.092  -7.327  0.00  0.00    +0.094 C 
BRANCH   5   8
ATOM      8  C   UNL     1       2.535   5.748 -10.203  0.00  0.00    +0.048 A 
ATOM      9  C   UNL     1       2.863   5.780 -11.555  0.00  0.00    +0.020 A 
ATOM     10  C   UNL     1       1.917   6.270 -12.449  0.00  0.00    +0.031 A 
ATOM     11  S   UNL     1       2.591   5.759 -13.943  0.00  0.00    -0.086 S 
ATOM     12  C   UNL     1       4.119   5.214 -13.378  0.00  0.00    +0.035 A 
ATOM     13  C   UNL     1       0.673   6.704 -12.003  0.00  0.00    +0.007 A 
ATOM     14  C   UNL     1       0.391   6.802 -10.646  0.00  0.00    +0.002 A 
ATOM     15  C   UNL     1       4.115   5.771 -12.103  0.00  0.00    +0.009 A 
ATOM     16  C   UNL     1       1.328   6.252  -9.799  0.00  0.00    +0.015 A 
ENDBRANCH   5   8
ENDBRANCH   1   2
BRANCH   1  17
ATOM     17  C   UNL     1       3.638   6.830  -4.725  0.00  0.00    +0.021 C 
BRANCH  17  18
ATOM     18  C   UNL     1       4.552   6.080  -3.796  0.00  0.00    +0.049 C 
BRANCH  18  19
ATOM     19  C   UNL     1       3.701   5.341  -2.775  0.00  0.00    +0.205 C 
BRANCH  19  20
ATOM     20  O   UNL     1       3.158   6.314  -1.893  0.00  0.00    -0.475 OA
BRANCH  20  28
ATOM     21  O   UNL     1      -3.413   5.006  -3.187  0.00  0.00    -0.265 OA
ATOM     22  C   UNL     1      -2.480   5.625  -2.608  0.00  0.00    +0.279 A 
ATOM     23  N   UNL     1      -1.315   4.963  -2.402  0.00  0.00    -0.208 NA
ATOM     24  C   UNL     1      -0.374   5.608  -1.677  0.00  0.00    +0.088 A 
ATOM     25  C   UNL     1      -0.769   6.544  -0.743  0.00  0.00    +0.018 A 
ATOM     26  C   UNL     1       0.201   7.079   0.090  0.00  0.00    +0.005 A 
ATOM     27  C   UNL     1       1.557   6.972  -0.188  0.00  0.00    +0.037 A 
ATOM     28  C   UNL     1       1.954   6.132  -1.220  0.00  0.00    +0.140 A 
ATOM     29  C   UNL     1      -1.967   7.218  -0.898  0.00  0.00    +0.006 A 
ATOM     30  C   UNL     1       0.978   5.399  -1.881  0.00  0.00    +0.056 A 
ATOM     31  C   UNL     1      -2.809   6.760  -1.897  0.00  0.00    +0.063 A 
ENDBRANCH  20  28
ENDBRANCH  19  20
ENDBRANCH  18  19
ENDBRANCH  17  18
ENDBRANCH   1  17
TORSDOF 7
ENDMDL
MODEL 7
REMARK VINA RESULT:      -8.4      1.109      2.159
REMARK  Name = 
REMARK  7 active torsions:
REMARK  status: ('A' for Active; 'I' for Inactive)
REMARK    1  A    between atoms: C_8  and  O_9
REMARK    2  A    between atoms: O_9  and  C_10
REMARK    3  A    between atoms: C_10  and  C_11
REMARK    4  A    between atoms: C_11  and  C_12
REMARK    5  A    between atoms: C_12  and  C_13
REMARK    6  A    between atoms: C_13  and  N_14
REMARK    7  A    between atoms: N_17  and  C_18
REMARK                            x       y       z     vdW  Elec       q    Type
REMARK                         _______ _______ _______ _____ _____    ______ ____
ROOT
ATOM      1  C   UNL     1       3.794   4.828  -4.629  0.00  0.00    +0.072 C 
ENDROOT
BRANCH   1   2
ATOM      2  N   UNL     1       2.386   5.069  -4.941  0.00  0.00    -0.270 NA
ATOM      3  C   UNL     1       2.280   6.462  -5.271  0.00  0.00    +0.094 C 
ATOM      4  C   UNL     1       1.085   6.818  -6.097  0.00  0.00    +0.108 C 
ATOM      5  N   UNL     1       0.778   5.844  -7.121  0.00  0.00    -0.305 N 
ATOM      6  C   UNL     1       0.731   4.457  -6.660  0.00  0.00    +0.108 C 
ATOM      7  C   UNL     1       2.061   4.177  -6.023  0.00  0.00    +0.094 C 
BRANCH   5   8
ATOM      8  C   UNL     1       1.146   6.015  -8.493  0.00  0.00    +0.048 A 
ATOM      9  C   UNL     1       2.461   5.883  -8.930  0.00  0.00    +0.020 A 
ATOM     10  C   UNL     1       2.683   5.656 -10.284  0.00  0.00    +0.031 A 
ATOM     11  S   UNL     1       4.335   5.188 -10.265  0.00  0.00    -0.086 S 
ATOM     12  C   UNL     1       4.702   5.562  -8.629  0.00  0.00    +0.035 A 
ATOM     13  C   UNL     1       1.619   5.552 -11.173  0.00  0.00    +0.007 A 
ATOM     14  C   UNL     1       0.316   5.818 -10.768  0.00  0.00    +0.002 A 
ATOM     15  C   UNL     1       3.590   6.330  -8.303  0.00  0.00    +0.009 A 
ATOM     16  C   UNL     1       0.132   5.978  -9.412  0.00  0.00    +0.015 A 
ENDBRANCH   5   8
ENDBRANCH   1   2
BRANCH   1  17
ATOM     17  C   UNL     1       4.329   5.791  -3.610  0.00  0.00    +0.021 C 
BRANCH  17  18
ATOM     18  C   UNL     1       4.069   5.243  -2.234  0.00  0.00    +0.049 C 
BRANCH  18  19
ATOM     19  C   UNL     1       3.308   6.289  -1.434  0.00  0.00    +0.205 C 
BRANCH  19  20
ATOM     20  O   UNL     1       2.411   5.596  -0.577  0.00  0.00    -0.475 OA
BRANCH  20  28
ATOM     21  O   UNL     1      -2.392   5.790  -5.419  0.00  0.00    -0.265 OA
ATOM     22  C   UNL     1      -1.854   6.182  -4.348  0.00  0.00    +0.279 A 
ATOM     23  N   UNL     1      -1.150   5.277  -3.625  0.00  0.00    -0.208 NA
ATOM     24  C   UNL     1      -0.684   5.691  -2.427  0.00  0.00    +0.088 A 
ATOM     25  C   UNL     1      -1.361   6.686  -1.750  0.00  0.00    +0.018 A 
ATOM     26  C   UNL     1      -0.952   6.987  -0.460  0.00  0.00    +0.005 A 
ATOM     27  C   UNL     1       0.278   6.583   0.040  0.00  0.00    +0.037 A 
ATOM     28  C   UNL     1       1.029   5.682  -0.704  0.00  0.00    +0.140 A 
ATOM     29  C   UNL     1      -2.118   7.610  -2.446  0.00  0.00    +0.006 A 
ATOM     30  C   UNL     1       0.483   5.189  -1.881  0.00  0.00    +0.056 A 
ATOM     31  C   UNL     1      -2.316   7.357  -3.794  0.00  0.00    +0.063 A 
ENDBRANCH  20  28
ENDBRANCH  19  20
ENDBRANCH  18  19
ENDBRANCH  17  18
ENDBRANCH   1  17
TORSDOF 7
ENDMDL
MODEL 8
REMARK VINA RESULT:      -8.2      2.202      4.590
REMARK  Name = 
REMARK  7 active torsions:
REMARK  status: ('A' for Active; 'I' for Inactive)
REMARK    1  A    between atoms: C_8  and  O_9
REMARK    2  A    between atoms: O_9  and  C_10
REMARK    3  A    between atoms: C_10  and  C_11
REMARK    4  A    between atoms: C_11  and  C_12
REMARK    5  A    between atoms: C_12  and  C_13
REMARK    6  A    between atoms: C_13  and  N_14
REMARK    7  A    between atoms: N_17  and  C_18
REMARK                            x       y       z     vdW  Elec       q    Type
REMARK                         _______ _______ _______ _____ _____    ______ ____
ROOT
ATOM      1  C   UNL     1       1.971   4.724  -6.799  0.00  0.00    +0.072 C 
ENDROOT
BRANCH   1   2
ATOM      2  N   UNL     1       1.956   5.455  -8.066  0.00  0.00    -0.270 NA
ATOM      3  C   UNL     1       2.842   6.571  -7.895  0.00  0.00    +0.094 C 
ATOM      4  C   UNL     1       3.373   7.146  -9.171  0.00  0.00    +0.108 C 
ATOM      5  N   UNL     1       3.710   6.146 -10.159  0.00  0.00    -0.305 N 
ATOM      6  C   UNL     1       2.675   5.142 -10.401  0.00  0.00    +0.108 C 
ATOM      7  C   UNL     1       2.375   4.514  -9.071  0.00  0.00    +0.094 C 
BRANCH   5   8
ATOM      8  C   UNL     1       5.051   5.703 -10.393  0.00  0.00    +0.048 A 
ATOM      9  C   UNL     1       5.590   5.614 -11.672  0.00  0.00    +0.020 A 
ATOM     10  C   UNL     1       6.974   5.579 -11.800  0.00  0.00    +0.031 A 
ATOM     11  S   UNL     1       7.149   5.863 -13.485  0.00  0.00    -0.086 S 
ATOM     12  C   UNL     1       5.501   5.738 -13.952  0.00  0.00    +0.035 A 
ATOM     13  C   UNL     1       7.795   5.643 -10.680  0.00  0.00    +0.007 A 
ATOM     14  C   UNL     1       7.264   5.594  -9.397  0.00  0.00    +0.002 A 
ATOM     15  C   UNL     1       4.969   5.162 -12.802  0.00  0.00    +0.009 A 
ATOM     16  C   UNL     1       5.892   5.690  -9.313  0.00  0.00    +0.015 A 
ENDBRANCH   5   8
ENDBRANCH   1   2
BRANCH   1  17
ATOM     17  C   UNL     1       0.611   4.224  -6.409  0.00  0.00    +0.021 C 
BRANCH  17  18
ATOM     18  C   UNL     1      -0.424   5.210  -6.875  0.00  0.00    +0.049 C 
BRANCH  18  19
ATOM     19  C   UNL     1      -1.417   5.437  -5.745  0.00  0.00    +0.205 C 
BRANCH  19  20
ATOM     20  O   UNL     1      -0.988   6.587  -5.030  0.00  0.00    -0.475 OA
BRANCH  20  28
ATOM     21  O   UNL     1       5.774   7.208  -4.356  0.00  0.00    -0.265 OA
ATOM     22  C   UNL     1       4.666   6.648  -4.137  0.00  0.00    +0.279 A 
ATOM     23  N   UNL     1       3.552   7.421  -4.149  0.00  0.00    -0.208 NA
ATOM     24  C   UNL     1       2.395   6.819  -3.797  0.00  0.00    +0.088 A 
ATOM     25  C   UNL     1       2.433   5.740  -2.937  0.00  0.00    +0.018 A 
ATOM     26  C   UNL     1       1.228   5.237  -2.473  0.00  0.00    +0.005 A 
ATOM     27  C   UNL     1       0.015   5.544  -3.078  0.00  0.00    +0.037 A 
ATOM     28  C   UNL     1      -0.005   6.539  -4.045  0.00  0.00    +0.140 A 
ATOM     29  C   UNL     1       3.563   4.945  -2.868  0.00  0.00    +0.006 A 
ATOM     30  C   UNL     1       1.175   7.216  -4.315  0.00  0.00    +0.056 A 
ATOM     31  C   UNL     1       4.685   5.406  -3.536  0.00  0.00    +0.063 A 
ENDBRANCH  20  28
ENDBRANCH  19  20
ENDBRANCH  18  19
ENDBRANCH  17  18
ENDBRANCH   1  17
TORSDOF 7
ENDMDL
MODEL 9
REMARK VINA RESULT:      -8.1      3.347      9.041
REMARK  Name = 
REMARK  7 active torsions:
REMARK  status: ('A' for Active; 'I' for Inactive)
REMARK    1  A    between atoms: C_8  and  O_9
REMARK    2  A    between atoms: O_9  and  C_10
REMARK    3  A    between atoms: C_10  and  C_11
REMARK    4  A    between atoms: C_11  and  C_12
REMARK    5  A    between atoms: C_12  and  C_13
REMARK    6  A    between atoms: C_13  and  N_14
REMARK    7  A    between atoms: N_17  and  C_18
REMARK                            x       y       z     vdW  Elec       q    Type
REMARK                         _______ _______ _______ _____ _____    ______ ____
ROOT
ATOM      1  C   UNL     1       0.665   6.069  -8.710  0.00  0.00    +0.072 C 
ENDROOT
BRANCH   1   2
ATOM      2  N   UNL     1       1.750   5.819  -7.762  0.00  0.00    -0.270 NA
ATOM      3  C   UNL     1       1.988   7.063  -7.087  0.00  0.00    +0.094 C 
ATOM      4  C   UNL     1       2.668   6.932  -5.760  0.00  0.00    +0.108 C 
ATOM      5  N   UNL     1       2.204   5.805  -4.982  0.00  0.00    -0.305 N 
ATOM      6  C   UNL     1       2.160   4.533  -5.701  0.00  0.00    +0.108 C 
ATOM      7  C   UNL     1       1.292   4.758  -6.905  0.00  0.00    +0.094 C 
BRANCH   5   8
ATOM      8  C   UNL     1       1.258   5.932  -3.915  0.00  0.00    +0.048 A 
ATOM      9  C   UNL     1      -0.103   6.107  -4.150  0.00  0.00    +0.020 A 
ATOM     10  C   UNL     1      -0.989   5.816  -3.118  0.00  0.00    +0.031 A 
ATOM     11  S   UNL     1      -2.480   5.800  -3.969  0.00  0.00    -0.086 S 
ATOM     12  C   UNL     1      -1.936   6.415  -5.478  0.00  0.00    +0.035 A 
ATOM     13  C   UNL     1      -0.527   5.351  -1.891  0.00  0.00    +0.007 A 
ATOM     14  C   UNL     1       0.833   5.304  -1.607  0.00  0.00    +0.002 A 
ATOM     15  C   UNL     1      -0.684   6.893  -5.104  0.00  0.00    +0.009 A 
ATOM     16  C   UNL     1       1.675   5.542  -2.672  0.00  0.00    +0.015 A 
ENDBRANCH   5   8
ENDBRANCH   1   2
BRANCH   1  17
ATOM     17  C   UNL     1       0.571   5.008  -9.768  0.00  0.00    +0.021 C 
BRANCH  17  18
ATOM     18  C   UNL     1       0.161   5.647 -11.065  0.00  0.00    +0.049 C 
BRANCH  18  19
ATOM     19  C   UNL     1       1.195   6.701 -11.432  0.00  0.00    +0.205 C 
BRANCH  19  20
ATOM     20  O   UNL     1       1.811   6.286 -12.643  0.00  0.00    -0.475 OA
BRANCH  20  28
ATOM     21  O   UNL     1       7.683   6.192  -9.170  0.00  0.00    -0.265 OA
ATOM     22  C   UNL     1       7.000   6.246 -10.228  0.00  0.00    +0.279 A 
ATOM     23  N   UNL     1       5.792   5.632 -10.233  0.00  0.00    -0.208 NA
ATOM     24  C   UNL     1       5.133   5.605 -11.412  0.00  0.00    +0.088 A 
ATOM     25  C   UNL     1       5.856   5.636 -12.587  0.00  0.00    +0.018 A 
ATOM     26  C   UNL     1       5.170   5.454 -13.778  0.00  0.00    +0.005 A 
ATOM     27  C   UNL     1       3.789   5.576 -13.862  0.00  0.00    +0.037 A 
ATOM     28  C   UNL     1       3.064   5.683 -12.683  0.00  0.00    +0.140 A 
ATOM     29  C   UNL     1       7.109   6.223 -12.618  0.00  0.00    +0.006 A 
ATOM     30  C   UNL     1       3.751   5.602 -11.480  0.00  0.00    +0.056 A 
ATOM     31  C   UNL     1       7.656   6.576 -11.396  0.00  0.00    +0.063 A 
ENDBRANCH  20  28
ENDBRANCH  19  20
ENDBRANCH  18  19
ENDBRANCH  17  18
ENDBRANCH   1  17
TORSDOF 7
ENDMDL
