MODEL 1
REMARK VINA RESULT:      -6.3      0.000      0.000
REMARK  Name = 
REMARK  2 active torsions:
REMARK  status: ('A' for Active; 'I' for Inactive)
REMARK    1  A    between atoms: C_2  and  C_4
REMARK    2  A    between atoms: C_4  and  C_6
REMARK                            x       y       z     vdW  Elec       q    Type
REMARK                         _______ _______ _______ _____ _____    ______ ____
ROOT
ATOM      1  C   UNL     1      -1.178   5.458  -5.093  0.00  0.00    +0.013 A 
ATOM      2  C   UNL     1       0.183   5.193  -4.941  0.00  0.00    +0.044 A 
ATOM      3  C   UNL     1       0.962   4.759  -6.008  0.00  0.00    +0.234 A 
ATOM      4  O   UNL     1       2.173   4.144  -5.783  0.00  0.00    -0.283 OA
ATOM      5  C   UNL     1       0.622   5.345  -7.215  0.00  0.00    +0.234 A 
ATOM      6  O   UNL     1       1.469   5.188  -8.311  0.00  0.00    -0.283 OA
ATOM      7  C   UNL     1      -0.743   5.358  -7.486  0.00  0.00    +0.045 A 
ATOM      8  C   UNL     1      -1.539   5.670  -6.391  0.00  0.00    +0.002 A 
ENDROOT
BRANCH   1   9
ATOM      9  C   UNL     1      -1.712   6.522  -3.986  0.00  0.00    +0.192 C 
ATOM     10  O   UNL     1      -2.584   7.274  -4.987  0.00  0.00    -0.217 OA
BRANCH   9  12
ATOM     11  C   UNL     1      -3.753   6.561  -2.564  0.00  0.00    +0.024 C 
ATOM     12  C   UNL     1      -3.007   5.464  -3.524  0.00  0.00    +0.126 C 
ATOM     13  N   UNL     1      -2.208   4.899  -2.298  0.00  0.00    -0.130 NA
ENDBRANCH   9  12
ENDBRANCH   1   9
TORSDOF 2
ENDMDL
MODEL 2
REMARK VINA RESULT:      -6.1      7.014      9.646
REMARK  Name = 
REMARK  2 active torsions:
REMARK  status: ('A' for Active; 'I' for Inactive)
REMARK    1  A    between atoms: C_2  and  C_4
REMARK    2  A    between atoms: C_4  and  C_6
REMARK                            x       y       z     vdW  Elec       q    Type
REMARK                         _______ _______ _______ _____ _____    ______ ____
ROOT
ATOM      1  C   UNL     1       5.885   5.551 -10.482  0.00  0.00    +0.013 A 
ATOM      2  C   UNL     1       4.558   5.740 -10.872  0.00  0.00    +0.044 A 
ATOM      3  C   UNL     1       3.503   5.502  -9.997  0.00  0.00    +0.234 A 
ATOM      4  O   UNL     1       2.227   5.318 -10.479  0.00  0.00    -0.283 OA
ATOM      5  C   UNL     1       3.777   5.868  -8.691  0.00  0.00    +0.234 A 
ATOM      6  O   UNL     1       2.736   5.912  -7.765  0.00  0.00    -0.283 OA
ATOM      7  C   UNL     1       5.008   5.430  -8.214  0.00  0.00    +0.045 A 
ATOM      8  C   UNL     1       6.048   5.549  -9.128  0.00  0.00    +0.002 A 
ENDROOT
BRANCH   1   9
ATOM      9  C   UNL     1       6.906   6.464 -11.357  0.00  0.00    +0.192 C 
ATOM     10  O   UNL     1       7.715   6.898 -10.139  0.00  0.00    -0.217 OA
BRANCH   9  12
ATOM     11  C   UNL     1       9.144   5.984 -12.333  0.00  0.00    +0.024 C 
ATOM     12  C   UNL     1       7.937   5.103 -11.663  0.00  0.00    +0.126 C 
ATOM     13  N   UNL     1       7.306   4.848 -13.077  0.00  0.00    -0.130 NA
ENDBRANCH   9  12
ENDBRANCH   1   9
TORSDOF 2
ENDMDL
MODEL 3
REMARK VINA RESULT:      -5.7      2.838      4.805
REMARK  Name = 
REMARK  2 active torsions:
REMARK  status: ('A' for Active; 'I' for Inactive)
REMARK    1  A    between atoms: C_2  and  C_4
REMARK    2  A    between atoms: C_4  and  C_6
REMARK                            x       y       z     vdW  Elec       q    Type
REMARK                         _______ _______ _______ _____ _____    ______ ____
ROOT
ATOM      1  C   UNL     1       0.212   6.225  -5.162  0.00  0.00    +0.013 A 
ATOM      2  C   UNL     1       0.473   5.453  -4.029  0.00  0.00    +0.044 A 
ATOM      3  C   UNL     1      -0.459   5.331  -3.003  0.00  0.00    +0.234 A 
ATOM      4  O   UNL     1      -0.068   4.906  -1.753  0.00  0.00    -0.283 OA
ATOM      5  C   UNL     1      -1.767   5.271  -3.450  0.00  0.00    +0.234 A 
ATOM      6  O   UNL     1      -2.775   4.906  -2.559  0.00  0.00    -0.283 OA
ATOM      7  C   UNL     1      -2.099   6.236  -4.395  0.00  0.00    +0.045 A 
ATOM      8  C   UNL     1      -1.119   6.455  -5.355  0.00  0.00    +0.002 A 
ENDROOT
BRANCH   1   9
ATOM      9  C   UNL     1       1.077   5.725  -6.443  0.00  0.00    +0.192 C 
ATOM     10  O   UNL     1      -0.123   5.744  -7.385  0.00  0.00    -0.217 OA
BRANCH   9  12
ATOM     11  C   UNL     1       2.194   6.973  -8.283  0.00  0.00    +0.024 C 
ATOM     12  C   UNL     1       1.522   7.354  -6.840  0.00  0.00    +0.126 C 
ATOM     13  N   UNL     1       2.915   7.225  -6.131  0.00  0.00    -0.130 NA
ENDBRANCH   9  12
ENDBRANCH   1   9
TORSDOF 2
ENDMDL
MODEL 4
REMARK VINA RESULT:      -5.3      8.638     10.601
REMARK  Name = 
REMARK  2 active torsions:
REMARK  status: ('A' for Active; 'I' for Inactive)
REMARK    1  A    between atoms: C_2  and  C_4
REMARK    2  A    between atoms: C_4  and  C_6
REMARK                            x       y       z     vdW  Elec       q    Type
REMARK                         _______ _______ _______ _____ _____    ______ ____
ROOT
ATOM      1  C   UNL     1       5.516   5.990 -12.684  0.00  0.00    +0.013 A 
ATOM      2  C   UNL     1       4.371   5.639 -11.968  0.00  0.00    +0.044 A 
ATOM      3  C   UNL     1       3.100   5.777 -12.516  0.00  0.00    +0.234 A 
ATOM      4  O   UNL     1       1.989   5.801 -11.704  0.00  0.00    -0.283 OA
ATOM      5  C   UNL     1       3.047   5.478 -13.867  0.00  0.00    +0.234 A 
ATOM      6  O   UNL     1       1.806   5.338 -14.485  0.00  0.00    -0.283 OA
ATOM      7  C   UNL     1       4.053   6.066 -14.628  0.00  0.00    +0.045 A 
ATOM      8  C   UNL     1       5.307   6.044 -14.031  0.00  0.00    +0.002 A 
ENDROOT
BRANCH   1   9
ATOM      9  C   UNL     1       6.824   5.177 -12.164  0.00  0.00    +0.192 C 
ATOM     10  O   UNL     1       7.302   4.850 -13.574  0.00  0.00    -0.217 OA
BRANCH   9  12
ATOM     11  C   UNL     1       9.209   5.874 -12.037  0.00  0.00    +0.024 C 
ATOM     12  C   UNL     1       7.761   6.636 -12.093  0.00  0.00    +0.126 C 
ATOM     13  N   UNL     1       7.701   6.687 -10.526  0.00  0.00    -0.130 NA
ENDBRANCH   9  12
ENDBRANCH   1   9
TORSDOF 2
ENDMDL
MODEL 5
REMARK VINA RESULT:      -5.2      1.693      2.420
REMARK  Name = 
REMARK  2 active torsions:
REMARK  status: ('A' for Active; 'I' for Inactive)
REMARK    1  A    between atoms: C_2  and  C_4
REMARK    2  A    between atoms: C_4  and  C_6
REMARK                            x       y       z     vdW  Elec       q    Type
REMARK                         _______ _______ _______ _____ _____    ______ ____
ROOT
ATOM      1  C   UNL     1      -0.415   5.762  -4.659  0.00  0.00    +0.013 A 
ATOM      2  C   UNL     1      -0.652   5.511  -6.011  0.00  0.00    +0.044 A 
ATOM      3  C   UNL     1       0.384   5.204  -6.886  0.00  0.00    +0.234 A 
ATOM      4  O   UNL     1       0.211   5.336  -8.245  0.00  0.00    -0.283 OA
ATOM      5  C   UNL     1       1.369   4.414  -6.319  0.00  0.00    +0.234 A 
ATOM      6  O   UNL     1       2.334   3.835  -7.142  0.00  0.00    -0.283 OA
ATOM      7  C   UNL     1       1.801   4.840  -5.067  0.00  0.00    +0.045 A 
ATOM      8  C   UNL     1       0.781   5.267  -4.227  0.00  0.00    +0.002 A 
ENDROOT
BRANCH   1   9
ATOM      9  C   UNL     1      -1.725   5.451  -3.749  0.00  0.00    +0.192 C 
ATOM     10  O   UNL     1      -0.904   4.955  -2.563  0.00  0.00    -0.217 OA
BRANCH   9  12
ATOM     11  C   UNL     1      -3.034   6.843  -2.155  0.00  0.00    +0.024 C 
ATOM     12  C   UNL     1      -1.758   7.080  -3.153  0.00  0.00    +0.126 C 
ATOM     13  N   UNL     1      -2.714   7.559  -4.301  0.00  0.00    -0.130 NA
ENDBRANCH   9  12
ENDBRANCH   1   9
TORSDOF 2
ENDMDL
MODEL 6
REMARK VINA RESULT:      -5.2      5.464      7.390
REMARK  Name = 
REMARK  2 active torsions:
REMARK  status: ('A' for Active; 'I' for Inactive)
REMARK    1  A    between atoms: C_2  and  C_4
REMARK    2  A    between atoms: C_4  and  C_6
REMARK                            x       y       z     vdW  Elec       q    Type
REMARK                         _______ _______ _______ _____ _____    ______ ____
ROOT
ATOM      1  C   UNL     1       3.966   6.295  -3.168  0.00  0.00    +0.013 A 
ATOM      2  C   UNL     1       4.197   7.507  -2.516  0.00  0.00    +0.044 A 
ATOM      3  C   UNL     1       3.980   7.649  -1.149  0.00  0.00    +0.234 A 
ATOM      4  O   UNL     1       3.837   8.900  -0.593  0.00  0.00    -0.283 OA
ATOM      5  C   UNL     1       4.324   6.527  -0.416  0.00  0.00    +0.234 A 
ATOM      6  O   UNL     1       4.389   6.615   0.974  0.00  0.00    -0.283 OA
ATOM      7  C   UNL     1       3.847   5.328  -0.937  0.00  0.00    +0.045 A 
ATOM      8  C   UNL     1       3.945   5.227  -2.319  0.00  0.00    +0.002 A 
ENDROOT
BRANCH   1   9
ATOM      9  C   UNL     1       4.858   6.158  -4.519  0.00  0.00    +0.192 C 
ATOM     10  O   UNL     1       5.125   4.671  -4.309  0.00  0.00    -0.217 OA
BRANCH   9  12
ATOM     11  C   UNL     1       4.274   5.501  -6.847  0.00  0.00    +0.024 C 
ATOM     12  C   UNL     1       3.446   5.856  -5.480  0.00  0.00    +0.126 C 
ATOM     13  N   UNL     1       3.328   7.359  -5.913  0.00  0.00    -0.130 NA
ENDBRANCH   9  12
ENDBRANCH   1   9
TORSDOF 2
ENDMDL
MODEL 7
REMARK VINA RESULT:      -5.2      5.200      6.783
REMARK  Name = 
REMARK  2 active torsions:
REMARK  status: ('A' for Active; 'I' for Inactive)
REMARK    1  A    between atoms: C_2  and  C_4
REMARK    2  A    between atoms: C_4  and  C_6
REMARK                            x       y       z     vdW  Elec       q    Type
REMARK                         _______ _______ _______ _____ _____    ______ ____
ROOT
ATOM      1  C   UNL     1       4.195   5.870  -9.137  0.00  0.00    +0.013 A 
ATOM      2  C   UNL     1       5.511   5.583  -8.772  0.00  0.00    +0.044 A 
ATOM      3  C   UNL     1       6.567   5.765  -9.657  0.00  0.00    +0.234 A 
ATOM      4  O   UNL     1       7.774   5.138  -9.442  0.00  0.00    -0.283 OA
ATOM      5  C   UNL     1       6.425   6.881 -10.463  0.00  0.00    +0.234 A 
ATOM      6  O   UNL     1       7.512   7.318 -11.220  0.00  0.00    -0.283 OA
ATOM      7  C   UNL     1       5.171   7.012 -11.053  0.00  0.00    +0.045 A 
ATOM      8  C   UNL     1       4.110   6.710 -10.208  0.00  0.00    +0.002 A 
ENDROOT
BRANCH   1   9
ATOM      9  C   UNL     1       3.271   6.211  -7.845  0.00  0.00    +0.192 C 
ATOM     10  O   UNL     1       2.680   7.467  -8.477  0.00  0.00    -0.217 OA
BRANCH   9  12
ATOM     11  C   UNL     1       0.909   5.659  -7.290  0.00  0.00    +0.024 C 
ATOM     12  C   UNL     1       1.987   5.206  -8.436  0.00  0.00    +0.126 C 
ATOM     13  N   UNL     1       2.440   3.985  -7.562  0.00  0.00    -0.130 NA
ENDBRANCH   9  12
ENDBRANCH   1   9
TORSDOF 2
ENDMDL
MODEL 8
REMARK VINA RESULT:      -5.1      5.673      8.151
REMARK  Name = 
REMARK  2 active torsions:
REMARK  status: ('A' for Active; 'I' for Inactive)
REMARK    1  A    between atoms: C_2  and  C_4
REMARK    2  A    between atoms: C_4  and  C_6
REMARK                            x       y       z     vdW  Elec       q    Type
REMARK                         _______ _______ _______ _____ _____    ______ ____
ROOT
ATOM      1  C   UNL     1       4.622   5.830  -9.540  0.00  0.00    +0.013 A 
ATOM      2  C   UNL     1       4.022   4.658  -9.077  0.00  0.00    +0.044 A 
ATOM      3  C   UNL     1       2.843   4.688  -8.341  0.00  0.00    +0.234 A 
ATOM      4  O   UNL     1       2.470   3.605  -7.576  0.00  0.00    -0.283 OA
ATOM      5  C   UNL     1       1.953   5.660  -8.763  0.00  0.00    +0.234 A 
ATOM      6  O   UNL     1       0.646   5.643  -8.280  0.00  0.00    -0.283 OA
ATOM      7  C   UNL     1       2.521   6.915  -8.961  0.00  0.00    +0.045 A 
ATOM      8  C   UNL     1       3.762   6.887  -9.586  0.00  0.00    +0.002 A 
ENDROOT
BRANCH   1   9
ATOM      9  C   UNL     1       5.542   5.558 -10.851  0.00  0.00    +0.192 C 
ATOM     10  O   UNL     1       4.884   6.668 -11.664  0.00  0.00    -0.217 OA
BRANCH   9  12
ATOM     11  C   UNL     1       7.745   6.461 -11.575  0.00  0.00    +0.024 C 
ATOM     12  C   UNL     1       6.785   6.613 -10.257  0.00  0.00    +0.126 C 
ATOM     13  N   UNL     1       7.542   5.441  -9.541  0.00  0.00    -0.130 NA
ENDBRANCH   9  12
ENDBRANCH   1   9
TORSDOF 2
ENDMDL
MODEL 9
REMARK VINA RESULT:      -5.1      7.065      9.444
REMARK  Name = 
REMARK  2 active torsions:
REMARK  status: ('A' for Active; 'I' for Inactive)
REMARK    1  A    between atoms: C_2  and  C_4
REMARK    2  A    between atoms: C_4  and  C_6
REMARK                            x       y       z     vdW  Elec       q    Type
REMARK                         _______ _______ _______ _____ _____    ______ ____
ROOT
ATOM      1  C   UNL     1       5.018   6.274 -11.423  0.00  0.00    +0.013 A 
ATOM      2  C   UNL     1       4.571   6.397 -10.106  0.00  0.00    +0.044 A 
ATOM      3  C   UNL     1       3.231   6.627  -9.813  0.00  0.00    +0.234 A 
ATOM      4  O   UNL     1       2.862   7.121  -8.582  0.00  0.00    -0.283 OA
ATOM      5  C   UNL     1       2.359   5.961 -10.656  0.00  0.00    +0.234 A 
ATOM      6  O   UNL     1       1.005   5.906 -10.329  0.00  0.00    -0.283 OA
ATOM      7  C   UNL     1       2.663   6.075 -12.008  0.00  0.00    +0.045 A 
ATOM      8  C   UNL     1       4.018   5.970 -12.299  0.00  0.00    +0.002 A 
ENDROOT
BRANCH   1   9
ATOM      9  C   UNL     1       6.384   5.398 -11.515  0.00  0.00    +0.192 C 
ATOM     10  O   UNL     1       6.105   4.933 -12.941  0.00  0.00    -0.217 OA
BRANCH   9  12
ATOM     11  C   UNL     1       8.637   5.929 -12.427  0.00  0.00    +0.024 C 
ATOM     12  C   UNL     1       7.289   6.778 -12.052  0.00  0.00    +0.126 C 
ATOM     13  N   UNL     1       7.842   7.068 -10.613  0.00  0.00    -0.130 NA
ENDBRANCH   9  12
ENDBRANCH   1   9
TORSDOF 2
ENDMDL
