MODEL 1
REMARK VINA RESULT:      -7.6      0.000      0.000
REMARK  Name = 
REMARK  6 active torsions:
REMARK  status: ('A' for Active; 'I' for Inactive)
REMARK    1  A    between atoms: C_6  and  C_7
REMARK    2  A    between atoms: C_7  and  C_20
REMARK    3  A    between atoms: C_8  and  C_9
REMARK    4  A    between atoms: C_9  and  C_10
REMARK    5  A    between atoms: C_10  and  N_11
REMARK    6  A    between atoms: C_15  and  C_16
REMARK                            x       y       z     vdW  Elec       q    Type
REMARK                         _______ _______ _______ _____ _____    ______ ____
ROOT
ATOM      1  C   UNL     1       1.204   6.498  -5.996  0.00  0.00    +0.007 C 
ATOM      2  C   UNL     1       1.628   7.328  -6.915  0.00  0.00    -0.024 C 
ENDROOT
BRANCH   1   5
ATOM      3  C   UNL     1       2.383   3.643  -6.182  0.00  0.00    +0.032 C 
ATOM      4  C   UNL     1       2.771   4.618  -5.205  0.00  0.00    -0.015 A 
ATOM      5  C   UNL     1       2.227   5.895  -5.131  0.00  0.00    +0.026 A 
ATOM      6  S   UNL     1       2.896   6.456  -3.652  0.00  0.00    -0.087 S 
ATOM      7  C   UNL     1       4.024   5.189  -3.385  0.00  0.00    +0.035 A 
ATOM      8  C   UNL     1       4.044   4.608  -4.649  0.00  0.00    +0.003 A 
ENDBRANCH   1   5
BRANCH   1   9
ATOM      9  C   UNL     1      -0.205   6.569  -5.585  0.00  0.00    +0.026 A 
ATOM     10  C   UNL     1      -1.225   5.904  -6.255  0.00  0.00    -0.015 A 
ATOM     11  C   UNL     1      -1.004   4.930  -7.372  0.00  0.00    +0.032 C 
ATOM     12  C   UNL     1      -2.395   5.949  -5.549  0.00  0.00    +0.003 A 
ATOM     13  C   UNL     1      -2.684   7.241  -5.127  0.00  0.00    +0.035 A 
ATOM     14  S   UNL     1      -1.096   7.819  -4.819  0.00  0.00    -0.087 S 
ENDBRANCH   1   9
BRANCH   2  15
ATOM     15  C   UNL     1       1.595   7.090  -8.372  0.00  0.00    +0.043 C 
BRANCH  15  16
ATOM     16  C   UNL     1       3.023   7.288  -8.851  0.00  0.00    +0.077 C 
BRANCH  16  17
ATOM     17  N   UNL     1       3.675   6.081  -9.234  0.00  0.00    -0.272 NA
ATOM     18  C   UNL     1       4.025   6.051 -10.616  0.00  0.00    +0.083 C 
ATOM     19  C   UNL     1       5.435   6.893 -10.573  0.00  0.00    +0.119 C 
ATOM     20  C   UNL     1       6.292   5.548 -10.183  0.00  0.00    +0.014 C 
ATOM     21  C   UNL     1       6.018   5.465  -8.713  0.00  0.00    +0.018 C 
ATOM     22  C   UNL     1       4.593   5.529  -8.322  0.00  0.00    +0.072 C 
BRANCH  19  23
ATOM     23  C   UNL     1       5.699   6.725 -12.148  0.00  0.00    +0.366 C 
ATOM     24  O   UNL     1       4.888   5.794 -12.782  0.00  0.00    -0.246 OA
ATOM     25  O   UNL     1       6.446   7.529 -12.706  0.00  0.00    -0.246 OA
ENDBRANCH  19  23
ENDBRANCH  16  17
ENDBRANCH  15  16
ENDBRANCH   2  15
TORSDOF 6
ENDMDL
MODEL 2
REMARK VINA RESULT:      -7.4      4.341      7.621
REMARK  Name = 
REMARK  6 active torsions:
REMARK  status: ('A' for Active; 'I' for Inactive)
REMARK    1  A    between atoms: C_6  and  C_7
REMARK    2  A    between atoms: C_7  and  C_20
REMARK    3  A    between atoms: C_8  and  C_9
REMARK    4  A    between atoms: C_9  and  C_10
REMARK    5  A    between atoms: C_10  and  N_11
REMARK    6  A    between atoms: C_15  and  C_16
REMARK                            x       y       z     vdW  Elec       q    Type
REMARK                         _______ _______ _______ _____ _____    ______ ____
ROOT
ATOM      1  C   UNL     1       3.273   6.394  -9.547  0.00  0.00    +0.007 C 
ATOM      2  C   UNL     1       2.882   7.301  -8.688  0.00  0.00    -0.024 C 
ENDROOT
BRANCH   1   5
ATOM      3  C   UNL     1       1.979   3.650  -8.938  0.00  0.00    +0.032 C 
ATOM      4  C   UNL     1       1.623   4.485 -10.048  0.00  0.00    -0.015 A 
ATOM      5  C   UNL     1       2.219   5.713 -10.312  0.00  0.00    +0.026 A 
ATOM      6  S   UNL     1       1.561   6.077 -11.855  0.00  0.00    -0.087 S 
ATOM      7  C   UNL     1       0.379   4.833 -11.929  0.00  0.00    +0.035 A 
ATOM      8  C   UNL     1       0.346   4.447 -10.593  0.00  0.00    +0.003 A 
ENDBRANCH   1   5
BRANCH   1   9
ATOM      9  C   UNL     1       4.663   6.433 -10.023  0.00  0.00    +0.026 A 
ATOM     10  C   UNL     1       5.714   5.828  -9.345  0.00  0.00    -0.015 A 
ATOM     11  C   UNL     1       5.547   4.949  -8.143  0.00  0.00    +0.032 C 
ATOM     12  C   UNL     1       6.853   5.817 -10.102  0.00  0.00    +0.003 A 
ATOM     13  C   UNL     1       7.116   7.070 -10.642  0.00  0.00    +0.035 A 
ATOM     14  S   UNL     1       5.514   7.618 -10.927  0.00  0.00    -0.087 S 
ENDBRANCH   1   9
BRANCH   2  15
ATOM     15  C   UNL     1       2.979   7.192  -7.218  0.00  0.00    +0.043 C 
BRANCH  15  16
ATOM     16  C   UNL     1       1.557   7.332  -6.704  0.00  0.00    +0.077 C 
BRANCH  16  17
ATOM     17  N   UNL     1       0.910   6.088  -6.453  0.00  0.00    -0.272 NA
ATOM     18  C   UNL     1       0.944   5.708  -5.079  0.00  0.00    +0.083 C 
ATOM     19  C   UNL     1      -0.329   6.576  -4.510  0.00  0.00    +0.119 C 
ATOM     20  C   UNL     1      -1.395   5.408  -4.950  0.00  0.00    +0.014 C 
ATOM     21  C   UNL     1      -1.538   5.704  -6.411  0.00  0.00    +0.018 C 
ATOM     22  C   UNL     1      -0.272   5.823  -7.168  0.00  0.00    +0.072 C 
BRANCH  19  23
ATOM     23  C   UNL     1      -0.174   6.011  -3.015  0.00  0.00    +0.366 C 
ATOM     24  O   UNL     1      -1.195   5.168  -2.599  0.00  0.00    -0.246 OA
ATOM     25  O   UNL     1       0.887   6.206  -2.421  0.00  0.00    -0.246 OA
ENDBRANCH  19  23
ENDBRANCH  16  17
ENDBRANCH  15  16
ENDBRANCH   2  15
TORSDOF 6
ENDMDL
MODEL 3
REMARK VINA RESULT:      -7.3      4.334      7.243
REMARK  Name = 
REMARK  6 active torsions:
REMARK  status: ('A' for Active; 'I' for Inactive)
REMARK    1  A    between atoms: C_6  and  C_7
REMARK    2  A    between atoms: C_7  and  C_20
REMARK    3  A    between atoms: C_8  and  C_9
REMARK    4  A    between atoms: C_9  and  C_10
REMARK    5  A    between atoms: C_10  and  N_11
REMARK    6  A    between atoms: C_15  and  C_16
REMARK                            x       y       z     vdW  Elec       q    Type
REMARK                         _______ _______ _______ _____ _____    ______ ____
ROOT
ATOM      1  C   UNL     1       2.578   5.421  -6.172  0.00  0.00    +0.007 C 
ATOM      2  C   UNL     1       1.682   4.494  -5.940  0.00  0.00    -0.024 C 
ENDROOT
BRANCH   1   5
ATOM      3  C   UNL     1       5.038   4.350  -4.631  0.00  0.00    +0.032 C 
ATOM      4  C   UNL     1       4.335   5.554  -4.298  0.00  0.00    -0.015 A 
ATOM      5  C   UNL     1       3.226   6.019  -4.997  0.00  0.00    +0.026 A 
ATOM      6  S   UNL     1       2.715   7.310  -3.987  0.00  0.00    -0.087 S 
ATOM      7  C   UNL     1       4.071   7.366  -2.936  0.00  0.00    +0.035 A 
ATOM      8  C   UNL     1       4.980   6.611  -3.669  0.00  0.00    +0.003 A 
ENDBRANCH   1   5
BRANCH   1   9
ATOM      9  C   UNL     1       3.199   5.477  -7.502  0.00  0.00    +0.026 A 
ATOM     10  C   UNL     1       3.024   6.543  -8.377  0.00  0.00    -0.015 A 
ATOM     11  C   UNL     1       2.315   7.815  -8.023  0.00  0.00    +0.032 C 
ATOM     12  C   UNL     1       3.878   6.457  -9.442  0.00  0.00    +0.003 A 
ATOM     13  C   UNL     1       3.852   5.190 -10.012  0.00  0.00    +0.035 A 
ATOM     14  S   UNL     1       3.618   4.232  -8.607  0.00  0.00    -0.087 S 
ENDBRANCH   1   9
BRANCH   2  15
ATOM     15  C   UNL     1       0.232   4.621  -6.184  0.00  0.00    +0.043 C 
BRANCH  15  16
ATOM     16  C   UNL     1      -0.101   6.080  -5.922  0.00  0.00    +0.077 C 
BRANCH  16  17
ATOM     17  N   UNL     1      -1.374   6.280  -5.315  0.00  0.00    -0.272 NA
ATOM     18  C   UNL     1      -1.567   5.484  -4.147  0.00  0.00    +0.083 C 
ATOM     19  C   UNL     1      -0.800   6.418  -3.034  0.00  0.00    +0.119 C 
ATOM     20  C   UNL     1      -2.140   7.337  -2.799  0.00  0.00    +0.014 C 
ATOM     21  C   UNL     1      -2.053   8.254  -3.980  0.00  0.00    +0.018 C 
ATOM     22  C   UNL     1      -1.874   7.595  -5.292  0.00  0.00    +0.072 C 
BRANCH  19  23
ATOM     23  C   UNL     1      -1.145   5.426  -1.819  0.00  0.00    +0.366 C 
ATOM     24  O   UNL     1      -2.489   5.100  -1.693  0.00  0.00    -0.246 OA
ATOM     25  O   UNL     1      -0.214   4.894  -1.214  0.00  0.00    -0.246 OA
ENDBRANCH  19  23
ENDBRANCH  16  17
ENDBRANCH  15  16
ENDBRANCH   2  15
TORSDOF 6
ENDMDL
MODEL 4
REMARK VINA RESULT:      -7.2      1.056      1.625
REMARK  Name = 
REMARK  6 active torsions:
REMARK  status: ('A' for Active; 'I' for Inactive)
REMARK    1  A    between atoms: C_6  and  C_7
REMARK    2  A    between atoms: C_7  and  C_20
REMARK    3  A    between atoms: C_8  and  C_9
REMARK    4  A    between atoms: C_9  and  C_10
REMARK    5  A    between atoms: C_10  and  N_11
REMARK    6  A    between atoms: C_15  and  C_16
REMARK                            x       y       z     vdW  Elec       q    Type
REMARK                         _______ _______ _______ _____ _____    ______ ____
ROOT
ATOM      1  C   UNL     1       1.261   6.506  -6.026  0.00  0.00    +0.007 C 
ATOM      2  C   UNL     1       1.695   7.371  -6.908  0.00  0.00    -0.024 C 
ENDROOT
BRANCH   1   5
ATOM      3  C   UNL     1       2.483   3.674  -6.269  0.00  0.00    +0.032 C 
ATOM      4  C   UNL     1       2.834   4.624  -5.254  0.00  0.00    -0.015 A 
ATOM      5  C   UNL     1       2.271   5.891  -5.154  0.00  0.00    +0.026 A 
ATOM      6  S   UNL     1       2.897   6.415  -3.644  0.00  0.00    -0.087 S 
ATOM      7  C   UNL     1       4.035   5.156  -3.388  0.00  0.00    +0.035 A 
ATOM      8  C   UNL     1       4.094   4.614  -4.667  0.00  0.00    +0.003 A 
ENDBRANCH   1   5
BRANCH   1   9
ATOM      9  C   UNL     1      -0.158   6.545  -5.648  0.00  0.00    +0.026 A 
ATOM     10  C   UNL     1      -1.155   5.904  -6.374  0.00  0.00    -0.015 A 
ATOM     11  C   UNL     1      -0.897   4.986  -7.530  0.00  0.00    +0.032 C 
ATOM     12  C   UNL     1      -2.343   5.906  -5.697  0.00  0.00    +0.003 A 
ATOM     13  C   UNL     1      -2.655   7.174  -5.222  0.00  0.00    +0.035 A 
ATOM     14  S   UNL     1      -1.081   7.750  -4.847  0.00  0.00    -0.087 S 
ENDBRANCH   1   9
BRANCH   2  15
ATOM     15  C   UNL     1       1.701   7.177  -8.372  0.00  0.00    +0.043 C 
BRANCH  15  16
ATOM     16  C   UNL     1       3.107   6.717  -8.717  0.00  0.00    +0.077 C 
BRANCH  16  17
ATOM     17  N   UNL     1       3.482   6.974 -10.068  0.00  0.00    -0.272 NA
ATOM     18  C   UNL     1       4.879   7.212 -10.223  0.00  0.00    +0.083 C 
ATOM     19  C   UNL     1       5.430   5.666 -10.280  0.00  0.00    +0.119 C 
ATOM     20  C   UNL     1       5.127   5.557 -11.890  0.00  0.00    +0.014 C 
ATOM     21  C   UNL     1       3.654   5.286 -11.874  0.00  0.00    +0.018 C 
ATOM     22  C   UNL     1       2.839   6.220 -11.066  0.00  0.00    +0.072 C 
BRANCH  19  23
ATOM     23  C   UNL     1       6.957   6.112 -10.496  0.00  0.00    +0.366 C 
ATOM     24  O   UNL     1       7.128   7.410 -10.958  0.00  0.00    -0.246 OA
ATOM     25  O   UNL     1       7.849   5.371 -10.082  0.00  0.00    -0.246 OA
ENDBRANCH  19  23
ENDBRANCH  16  17
ENDBRANCH  15  16
ENDBRANCH   2  15
TORSDOF 6
ENDMDL
MODEL 5
REMARK VINA RESULT:      -7.1      4.167      7.210
REMARK  Name = 
REMARK  6 active torsions:
REMARK  status: ('A' for Active; 'I' for Inactive)
REMARK    1  A    between atoms: C_6  and  C_7
REMARK    2  A    between atoms: C_7  and  C_20
REMARK    3  A    between atoms: C_8  and  C_9
REMARK    4  A    between atoms: C_9  and  C_10
REMARK    5  A    between atoms: C_10  and  N_11
REMARK    6  A    between atoms: C_15  and  C_16
REMARK                            x       y       z     vdW  Elec       q    Type
REMARK                         _______ _______ _______ _____ _____    ______ ____
ROOT
ATOM      1  C   UNL     1       3.307   6.311  -7.456  0.00  0.00    +0.007 C 
ATOM      2  C   UNL     1       2.485   7.329  -7.492  0.00  0.00    -0.024 C 
ENDROOT
BRANCH   1   5
ATOM      3  C   UNL     1       2.058   4.985  -9.958  0.00  0.00    +0.032 C 
ATOM      4  C   UNL     1       3.434   5.375  -9.849  0.00  0.00    -0.015 A 
ATOM      5  C   UNL     1       3.981   5.965  -8.715  0.00  0.00    +0.026 A 
ATOM      6  S   UNL     1       5.653   5.953  -9.108  0.00  0.00    -0.087 S 
ATOM      7  C   UNL     1       5.524   5.492 -10.757  0.00  0.00    +0.035 A 
ATOM      8  C   UNL     1       4.171   5.728 -10.973  0.00  0.00    +0.003 A 
ENDBRANCH   1   5
BRANCH   1   9
ATOM      9  C   UNL     1       3.847   5.893  -6.156  0.00  0.00    +0.026 A 
ATOM     10  C   UNL     1       3.434   4.740  -5.498  0.00  0.00    -0.015 A 
ATOM     11  C   UNL     1       2.512   3.718  -6.089  0.00  0.00    +0.032 C 
ATOM     12  C   UNL     1       4.241   4.462  -4.430  0.00  0.00    +0.003 A 
ATOM     13  C   UNL     1       4.432   5.583  -3.632  0.00  0.00    +0.035 A 
ATOM     14  S   UNL     1       4.446   6.809  -4.834  0.00  0.00    -0.087 S 
ENDBRANCH   1   9
BRANCH   2  15
ATOM     15  C   UNL     1       1.018   7.256  -7.343  0.00  0.00    +0.043 C 
BRANCH  15  16
ATOM     16  C   UNL     1       0.771   6.961  -5.874  0.00  0.00    +0.077 C 
BRANCH  16  17
ATOM     17  N   UNL     1      -0.031   5.807  -5.645  0.00  0.00    -0.272 NA
ATOM     18  C   UNL     1      -0.420   5.659  -4.280  0.00  0.00    +0.083 C 
ATOM     19  C   UNL     1      -1.717   6.666  -4.241  0.00  0.00    +0.119 C 
ATOM     20  C   UNL     1      -2.718   5.491  -4.799  0.00  0.00    +0.014 C 
ATOM     21  C   UNL     1      -2.416   5.547  -6.264  0.00  0.00    +0.018 C 
ATOM     22  C   UNL     1      -0.984   5.481  -6.627  0.00  0.00    +0.072 C 
BRANCH  19  23
ATOM     23  C   UNL     1      -2.041   6.351  -2.700  0.00  0.00    +0.366 C 
ATOM     24  O   UNL     1      -2.310   5.018  -2.420  0.00  0.00    -0.246 OA
ATOM     25  O   UNL     1      -1.860   7.240  -1.869  0.00  0.00    -0.246 OA
ENDBRANCH  19  23
ENDBRANCH  16  17
ENDBRANCH  15  16
ENDBRANCH   2  15
TORSDOF 6
ENDMDL
MODEL 6
REMARK VINA RESULT:      -6.8      1.730      4.304
REMARK  Name = 
REMARK  6 active torsions:
REMARK  status: ('A' for Active; 'I' for Inactive)
REMARK    1  A    between atoms: C_6  and  C_7
REMARK    2  A    between atoms: C_7  and  C_20
REMARK    3  A    between atoms: C_8  and  C_9
REMARK    4  A    between atoms: C_9  and  C_10
REMARK    5  A    between atoms: C_10  and  N_11
REMARK    6  A    between atoms: C_15  and  C_16
REMARK                            x       y       z     vdW  Elec       q    Type
REMARK                         _______ _______ _______ _____ _____    ______ ____
ROOT
ATOM      1  C   UNL     1       2.671   5.720  -4.224  0.00  0.00    +0.007 C 
ATOM      2  C   UNL     1       3.348   4.912  -5.001  0.00  0.00    -0.024 C 
ENDROOT
BRANCH   1   5
ATOM      3  C   UNL     1       1.429   7.403  -6.503  0.00  0.00    +0.032 C 
ATOM      4  C   UNL     1       0.672   6.637  -5.557  0.00  0.00    -0.015 A 
ATOM      5  C   UNL     1       1.245   5.891  -4.534  0.00  0.00    +0.026 A 
ATOM      6  S   UNL     1      -0.146   5.438  -3.634  0.00  0.00    -0.087 S 
ATOM      7  C   UNL     1      -1.348   5.956  -4.745  0.00  0.00    +0.035 A 
ATOM      8  C   UNL     1      -0.573   6.118  -5.888  0.00  0.00    +0.003 A 
ENDBRANCH   1   5
BRANCH   1   9
ATOM      9  C   UNL     1       3.208   6.020  -2.890  0.00  0.00    +0.026 A 
ATOM     10  C   UNL     1       4.178   6.990  -2.664  0.00  0.00    -0.015 A 
ATOM     11  C   UNL     1       4.683   7.936  -3.709  0.00  0.00    +0.032 C 
ATOM     12  C   UNL     1       4.340   7.228  -1.327  0.00  0.00    +0.003 A 
ATOM     13  C   UNL     1       4.483   6.043  -0.614  0.00  0.00    +0.035 A 
ATOM     14  S   UNL     1       3.436   5.022  -1.513  0.00  0.00    -0.087 S 
ENDBRANCH   1   9
BRANCH   2  15
ATOM     15  C   UNL     1       4.409   5.315  -5.946  0.00  0.00    +0.043 C 
BRANCH  15  16
ATOM     16  C   UNL     1       3.756   5.314  -7.318  0.00  0.00    +0.077 C 
BRANCH  16  17
ATOM     17  N   UNL     1       4.576   4.767  -8.345  0.00  0.00    -0.272 NA
ATOM     18  C   UNL     1       3.932   4.740  -9.618  0.00  0.00    +0.083 C 
ATOM     19  C   UNL     1       4.206   6.283 -10.110  0.00  0.00    +0.119 C 
ATOM     20  C   UNL     1       5.689   5.894 -10.696  0.00  0.00    +0.014 C 
ATOM     21  C   UNL     1       6.493   5.900  -9.433  0.00  0.00    +0.018 C 
ATOM     22  C   UNL     1       5.944   5.096  -8.319  0.00  0.00    +0.072 C 
BRANCH  19  23
ATOM     23  C   UNL     1       3.479   6.066 -11.526  0.00  0.00    +0.366 C 
ATOM     24  O   UNL     1       2.093   6.111 -11.485  0.00  0.00    -0.246 OA
ATOM     25  O   UNL     1       4.171   6.056 -12.545  0.00  0.00    -0.246 OA
ENDBRANCH  19  23
ENDBRANCH  16  17
ENDBRANCH  15  16
ENDBRANCH   2  15
TORSDOF 6
ENDMDL
MODEL 7
REMARK VINA RESULT:      -6.8      4.554      7.197
REMARK  Name = 
REMARK  6 active torsions:
REMARK  status: ('A' for Active; 'I' for Inactive)
REMARK    1  A    between atoms: C_6  and  C_7
REMARK    2  A    between atoms: C_7  and  C_20
REMARK    3  A    between atoms: C_8  and  C_9
REMARK    4  A    between atoms: C_9  and  C_10
REMARK    5  A    between atoms: C_10  and  N_11
REMARK    6  A    between atoms: C_15  and  C_16
REMARK                            x       y       z     vdW  Elec       q    Type
REMARK                         _______ _______ _______ _____ _____    ______ ____
ROOT
ATOM      1  C   UNL     1       1.828   5.719 -10.962  0.00  0.00    +0.007 C 
ATOM      2  C   UNL     1       1.058   4.875 -10.322  0.00  0.00    -0.024 C 
ENDROOT
BRANCH   1   5
ATOM      3  C   UNL     1       2.780   7.457  -8.586  0.00  0.00    +0.032 C 
ATOM      4  C   UNL     1       3.643   6.641  -9.389  0.00  0.00    -0.015 A 
ATOM      5  C   UNL     1       3.200   5.870 -10.458  0.00  0.00    +0.026 A 
ATOM      6  S   UNL     1       4.691   5.355 -11.136  0.00  0.00    -0.087 S 
ATOM      7  C   UNL     1       5.738   5.886  -9.884  0.00  0.00    +0.035 A 
ATOM      8  C   UNL     1       4.814   6.107  -8.869  0.00  0.00    +0.003 A 
ENDBRANCH   1   5
BRANCH   1   9
ATOM      9  C   UNL     1       1.470   6.088 -12.338  0.00  0.00    +0.026 A 
ATOM     10  C   UNL     1       0.410   6.931 -12.646  0.00  0.00    -0.015 A 
ATOM     11  C   UNL     1      -0.398   7.677 -11.628  0.00  0.00    +0.032 C 
ATOM     12  C   UNL     1       0.428   7.291 -13.966  0.00  0.00    +0.003 A 
ATOM     13  C   UNL     1       0.587   6.184 -14.792  0.00  0.00    +0.035 A 
ATOM     14  S   UNL     1       1.624   5.226 -13.815  0.00  0.00    -0.087 S 
ENDBRANCH   1   9
BRANCH   2  15
ATOM     15  C   UNL     1      -0.120   5.234  -9.507  0.00  0.00    +0.043 C 
BRANCH  15  16
ATOM     16  C   UNL     1       0.418   5.519  -8.115  0.00  0.00    +0.077 C 
BRANCH  16  17
ATOM     17  N   UNL     1      -0.365   4.953  -7.068  0.00  0.00    -0.272 NA
ATOM     18  C   UNL     1       0.359   4.807  -5.847  0.00  0.00    +0.083 C 
ATOM     19  C   UNL     1       0.213   6.328  -5.243  0.00  0.00    +0.119 C 
ATOM     20  C   UNL     1      -1.249   5.986  -4.581  0.00  0.00    +0.014 C 
ATOM     21  C   UNL     1      -2.133   6.120  -5.782  0.00  0.00    +0.018 C 
ATOM     22  C   UNL     1      -1.708   5.360  -6.979  0.00  0.00    +0.072 C 
BRANCH  19  23
ATOM     23  C   UNL     1       1.016   5.978  -3.898  0.00  0.00    +0.366 C 
ATOM     24  O   UNL     1       0.336   6.257  -2.721  0.00  0.00    -0.246 OA
ATOM     25  O   UNL     1       2.067   5.342  -3.991  0.00  0.00    -0.246 OA
ENDBRANCH  19  23
ENDBRANCH  16  17
ENDBRANCH  15  16
ENDBRANCH   2  15
TORSDOF 6
ENDMDL
MODEL 8
REMARK VINA RESULT:      -6.8      2.792      4.787
REMARK  Name = 
REMARK  6 active torsions:
REMARK  status: ('A' for Active; 'I' for Inactive)
REMARK    1  A    between atoms: C_6  and  C_7
REMARK    2  A    between atoms: C_7  and  C_20
REMARK    3  A    between atoms: C_8  and  C_9
REMARK    4  A    between atoms: C_9  and  C_10
REMARK    5  A    between atoms: C_10  and  N_11
REMARK    6  A    between atoms: C_15  and  C_16
REMARK                            x       y       z     vdW  Elec       q    Type
REMARK                         _______ _______ _______ _____ _____    ______ ____
ROOT
ATOM      1  C   UNL     1       2.919   5.398  -9.192  0.00  0.00    +0.007 C 
ATOM      2  C   UNL     1       4.149   4.954  -9.235  0.00  0.00    -0.024 C 
ENDROOT
BRANCH   1   5
ATOM      3  C   UNL     1       0.116   4.409 -10.050  0.00  0.00    +0.032 C 
ATOM      4  C   UNL     1       0.991   5.184 -10.881  0.00  0.00    -0.015 A 
ATOM      5  C   UNL     1       2.251   5.615 -10.482  0.00  0.00    +0.026 A 
ATOM      6  S   UNL     1       2.868   6.244 -11.956  0.00  0.00    -0.087 S 
ATOM      7  C   UNL     1       1.423   6.194 -12.881  0.00  0.00    +0.035 A 
ATOM      8  C   UNL     1       0.488   6.024 -11.866  0.00  0.00    +0.003 A 
ENDBRANCH   1   5
BRANCH   1   9
ATOM      9  C   UNL     1       2.151   5.215  -7.952  0.00  0.00    +0.026 A 
ATOM     10  C   UNL     1       1.751   6.273  -7.144  0.00  0.00    -0.015 A 
ATOM     11  C   UNL     1       1.919   7.717  -7.503  0.00  0.00    +0.032 C 
ATOM     12  C   UNL     1       0.869   5.859  -6.184  0.00  0.00    +0.003 A 
ATOM     13  C   UNL     1       1.332   4.727  -5.523  0.00  0.00    +0.035 A 
ATOM     14  S   UNL     1       2.131   3.928  -6.816  0.00  0.00    -0.087 S 
ENDBRANCH   1   9
BRANCH   2  15
ATOM     15  C   UNL     1       5.352   5.713  -8.837  0.00  0.00    +0.043 C 
BRANCH  15  16
ATOM     16  C   UNL     1       6.526   4.964  -9.445  0.00  0.00    +0.077 C 
BRANCH  16  17
ATOM     17  N   UNL     1       7.382   5.782 -10.237  0.00  0.00    -0.272 NA
ATOM     18  C   UNL     1       7.493   5.330 -11.586  0.00  0.00    +0.083 C 
ATOM     19  C   UNL     1       6.134   5.995 -12.224  0.00  0.00    +0.119 C 
ATOM     20  C   UNL     1       6.892   7.426 -12.494  0.00  0.00    +0.014 C 
ATOM     21  C   UNL     1       6.834   8.029 -11.125  0.00  0.00    +0.018 C 
ATOM     22  C   UNL     1       7.323   7.171 -10.024  0.00  0.00    +0.072 C 
BRANCH  19  23
ATOM     23  C   UNL     1       6.437   5.442 -13.701  0.00  0.00    +0.366 C 
ATOM     24  O   UNL     1       5.521   5.827 -14.670  0.00  0.00    -0.246 OA
ATOM     25  O   UNL     1       7.515   4.886 -13.909  0.00  0.00    -0.246 OA
ENDBRANCH  19  23
ENDBRANCH  16  17
ENDBRANCH  15  16
ENDBRANCH   2  15
TORSDOF 6
ENDMDL
MODEL 9
REMARK VINA RESULT:      -6.8      2.650      4.878
REMARK  Name = 
REMARK  6 active torsions:
REMARK  status: ('A' for Active; 'I' for Inactive)
REMARK    1  A    between atoms: C_6  and  C_7
REMARK    2  A    between atoms: C_7  and  C_20
REMARK    3  A    between atoms: C_8  and  C_9
REMARK    4  A    between atoms: C_9  and  C_10
REMARK    5  A    between atoms: C_10  and  N_11
REMARK    6  A    between atoms: C_15  and  C_16
REMARK                            x       y       z     vdW  Elec       q    Type
REMARK                         _______ _______ _______ _____ _____    ______ ____
ROOT
ATOM      1  C   UNL     1       1.632   5.023  -6.595  0.00  0.00    +0.007 C 
ATOM      2  C   UNL     1       1.941   3.972  -7.311  0.00  0.00    -0.024 C 
ENDROOT
BRANCH   1   5
ATOM      3  C   UNL     1       0.281   5.366  -3.833  0.00  0.00    +0.032 C 
ATOM      4  C   UNL     1      -0.416   5.398  -5.086  0.00  0.00    -0.015 A 
ATOM      5  C   UNL     1       0.205   5.236  -6.319  0.00  0.00    +0.026 A 
ATOM      6  S   UNL     1      -1.153   5.125  -7.363  0.00  0.00    -0.087 S 
ATOM      7  C   UNL     1      -2.374   5.578  -6.244  0.00  0.00    +0.035 A 
ATOM      8  C   UNL     1      -1.591   6.126  -5.235  0.00  0.00    +0.003 A 
ENDBRANCH   1   5
BRANCH   1   9
ATOM      9  C   UNL     1       2.675   5.630  -5.757  0.00  0.00    +0.026 A 
ATOM     10  C   UNL     1       3.304   6.828  -6.076  0.00  0.00    -0.015 A 
ATOM     11  C   UNL     1       2.903   7.712  -7.216  0.00  0.00    +0.032 C 
ATOM     12  C   UNL     1       4.063   7.283  -5.033  0.00  0.00    +0.003 A 
ATOM     13  C   UNL     1       4.881   6.281  -4.525  0.00  0.00    +0.035 A 
ATOM     14  S   UNL     1       3.855   4.920  -4.731  0.00  0.00    -0.087 S 
ENDBRANCH   1   9
BRANCH   2  15
ATOM     15  C   UNL     1       2.486   3.995  -8.683  0.00  0.00    +0.043 C 
BRANCH  15  16
ATOM     16  C   UNL     1       1.338   4.449  -9.570  0.00  0.00    +0.077 C 
BRANCH  16  17
ATOM     17  N   UNL     1       1.632   5.608 -10.344  0.00  0.00    -0.272 NA
ATOM     18  C   UNL     1       2.074   5.301 -11.665  0.00  0.00    +0.083 C 
ATOM     19  C   UNL     1       0.625   5.075 -12.406  0.00  0.00    +0.119 C 
ATOM     20  C   UNL     1       0.454   6.683 -12.687  0.00  0.00    +0.014 C 
ATOM     21  C   UNL     1      -0.032   7.145 -11.349  0.00  0.00    +0.018 C 
ATOM     22  C   UNL     1       0.780   6.717 -10.188  0.00  0.00    +0.072 C 
BRANCH  19  23
ATOM     23  C   UNL     1       1.290   4.793 -13.840  0.00  0.00    +0.366 C 
ATOM     24  O   UNL     1       1.124   3.501 -14.318  0.00  0.00    -0.246 OA
ATOM     25  O   UNL     1       1.730   5.748 -14.480  0.00  0.00    -0.246 OA
ENDBRANCH  19  23
ENDBRANCH  16  17
ENDBRANCH  15  16
ENDBRANCH   2  15
TORSDOF 6
ENDMDL
