MODEL 1
REMARK VINA RESULT:      -7.4      0.000      0.000
REMARK  Name = 
REMARK  26 active torsions:
REMARK  status: ('A' for Active; 'I' for Inactive)
REMARK    1  A    between atoms: O_2  and  C_3
REMARK    2  A    between atoms: C_6  and  C_7
REMARK    3  A    between atoms: C_7  and  C_8
REMARK    4  A    between atoms: C_11  and  O_12
REMARK    5  A    between atoms: C_14  and  O_15
REMARK    6  A    between atoms: N_21  and  C_23
REMARK    7  A    between atoms: C_23  and  C_24
REMARK    8  A    between atoms: C_24  and  C_25
REMARK    9  A    between atoms: C_25  and  O_27
REMARK   10  A    between atoms: O_27  and  C_28
REMARK   11  A    between atoms: C_28  and  C_29
REMARK   12  A    between atoms: C_29  and  C_30
REMARK   13  A    between atoms: C_30  and  C_31
REMARK   14  A    between atoms: C_31  and  C_32
REMARK   15  A    between atoms: C_32  and  O_33
REMARK   16  A    between atoms: O_33  and  C_34
REMARK   17  A    between atoms: C_34  and  C_36
REMARK   18  A    between atoms: C_36  and  C_37
REMARK   19  A    between atoms: C_37  and  N_38
REMARK   20  A    between atoms: C_44  and  O_45
REMARK   21  A    between atoms: C_47  and  O_48
REMARK   22  A    between atoms: C_52  and  C_53
REMARK   23  A    between atoms: C_53  and  C_54
REMARK   24  A    between atoms: C_57  and  O_58
REMARK   25  A    between atoms: C_60  and  O_61
REMARK   26  A    between atoms: C_65  and  O_66
REMARK                            x       y       z     vdW  Elec       q    Type
REMARK                         _______ _______ _______ _____ _____    ______ ____
ROOT
ATOM      1  C   UNL     1       1.631   5.499  -4.866  0.00  0.00    +0.008 C 
ENDROOT
BRANCH   1   2
ATOM      2  C   UNL     1       0.167   5.172  -5.129  0.00  0.00    +0.048 C 
BRANCH   2   3
ATOM      3  C   UNL     1      -0.301   6.128  -6.213  0.00  0.00    +0.208 C 
BRANCH   3   4
ATOM      4  O   UNL     1      -0.545   5.312  -7.358  0.00  0.00    -0.448 OA
BRANCH   4   5
ATOM      5  C   UNL     1       0.217   5.642  -8.483  0.00  0.00    +0.323 C 
ATOM      6  O   UNL     1      -0.320   5.324  -9.587  0.00  0.00    -0.250 OA
BRANCH   5   7
ATOM      7  C   UNL     1       1.680   5.375  -8.386  0.00  0.00    +0.170 C 
BRANCH   7   8
ATOM      8  C   UNL     1       2.322   6.311  -9.404  0.00  0.00    +0.121 C 
BRANCH   8   9
ATOM      9  N   UNL     1       3.653   5.827  -9.635  0.00  0.00    +0.301 N 
ATOM     10  C   UNL     1       3.898   6.403 -11.111  0.00  0.00    +0.086 C 
ATOM     11  C   UNL     1       5.182   5.404 -11.353  0.00  0.00    +0.027 A 
ATOM     12  C   UNL     1       6.219   5.675 -10.475  0.00  0.00    -0.012 A 
ATOM     13  C   UNL     1       7.503   5.441 -10.950  0.00  0.00    +0.036 A 
ATOM     14  C   UNL     1       7.756   5.494 -12.317  0.00  0.00    +0.172 A 
ATOM     15  C   UNL     1       6.718   5.368 -13.234  0.00  0.00    +0.172 A 
ATOM     16  C   UNL     1       5.941   5.655  -9.009  0.00  0.00    +0.087 C 
ATOM     17  C   UNL     1       5.437   5.295 -12.700  0.00  0.00    +0.041 A 
ATOM     18  C   UNL     1       4.659   6.457  -8.824  0.00  0.00    +0.114 C 
ATOM     19  C   UNL     1       3.752   4.413  -9.742  0.00  0.00    +0.171 C 
BRANCH  14  20
ATOM     20  O   UNL     1       8.940   6.064 -12.796  0.00  0.00    -0.468 OA
ATOM     21  C   UNL     1      10.145   6.008 -12.048  0.00  0.00    +0.253 C 
ENDBRANCH  14  20
BRANCH  15  22
ATOM     22  O   UNL     1       6.941   5.500 -14.609  0.00  0.00    -0.468 OA
ATOM     23  C   UNL     1       6.418   6.687 -15.197  0.00  0.00    +0.253 C 
ENDBRANCH  15  22
BRANCH  10  24
ATOM     24  C   UNL     1       2.845   5.295 -11.793  0.00  0.00    +0.086 C 
BRANCH  24  25
ATOM     25  C   UNL     1       2.155   6.124 -12.829  0.00  0.00    -0.013 A 
ATOM     26  C   UNL     1       2.836   6.718 -13.877  0.00  0.00    +0.036 A 
ATOM     27  C   UNL     1       2.213   6.908 -15.101  0.00  0.00    +0.172 A 
ATOM     28  C   UNL     1       0.857   6.660 -15.250  0.00  0.00    +0.172 A 
ATOM     29  C   UNL     1       0.140   6.114 -14.192  0.00  0.00    +0.040 A 
ATOM     30  C   UNL     1       0.844   5.790 -13.067  0.00  0.00    -0.001 A 
BRANCH  28  31
ATOM     31  O   UNL     1       0.270   6.698 -16.498  0.00  0.00    -0.468 OA
ATOM     32  C   UNL     1      -1.040   7.230 -16.649  0.00  0.00    +0.253 C 
ENDBRANCH  28  31
BRANCH  27  33
ATOM     33  O   UNL     1       2.980   7.172 -16.239  0.00  0.00    -0.468 OA
ATOM     34  C   UNL     1       2.923   8.414 -16.909  0.00  0.00    +0.253 C 
ENDBRANCH  27  33
ENDBRANCH  24  25
ENDBRANCH  10  24
ENDBRANCH   8   9
ENDBRANCH   7   8
ENDBRANCH   5   7
ENDBRANCH   4   5
ENDBRANCH   3   4
ENDBRANCH   2   3
ENDBRANCH   1   2
BRANCH   1  35
ATOM     35  C   UNL     1       1.907   6.920  -5.284  0.00  0.00    +0.048 C 
BRANCH  35  36
ATOM     36  C   UNL     1       3.380   7.148  -5.592  0.00  0.00    +0.208 C 
BRANCH  36  37
ATOM     37  O   UNL     1       3.969   7.552  -4.361  0.00  0.00    -0.448 OA
BRANCH  37  38
ATOM     38  C   UNL     1       5.032   6.810  -3.837  0.00  0.00    +0.323 C 
ATOM     39  O   UNL     1       5.044   5.569  -4.103  0.00  0.00    -0.250 OA
BRANCH  38  40
ATOM     40  C   UNL     1       5.558   7.149  -2.477  0.00  0.00    +0.170 C 
BRANCH  40  41
ATOM     41  C   UNL     1       4.349   7.459  -1.599  0.00  0.00    +0.121 C 
BRANCH  41  43
ATOM     42  C   UNL     1       2.963   7.125   0.382  0.00  0.00    +0.086 C 
ATOM     43  N   UNL     1       4.297   6.718  -0.412  0.00  0.00    +0.301 N 
ATOM     44  C   UNL     1       4.117   5.293  -0.686  0.00  0.00    +0.171 C 
ATOM     45  C   UNL     1       5.369   6.845   0.503  0.00  0.00    +0.114 C 
ATOM     46  C   UNL     1       5.066   7.388   1.854  0.00  0.00    +0.087 C 
ATOM     47  C   UNL     1       4.396   8.711   1.635  0.00  0.00    -0.012 A 
ATOM     48  C   UNL     1       5.096   9.912   1.697  0.00  0.00    +0.036 A 
ATOM     49  C   UNL     1       4.634  11.038   1.024  0.00  0.00    +0.172 A 
ATOM     50  C   UNL     1       3.648  10.886   0.053  0.00  0.00    +0.172 A 
ATOM     51  C   UNL     1       3.300   9.595  -0.332  0.00  0.00    +0.041 A 
ATOM     52  C   UNL     1       3.481   8.662   0.585  0.00  0.00    +0.027 A 
BRANCH  50  53
ATOM     53  O   UNL     1       3.010  11.989  -0.524  0.00  0.00    -0.468 OA
ATOM     54  C   UNL     1       3.745  12.736  -1.473  0.00  0.00    +0.253 C 
ENDBRANCH  50  53
BRANCH  49  55
ATOM     55  O   UNL     1       4.891  12.321   1.519  0.00  0.00    -0.468 OA
ATOM     56  C   UNL     1       6.075  12.981   1.153  0.00  0.00    +0.253 C 
ENDBRANCH  49  55
BRANCH  42  57
ATOM     57  C   UNL     1       2.086   7.444  -1.017  0.00  0.00    +0.086 C 
BRANCH  57  61
ATOM     58  C   UNL     1      -1.909   6.440  -1.161  0.00  0.00    +0.172 A 
ATOM     59  C   UNL     1      -1.509   7.207  -0.073  0.00  0.00    +0.172 A 
ATOM     60  C   UNL     1      -0.168   7.505   0.129  0.00  0.00    +0.036 A 
ATOM     61  C   UNL     1       0.738   6.942  -0.730  0.00  0.00    -0.013 A 
ATOM     62  C   UNL     1       0.345   5.767  -1.363  0.00  0.00    -0.001 A 
ATOM     63  C   UNL     1      -0.992   5.526  -1.665  0.00  0.00    +0.040 A 
BRANCH  58  65
ATOM     64  C   UNL     1      -3.230   6.244  -3.160  0.00  0.00    +0.253 C 
ATOM     65  O   UNL     1      -3.065   6.801  -1.860  0.00  0.00    -0.468 OA
ENDBRANCH  58  65
BRANCH  59  66
ATOM     66  O   UNL     1      -2.516   7.636   0.789  0.00  0.00    -0.468 OA
ATOM     67  C   UNL     1      -2.206   8.164   2.070  0.00  0.00    +0.253 C 
ENDBRANCH  59  66
ENDBRANCH  57  61
ENDBRANCH  42  57
ENDBRANCH  41  43
ENDBRANCH  40  41
ENDBRANCH  38  40
ENDBRANCH  37  38
ENDBRANCH  36  37
ENDBRANCH  35  36
ENDBRANCH   1  35
TORSDOF 26
ENDMDL
MODEL 2
REMARK VINA RESULT:      -7.0      2.055     13.330
REMARK  Name = 
REMARK  26 active torsions:
REMARK  status: ('A' for Active; 'I' for Inactive)
REMARK    1  A    between atoms: O_2  and  C_3
REMARK    2  A    between atoms: C_6  and  C_7
REMARK    3  A    between atoms: C_7  and  C_8
REMARK    4  A    between atoms: C_11  and  O_12
REMARK    5  A    between atoms: C_14  and  O_15
REMARK    6  A    between atoms: N_21  and  C_23
REMARK    7  A    between atoms: C_23  and  C_24
REMARK    8  A    between atoms: C_24  and  C_25
REMARK    9  A    between atoms: C_25  and  O_27
REMARK   10  A    between atoms: O_27  and  C_28
REMARK   11  A    between atoms: C_28  and  C_29
REMARK   12  A    between atoms: C_29  and  C_30
REMARK   13  A    between atoms: C_30  and  C_31
REMARK   14  A    between atoms: C_31  and  C_32
REMARK   15  A    between atoms: C_32  and  O_33
REMARK   16  A    between atoms: O_33  and  C_34
REMARK   17  A    between atoms: C_34  and  C_36
REMARK   18  A    between atoms: C_36  and  C_37
REMARK   19  A    between atoms: C_37  and  N_38
REMARK   20  A    between atoms: C_44  and  O_45
REMARK   21  A    between atoms: C_47  and  O_48
REMARK   22  A    between atoms: C_52  and  C_53
REMARK   23  A    between atoms: C_53  and  C_54
REMARK   24  A    between atoms: C_57  and  O_58
REMARK   25  A    between atoms: C_60  and  O_61
REMARK   26  A    between atoms: C_65  and  O_66
REMARK                            x       y       z     vdW  Elec       q    Type
REMARK                         _______ _______ _______ _____ _____    ______ ____
ROOT
ATOM      1  C   UNL     1       4.122   4.452  -8.294  0.00  0.00    +0.008 C 
ENDROOT
BRANCH   1   2
ATOM      2  C   UNL     1       5.032   5.369  -7.488  0.00  0.00    +0.048 C 
BRANCH   2   3
ATOM      3  C   UNL     1       4.399   5.506  -6.114  0.00  0.00    +0.208 C 
BRANCH   3   4
ATOM      4  O   UNL     1       4.912   6.726  -5.581  0.00  0.00    -0.448 OA
BRANCH   4   5
ATOM      5  C   UNL     1       4.195   7.236  -4.493  0.00  0.00    +0.323 C 
ATOM      6  O   UNL     1       4.918   7.595  -3.515  0.00  0.00    -0.250 OA
BRANCH   5   7
ATOM      7  C   UNL     1       2.949   6.505  -4.130  0.00  0.00    +0.170 C 
BRANCH   7   8
ATOM      8  C   UNL     1       3.290   5.753  -2.847  0.00  0.00    +0.121 C 
BRANCH   8   9
ATOM      9  N   UNL     1       2.073   5.635  -2.096  0.00  0.00    +0.301 N 
ATOM     10  C   UNL     1       2.106   7.029  -1.306  0.00  0.00    +0.086 C 
ATOM     11  C   UNL     1       0.972   6.517  -0.231  0.00  0.00    +0.027 A 
ATOM     12  C   UNL     1      -0.242   6.258  -0.845  0.00  0.00    -0.012 A 
ATOM     13  C   UNL     1      -1.378   6.483  -0.079  0.00  0.00    +0.036 A 
ATOM     14  C   UNL     1      -1.341   7.406   0.962  0.00  0.00    +0.172 A 
ATOM     15  C   UNL     1      -0.126   7.800   1.514  0.00  0.00    +0.172 A 
ATOM     16  C   UNL     1      -0.278   5.296  -1.985  0.00  0.00    +0.087 C 
ATOM     17  C   UNL     1       1.015   7.302   0.898  0.00  0.00    +0.041 A 
ATOM     18  C   UNL     1       0.878   5.694  -2.894  0.00  0.00    +0.114 C 
ATOM     19  C   UNL     1       2.094   4.619  -1.102  0.00  0.00    +0.171 C 
BRANCH  14  20
ATOM     20  O   UNL     1      -2.432   8.246   1.203  0.00  0.00    -0.468 OA
ATOM     21  C   UNL     1      -3.358   7.976   2.244  0.00  0.00    +0.253 C 
ENDBRANCH  14  20
BRANCH  15  22
ATOM     22  O   UNL     1      -0.063   8.786   2.504  0.00  0.00    -0.468 OA
ATOM     23  C   UNL     1       0.685   9.948   2.156  0.00  0.00    +0.253 C 
ENDBRANCH  15  22
BRANCH  10  24
ATOM     24  C   UNL     1       3.352   6.516  -0.313  0.00  0.00    +0.086 C 
BRANCH  24  25
ATOM     25  C   UNL     1       4.033   7.806   0.018  0.00  0.00    -0.013 A 
ATOM     26  C   UNL     1       3.663   9.009  -0.558  0.00  0.00    +0.036 A 
ATOM     27  C   UNL     1       3.798  10.195   0.147  0.00  0.00    +0.172 A 
ATOM     28  C   UNL     1       4.454  10.221   1.368  0.00  0.00    +0.172 A 
ATOM     29  C   UNL     1       4.884   9.029   1.941  0.00  0.00    +0.040 A 
ATOM     30  C   UNL     1       4.571   7.876   1.280  0.00  0.00    -0.001 A 
BRANCH  28  31
ATOM     31  O   UNL     1       4.454  11.364   2.140  0.00  0.00    -0.468 OA
ATOM     32  C   UNL     1       5.548  11.634   3.008  0.00  0.00    +0.253 C 
ENDBRANCH  28  31
BRANCH  27  33
ATOM     33  O   UNL     1       3.116  11.338  -0.277  0.00  0.00    -0.468 OA
ATOM     34  C   UNL     1       3.730  12.321  -1.083  0.00  0.00    +0.253 C 
ENDBRANCH  27  33
ENDBRANCH  24  25
ENDBRANCH  10  24
ENDBRANCH   8   9
ENDBRANCH   7   8
ENDBRANCH   5   7
ENDBRANCH   4   5
ENDBRANCH   3   4
ENDBRANCH   2   3
ENDBRANCH   1   2
BRANCH   1  35
ATOM     35  C   UNL     1       4.160   4.860  -9.743  0.00  0.00    +0.048 C 
BRANCH  35  36
ATOM     36  C   UNL     1       5.179   5.962  -9.999  0.00  0.00    +0.208 C 
BRANCH  36  37
ATOM     37  O   UNL     1       4.976   6.363 -11.349  0.00  0.00    -0.448 OA
BRANCH  37  38
ATOM     38  C   UNL     1       5.038   5.402 -12.364  0.00  0.00    +0.323 C 
ATOM     39  O   UNL     1       6.197   5.024 -12.717  0.00  0.00    -0.250 OA
BRANCH  38  40
ATOM     40  C   UNL     1       4.045   5.456 -13.482  0.00  0.00    +0.170 C 
BRANCH  40  41
ATOM     41  C   UNL     1       2.708   5.862 -12.868  0.00  0.00    +0.121 C 
BRANCH  41  43
ATOM     42  C   UNL     1       0.340   6.265 -13.296  0.00  0.00    +0.086 C 
ATOM     43  N   UNL     1       1.593   5.281 -13.486  0.00  0.00    +0.301 N 
ATOM     44  C   UNL     1       1.768   5.216 -14.937  0.00  0.00    +0.171 C 
ATOM     45  C   UNL     1       1.177   4.002 -13.048  0.00  0.00    +0.114 C 
ATOM     46  C   UNL     1      -0.183   3.882 -12.455  0.00  0.00    +0.087 C 
ATOM     47  C   UNL     1      -0.239   4.872 -11.330  0.00  0.00    -0.012 A 
ATOM     48  C   UNL     1      -0.014   4.501 -10.009  0.00  0.00    +0.036 A 
ATOM     49  C   UNL     1       0.426   5.434  -9.075  0.00  0.00    +0.172 A 
ATOM     50  C   UNL     1       0.928   6.652  -9.525  0.00  0.00    +0.172 A 
ATOM     51  C   UNL     1       1.139   6.810 -10.891  0.00  0.00    +0.041 A 
ATOM     52  C   UNL     1       0.364   6.080 -11.672  0.00  0.00    +0.027 A 
BRANCH  50  53
ATOM     53  O   UNL     1       1.212   7.700  -8.643  0.00  0.00    -0.468 OA
ATOM     54  C   UNL     1       2.540   7.804  -8.169  0.00  0.00    +0.253 C 
ENDBRANCH  50  53
BRANCH  49  55
ATOM     55  O   UNL     1       0.079   5.314  -7.726  0.00  0.00    -0.468 OA
ATOM     56  C   UNL     1       0.983   4.725  -6.827  0.00  0.00    +0.253 C 
ENDBRANCH  49  55
BRANCH  42  57
ATOM     57  C   UNL     1       1.280   7.658 -13.306  0.00  0.00    +0.086 C 
BRANCH  57  61
ATOM     58  C   UNL     1       0.583   9.539 -16.908  0.00  0.00    +0.172 A 
ATOM     59  C   UNL     1       0.687  10.366 -15.795  0.00  0.00    +0.172 A 
ATOM     60  C   UNL     1       0.811   9.827 -14.520  0.00  0.00    +0.036 A 
ATOM     61  C   UNL     1       0.735   8.464 -14.404  0.00  0.00    -0.013 A 
ATOM     62  C   UNL     1       0.049   7.792 -15.411  0.00  0.00    -0.001 A 
ATOM     63  C   UNL     1       0.025   8.281 -16.714  0.00  0.00    +0.040 A 
BRANCH  58  65
ATOM     64  C   UNL     1       2.686   9.683 -18.064  0.00  0.00    +0.253 C 
ATOM     65  O   UNL     1       1.276   9.877 -18.074  0.00  0.00    -0.468 OA
ENDBRANCH  58  65
BRANCH  59  66
ATOM     66  O   UNL     1       0.648  11.737 -16.033  0.00  0.00    -0.468 OA
ATOM     67  C   UNL     1      -0.013  12.618 -15.137  0.00  0.00    +0.253 C 
ENDBRANCH  59  66
ENDBRANCH  57  61
ENDBRANCH  42  57
ENDBRANCH  41  43
ENDBRANCH  40  41
ENDBRANCH  38  40
ENDBRANCH  37  38
ENDBRANCH  36  37
ENDBRANCH  35  36
ENDBRANCH   1  35
TORSDOF 26
ENDMDL
MODEL 3
REMARK VINA RESULT:      -6.9      2.189      5.408
REMARK  Name = 
REMARK  26 active torsions:
REMARK  status: ('A' for Active; 'I' for Inactive)
REMARK    1  A    between atoms: O_2  and  C_3
REMARK    2  A    between atoms: C_6  and  C_7
REMARK    3  A    between atoms: C_7  and  C_8
REMARK    4  A    between atoms: C_11  and  O_12
REMARK    5  A    between atoms: C_14  and  O_15
REMARK    6  A    between atoms: N_21  and  C_23
REMARK    7  A    between atoms: C_23  and  C_24
REMARK    8  A    between atoms: C_24  and  C_25
REMARK    9  A    between atoms: C_25  and  O_27
REMARK   10  A    between atoms: O_27  and  C_28
REMARK   11  A    between atoms: C_28  and  C_29
REMARK   12  A    between atoms: C_29  and  C_30
REMARK   13  A    between atoms: C_30  and  C_31
REMARK   14  A    between atoms: C_31  and  C_32
REMARK   15  A    between atoms: C_32  and  O_33
REMARK   16  A    between atoms: O_33  and  C_34
REMARK   17  A    between atoms: C_34  and  C_36
REMARK   18  A    between atoms: C_36  and  C_37
REMARK   19  A    between atoms: C_37  and  N_38
REMARK   20  A    between atoms: C_44  and  O_45
REMARK   21  A    between atoms: C_47  and  O_48
REMARK   22  A    between atoms: C_52  and  C_53
REMARK   23  A    between atoms: C_53  and  C_54
REMARK   24  A    between atoms: C_57  and  O_58
REMARK   25  A    between atoms: C_60  and  O_61
REMARK   26  A    between atoms: C_65  and  O_66
REMARK                            x       y       z     vdW  Elec       q    Type
REMARK                         _______ _______ _______ _____ _____    ______ ____
ROOT
ATOM      1  C   UNL     1      -1.287   6.143  -6.643  0.00  0.00    +0.008 C 
ENDROOT
BRANCH   1   2
ATOM      2  C   UNL     1      -0.893   5.099  -7.680  0.00  0.00    +0.048 C 
BRANCH   2   3
ATOM      3  C   UNL     1       0.237   5.705  -8.494  0.00  0.00    +0.208 C 
BRANCH   3   4
ATOM      4  O   UNL     1      -0.193   5.630  -9.852  0.00  0.00    -0.448 OA
BRANCH   4   5
ATOM      5  C   UNL     1       0.253   4.499 -10.544  0.00  0.00    +0.323 C 
ATOM      6  O   UNL     1       1.277   3.949 -10.036  0.00  0.00    -0.250 OA
BRANCH   5   7
ATOM      7  C   UNL     1       0.254   4.598 -12.031  0.00  0.00    +0.170 C 
BRANCH   7   8
ATOM      8  C   UNL     1       0.849   5.968 -12.337  0.00  0.00    +0.121 C 
BRANCH   8   9
ATOM      9  N   UNL     1       2.129   5.742 -12.945  0.00  0.00    +0.301 N 
ATOM     10  C   UNL     1       2.222   7.045 -13.873  0.00  0.00    +0.086 C 
ATOM     11  C   UNL     1       3.437   6.395 -14.770  0.00  0.00    +0.027 A 
ATOM     12  C   UNL     1       4.576   6.174 -14.013  0.00  0.00    -0.012 A 
ATOM     13  C   UNL     1       5.788   6.289 -14.680  0.00  0.00    +0.036 A 
ATOM     14  C   UNL     1       5.885   7.097 -15.808  0.00  0.00    +0.172 A 
ATOM     15  C   UNL     1       4.745   7.460 -16.517  0.00  0.00    +0.172 A 
ATOM     16  C   UNL     1       4.467   5.337 -12.782  0.00  0.00    +0.087 C 
ATOM     17  C   UNL     1       3.532   7.057 -15.972  0.00  0.00    +0.041 A 
ATOM     18  C   UNL     1       3.241   5.856 -12.041  0.00  0.00    +0.114 C 
ATOM     19  C   UNL     1       2.170   4.627 -13.826  0.00  0.00    +0.171 C 
BRANCH  14  20
ATOM     20  O   UNL     1       7.024   7.880 -16.023  0.00  0.00    -0.468 OA
ATOM     21  C   UNL     1       7.869   7.666 -17.142  0.00  0.00    +0.253 C 
ENDBRANCH  14  20
BRANCH  15  22
ATOM     22  O   UNL     1       4.813   8.337 -17.605  0.00  0.00    -0.468 OA
ATOM     23  C   UNL     1       3.997   9.501 -17.498  0.00  0.00    +0.253 C 
ENDBRANCH  15  22
BRANCH  10  24
ATOM     24  C   UNL     1       1.062   6.461 -14.930  0.00  0.00    +0.086 C 
BRANCH  24  25
ATOM     25  C   UNL     1       0.456   7.724 -15.452  0.00  0.00    -0.013 A 
ATOM     26  C   UNL     1       0.732   8.963 -14.899  0.00  0.00    +0.036 A 
ATOM     27  C   UNL     1       0.727  10.101 -15.691  0.00  0.00    +0.172 A 
ATOM     28  C   UNL     1       0.287  10.046 -17.005  0.00  0.00    +0.172 A 
ATOM     29  C   UNL     1      -0.049   8.819 -17.565  0.00  0.00    +0.040 A 
ATOM     30  C   UNL     1       0.139   7.711 -16.788  0.00  0.00    -0.001 A 
BRANCH  28  31
ATOM     31  O   UNL     1       0.426  11.138 -17.837  0.00  0.00    -0.468 OA
ATOM     32  C   UNL     1      -0.722  11.721 -18.440  0.00  0.00    +0.253 C 
ENDBRANCH  28  31
BRANCH  27  33
ATOM     33  O   UNL     1       1.336  11.271 -15.231  0.00  0.00    -0.468 OA
ATOM     34  C   UNL     1       0.587  12.400 -14.834  0.00  0.00    +0.253 C 
ENDBRANCH  27  33
ENDBRANCH  24  25
ENDBRANCH  10  24
ENDBRANCH   8   9
ENDBRANCH   7   8
ENDBRANCH   5   7
ENDBRANCH   4   5
ENDBRANCH   3   4
ENDBRANCH   2   3
ENDBRANCH   1   2
BRANCH   1  35
ATOM     35  C   UNL     1      -2.383   5.590  -5.770  0.00  0.00    +0.048 C 
BRANCH  35  36
ATOM     36  C   UNL     1      -2.414   6.258  -4.402  0.00  0.00    +0.208 C 
BRANCH  36  37
ATOM     37  O   UNL     1      -1.690   5.389  -3.538  0.00  0.00    -0.448 OA
BRANCH  37  38
ATOM     38  C   UNL     1      -0.362   5.692  -3.222  0.00  0.00    +0.323 C 
ATOM     39  O   UNL     1       0.533   5.051  -3.853  0.00  0.00    -0.250 OA
BRANCH  38  40
ATOM     40  C   UNL     1      -0.003   6.006  -1.802  0.00  0.00    +0.170 C 
BRANCH  40  41
ATOM     41  C   UNL     1       1.363   6.685  -1.830  0.00  0.00    +0.121 C 
BRANCH  41  43
ATOM     42  C   UNL     1       3.693   6.900  -1.138  0.00  0.00    +0.086 C 
ATOM     43  N   UNL     1       2.311   6.101  -0.980  0.00  0.00    +0.301 N 
ATOM     44  C   UNL     1       1.954   6.297   0.424  0.00  0.00    +0.171 C 
ATOM     45  C   UNL     1       2.612   4.730  -1.157  0.00  0.00    +0.114 C 
ATOM     46  C   UNL     1       4.007   4.369  -1.528  0.00  0.00    +0.087 C 
ATOM     47  C   UNL     1       4.326   5.146  -2.770  0.00  0.00    -0.012 A 
ATOM     48  C   UNL     1       4.219   4.586  -4.038  0.00  0.00    +0.036 A 
ATOM     49  C   UNL     1       4.017   5.391  -5.155  0.00  0.00    +0.172 A 
ATOM     50  C   UNL     1       3.623   6.713  -4.970  0.00  0.00    +0.172 A 
ATOM     51  C   UNL     1       3.269   7.119  -3.687  0.00  0.00    +0.041 A 
ATOM     52  C   UNL     1       3.844   6.452  -2.703  0.00  0.00    +0.027 A 
BRANCH  50  53
ATOM     53  O   UNL     1       3.585   7.624  -6.031  0.00  0.00    -0.468 OA
ATOM     54  C   UNL     1       2.420   7.633  -6.832  0.00  0.00    +0.253 C 
ENDBRANCH  50  53
BRANCH  49  55
ATOM     55  O   UNL     1       4.509   5.011  -6.408  0.00  0.00    -0.468 OA
ATOM     56  C   UNL     1       3.613   4.605  -7.410  0.00  0.00    +0.253 C 
ENDBRANCH  49  55
BRANCH  42  57
ATOM     57  C   UNL     1       2.944   8.368  -1.472  0.00  0.00    +0.086 C 
BRANCH  57  61
ATOM     58  C   UNL     1       4.065  10.918   1.566  0.00  0.00    +0.172 A 
ATOM     59  C   UNL     1       3.944  11.486   0.303  0.00  0.00    +0.172 A 
ATOM     60  C   UNL     1       3.680  10.695  -0.808  0.00  0.00    +0.036 A 
ATOM     61  C   UNL     1       3.635   9.339  -0.617  0.00  0.00    -0.013 A 
ATOM     62  C   UNL     1       4.339   8.842   0.475  0.00  0.00    -0.001 A 
ATOM     63  C   UNL     1       4.502   9.601   1.631  0.00  0.00    +0.040 A 
BRANCH  58  65
ATOM     64  C   UNL     1       2.287  11.021   3.181  0.00  0.00    +0.253 C 
ATOM     65  O   UNL     1       3.494  11.571   2.663  0.00  0.00    -0.468 OA
ENDBRANCH  58  65
BRANCH  59  66
ATOM     66  O   UNL     1       4.114  12.866   0.223  0.00  0.00    -0.468 OA
ATOM     67  C   UNL     1       5.375  13.465   0.481  0.00  0.00    +0.253 C 
ENDBRANCH  59  66
ENDBRANCH  57  61
ENDBRANCH  42  57
ENDBRANCH  41  43
ENDBRANCH  40  41
ENDBRANCH  38  40
ENDBRANCH  37  38
ENDBRANCH  36  37
ENDBRANCH  35  36
ENDBRANCH   1  35
TORSDOF 26
ENDMDL
MODEL 4
REMARK VINA RESULT:      -6.8      1.669      2.582
REMARK  Name = 
REMARK  26 active torsions:
REMARK  status: ('A' for Active; 'I' for Inactive)
REMARK    1  A    between atoms: O_2  and  C_3
REMARK    2  A    between atoms: C_6  and  C_7
REMARK    3  A    between atoms: C_7  and  C_8
REMARK    4  A    between atoms: C_11  and  O_12
REMARK    5  A    between atoms: C_14  and  O_15
REMARK    6  A    between atoms: N_21  and  C_23
REMARK    7  A    between atoms: C_23  and  C_24
REMARK    8  A    between atoms: C_24  and  C_25
REMARK    9  A    between atoms: C_25  and  O_27
REMARK   10  A    between atoms: O_27  and  C_28
REMARK   11  A    between atoms: C_28  and  C_29
REMARK   12  A    between atoms: C_29  and  C_30
REMARK   13  A    between atoms: C_30  and  C_31
REMARK   14  A    between atoms: C_31  and  C_32
REMARK   15  A    between atoms: C_32  and  O_33
REMARK   16  A    between atoms: O_33  and  C_34
REMARK   17  A    between atoms: C_34  and  C_36
REMARK   18  A    between atoms: C_36  and  C_37
REMARK   19  A    between atoms: C_37  and  N_38
REMARK   20  A    between atoms: C_44  and  O_45
REMARK   21  A    between atoms: C_47  and  O_48
REMARK   22  A    between atoms: C_52  and  C_53
REMARK   23  A    between atoms: C_53  and  C_54
REMARK   24  A    between atoms: C_57  and  O_58
REMARK   25  A    between atoms: C_60  and  O_61
REMARK   26  A    between atoms: C_65  and  O_66
REMARK                            x       y       z     vdW  Elec       q    Type
REMARK                         _______ _______ _______ _____ _____    ______ ____
ROOT
ATOM      1  C   UNL     1       1.563   4.742  -6.053  0.00  0.00    +0.008 C 
ENDROOT
BRANCH   1   2
ATOM      2  C   UNL     1       0.093   4.651  -6.438  0.00  0.00    +0.048 C 
BRANCH   2   3
ATOM      3  C   UNL     1      -0.162   5.771  -7.432  0.00  0.00    +0.208 C 
BRANCH   3   4
ATOM      4  O   UNL     1       0.867   5.648  -8.413  0.00  0.00    -0.448 OA
BRANCH   4   5
ATOM      5  C   UNL     1       0.420   5.696  -9.738  0.00  0.00    +0.323 C 
ATOM      6  O   UNL     1      -0.068   4.605 -10.163  0.00  0.00    -0.250 OA
BRANCH   5   7
ATOM      7  C   UNL     1       1.298   6.420 -10.700  0.00  0.00    +0.170 C 
BRANCH   7   8
ATOM      8  C   UNL     1       1.001   5.792 -12.057  0.00  0.00    +0.121 C 
BRANCH   8   9
ATOM      9  N   UNL     1       2.261   5.607 -12.717  0.00  0.00    +0.301 N 
ATOM     10  C   UNL     1       2.257   6.892 -13.675  0.00  0.00    +0.086 C 
ATOM     11  C   UNL     1       3.459   6.274 -14.611  0.00  0.00    +0.027 A 
ATOM     12  C   UNL     1       4.638   6.119 -13.901  0.00  0.00    -0.012 A 
ATOM     13  C   UNL     1       5.815   6.270 -14.624  0.00  0.00    +0.036 A 
ATOM     14  C   UNL     1       5.827   7.057 -15.771  0.00  0.00    +0.172 A 
ATOM     15  C   UNL     1       4.643   7.355 -16.436  0.00  0.00    +0.172 A 
ATOM     16  C   UNL     1       4.619   5.305 -12.650  0.00  0.00    +0.087 C 
ATOM     17  C   UNL     1       3.473   6.913 -15.830  0.00  0.00    +0.041 A 
ATOM     18  C   UNL     1       3.406   5.788 -11.866  0.00  0.00    +0.114 C 
ATOM     19  C   UNL     1       2.312   4.476 -13.577  0.00  0.00    +0.171 C 
BRANCH  14  20
ATOM     20  O   UNL     1       6.920   7.882 -16.052  0.00  0.00    -0.468 OA
ATOM     21  C   UNL     1       7.939   7.481 -16.954  0.00  0.00    +0.253 C 
ENDBRANCH  14  20
BRANCH  15  22
ATOM     22  O   UNL     1       4.625   8.210 -17.543  0.00  0.00    -0.468 OA
ATOM     23  C   UNL     1       4.116   9.517 -17.293  0.00  0.00    +0.253 C 
ENDBRANCH  15  22
BRANCH  10  24
ATOM     24  C   UNL     1       1.079   6.236 -14.667  0.00  0.00    +0.086 C 
BRANCH  24  25
ATOM     25  C   UNL     1       0.429   7.461 -15.226  0.00  0.00    -0.013 A 
ATOM     26  C   UNL     1       0.837   8.739 -14.883  0.00  0.00    +0.036 A 
ATOM     27  C   UNL     1       0.726   9.778 -15.795  0.00  0.00    +0.172 A 
ATOM     28  C   UNL     1       0.058   9.597 -16.996  0.00  0.00    +0.172 A 
ATOM     29  C   UNL     1      -0.409   8.333 -17.337  0.00  0.00    +0.040 A 
ATOM     30  C   UNL     1      -0.120   7.312 -16.476  0.00  0.00    -0.001 A 
BRANCH  28  31
ATOM     31  O   UNL     1       0.081  10.577 -17.966  0.00  0.00    -0.468 OA
ATOM     32  C   UNL     1      -0.913  11.595 -17.969  0.00  0.00    +0.253 C 
ENDBRANCH  28  31
BRANCH  27  33
ATOM     33  O   UNL     1       1.443  10.960 -15.592  0.00  0.00    -0.468 OA
ATOM     34  C   UNL     1       0.959  11.998 -14.767  0.00  0.00    +0.253 C 
ENDBRANCH  27  33
ENDBRANCH  24  25
ENDBRANCH  10  24
ENDBRANCH   8   9
ENDBRANCH   7   8
ENDBRANCH   5   7
ENDBRANCH   4   5
ENDBRANCH   3   4
ENDBRANCH   2   3
ENDBRANCH   1   2
BRANCH   1  35
ATOM     35  C   UNL     1       1.718   5.698  -4.898  0.00  0.00    +0.048 C 
BRANCH  35  36
ATOM     36  C   UNL     1       2.645   6.857  -5.237  0.00  0.00    +0.208 C 
BRANCH  36  37
ATOM     37  O   UNL     1       3.330   7.163  -4.028  0.00  0.00    -0.448 OA
BRANCH  37  38
ATOM     38  C   UNL     1       4.702   6.905  -3.937  0.00  0.00    +0.323 C 
ATOM     39  O   UNL     1       5.137   5.911  -4.595  0.00  0.00    -0.250 OA
BRANCH  38  40
ATOM     40  C   UNL     1       5.400   7.128  -2.631  0.00  0.00    +0.170 C 
BRANCH  40  41
ATOM     41  C   UNL     1       4.332   7.536  -1.621  0.00  0.00    +0.121 C 
BRANCH  41  43
ATOM     42  C   UNL     1       3.057   7.182   0.429  0.00  0.00    +0.086 C 
ATOM     43  N   UNL     1       4.354   6.794  -0.433  0.00  0.00    +0.301 N 
ATOM     44  C   UNL     1       4.180   5.367  -0.698  0.00  0.00    +0.171 C 
ATOM     45  C   UNL     1       5.469   6.937   0.424  0.00  0.00    +0.114 C 
ATOM     46  C   UNL     1       5.229   7.476   1.791  0.00  0.00    +0.087 C 
ATOM     47  C   UNL     1       4.530   8.789   1.607  0.00  0.00    -0.012 A 
ATOM     48  C   UNL     1       5.214  10.000   1.633  0.00  0.00    +0.036 A 
ATOM     49  C   UNL     1       4.701  11.119   0.986  0.00  0.00    +0.172 A 
ATOM     50  C   UNL     1       3.668  10.953   0.068  0.00  0.00    +0.172 A 
ATOM     51  C   UNL     1       3.320   9.657  -0.299  0.00  0.00    +0.041 A 
ATOM     52  C   UNL     1       3.562   8.726   0.607  0.00  0.00    +0.027 A 
BRANCH  50  53
ATOM     53  O   UNL     1       2.984  12.046  -0.474  0.00  0.00    -0.468 OA
ATOM     54  C   UNL     1       3.659  12.805  -1.458  0.00  0.00    +0.253 C 
ENDBRANCH  50  53
BRANCH  49  55
ATOM     55  O   UNL     1       4.964  12.406   1.468  0.00  0.00    -0.468 OA
ATOM     56  C   UNL     1       6.251  12.950   1.325  0.00  0.00    +0.253 C 
ENDBRANCH  49  55
BRANCH  42  57
ATOM     57  C   UNL     1       2.103   7.487  -0.921  0.00  0.00    +0.086 C 
BRANCH  57  61
ATOM     58  C   UNL     1      -1.739   5.998  -1.034  0.00  0.00    +0.172 A 
ATOM     59  C   UNL     1      -1.347   6.595   0.159  0.00  0.00    +0.172 A 
ATOM     60  C   UNL     1      -0.040   7.029   0.340  0.00  0.00    +0.036 A 
ATOM     61  C   UNL     1       0.855   6.763  -0.663  0.00  0.00    -0.013 A 
ATOM     62  C   UNL     1       0.557   5.686  -1.491  0.00  0.00    -0.001 A 
ATOM     63  C   UNL     1      -0.761   5.327  -1.758  0.00  0.00    +0.040 A 
BRANCH  58  65
ATOM     64  C   UNL     1      -2.985   6.838  -2.910  0.00  0.00    +0.253 C 
ATOM     65  O   UNL     1      -2.983   6.325  -1.583  0.00  0.00    -0.468 OA
ENDBRANCH  58  65
BRANCH  59  66
ATOM     66  O   UNL     1      -2.325   6.715   1.144  0.00  0.00    -0.468 OA
ATOM     67  C   UNL     1      -2.655   7.980   1.698  0.00  0.00    +0.253 C 
ENDBRANCH  59  66
ENDBRANCH  57  61
ENDBRANCH  42  57
ENDBRANCH  41  43
ENDBRANCH  40  41
ENDBRANCH  38  40
ENDBRANCH  37  38
ENDBRANCH  36  37
ENDBRANCH  35  36
ENDBRANCH   1  35
TORSDOF 26
ENDMDL
MODEL 5
REMARK VINA RESULT:      -6.5      2.479     13.336
REMARK  Name = 
REMARK  26 active torsions:
REMARK  status: ('A' for Active; 'I' for Inactive)
REMARK    1  A    between atoms: O_2  and  C_3
REMARK    2  A    between atoms: C_6  and  C_7
REMARK    3  A    between atoms: C_7  and  C_8
REMARK    4  A    between atoms: C_11  and  O_12
REMARK    5  A    between atoms: C_14  and  O_15
REMARK    6  A    between atoms: N_21  and  C_23
REMARK    7  A    between atoms: C_23  and  C_24
REMARK    8  A    between atoms: C_24  and  C_25
REMARK    9  A    between atoms: C_25  and  O_27
REMARK   10  A    between atoms: O_27  and  C_28
REMARK   11  A    between atoms: C_28  and  C_29
REMARK   12  A    between atoms: C_29  and  C_30
REMARK   13  A    between atoms: C_30  and  C_31
REMARK   14  A    between atoms: C_31  and  C_32
REMARK   15  A    between atoms: C_32  and  O_33
REMARK   16  A    between atoms: O_33  and  C_34
REMARK   17  A    between atoms: C_34  and  C_36
REMARK   18  A    between atoms: C_36  and  C_37
REMARK   19  A    between atoms: C_37  and  N_38
REMARK   20  A    between atoms: C_44  and  O_45
REMARK   21  A    between atoms: C_47  and  O_48
REMARK   22  A    between atoms: C_52  and  C_53
REMARK   23  A    between atoms: C_53  and  C_54
REMARK   24  A    between atoms: C_57  and  O_58
REMARK   25  A    between atoms: C_60  and  O_61
REMARK   26  A    between atoms: C_65  and  O_66
REMARK                            x       y       z     vdW  Elec       q    Type
REMARK                         _______ _______ _______ _____ _____    ______ ____
ROOT
ATOM      1  C   UNL     1      -0.062   6.034  -7.385  0.00  0.00    +0.008 C 
ENDROOT
BRANCH   1   2
ATOM      2  C   UNL     1      -1.046   4.997  -6.863  0.00  0.00    +0.048 C 
BRANCH   2   3
ATOM      3  C   UNL     1      -2.368   5.718  -6.667  0.00  0.00    +0.208 C 
BRANCH   3   4
ATOM      4  O   UNL     1      -2.562   5.775  -5.254  0.00  0.00    -0.448 OA
BRANCH   4   5
ATOM      5  C   UNL     1      -2.847   7.050  -4.755  0.00  0.00    +0.323 C 
ATOM      6  O   UNL     1      -2.992   7.939  -5.649  0.00  0.00    -0.250 OA
BRANCH   5   7
ATOM      7  C   UNL     1      -2.071   7.473  -3.556  0.00  0.00    +0.170 C 
BRANCH   7   8
ATOM      8  C   UNL     1      -1.488   6.185  -2.986  0.00  0.00    +0.121 C 
BRANCH   8   9
ATOM      9  N   UNL     1      -1.048   6.479  -1.652  0.00  0.00    +0.301 N 
ATOM     10  C   UNL     1       0.410   7.065  -1.972  0.00  0.00    +0.086 C 
ATOM     11  C   UNL     1       0.887   6.899  -0.407  0.00  0.00    +0.027 A 
ATOM     12  C   UNL     1       0.145   7.699   0.446  0.00  0.00    -0.012 A 
ATOM     13  C   UNL     1       0.805   8.174   1.572  0.00  0.00    +0.036 A 
ATOM     14  C   UNL     1       2.188   8.324   1.552  0.00  0.00    +0.172 A 
ATOM     15  C   UNL     1       2.960   7.645   0.615  0.00  0.00    +0.172 A 
ATOM     16  C   UNL     1      -1.341   7.565   0.443  0.00  0.00    +0.087 C 
ATOM     17  C   UNL     1       2.261   6.913  -0.336  0.00  0.00    +0.041 A 
ATOM     18  C   UNL     1      -1.750   7.566  -1.025  0.00  0.00    +0.114 C 
ATOM     19  C   UNL     1      -0.841   5.333  -0.837  0.00  0.00    +0.171 C 
BRANCH  14  20
ATOM     20  O   UNL     1       2.789   9.426   2.168  0.00  0.00    -0.468 OA
ATOM     21  C   UNL     1       3.288   9.353   3.494  0.00  0.00    +0.253 C 
ENDBRANCH  14  20
BRANCH  15  22
ATOM     22  O   UNL     1       4.341   7.845   0.527  0.00  0.00    -0.468 OA
ATOM     23  C   UNL     1       5.020   6.996  -0.394  0.00  0.00    +0.253 C 
ENDBRANCH  15  22
BRANCH  10  24
ATOM     24  C   UNL     1       1.007   5.552  -2.367  0.00  0.00    +0.086 C 
BRANCH  24  25
ATOM     25  C   UNL     1       1.595   5.796  -3.721  0.00  0.00    -0.013 A 
ATOM     26  C   UNL     1       2.398   6.890  -3.994  0.00  0.00    +0.036 A 
ATOM     27  C   UNL     1       3.403   6.802  -4.944  0.00  0.00    +0.172 A 
ATOM     28  C   UNL     1       3.518   5.680  -5.751  0.00  0.00    +0.172 A 
ATOM     29  C   UNL     1       2.684   4.590  -5.530  0.00  0.00    +0.040 A 
ATOM     30  C   UNL     1       1.827   4.669  -4.469  0.00  0.00    -0.001 A 
BRANCH  28  31
ATOM     31  O   UNL     1       4.605   5.524  -6.584  0.00  0.00    -0.468 OA
ATOM     32  C   UNL     1       4.412   5.417  -7.990  0.00  0.00    +0.253 C 
ENDBRANCH  28  31
BRANCH  27  33
ATOM     33  O   UNL     1       4.420   7.760  -4.972  0.00  0.00    -0.468 OA
ATOM     34  C   UNL     1       5.526   7.705  -4.097  0.00  0.00    +0.253 C 
ENDBRANCH  27  33
ENDBRANCH  24  25
ENDBRANCH  10  24
ENDBRANCH   8   9
ENDBRANCH   7   8
ENDBRANCH   5   7
ENDBRANCH   4   5
ENDBRANCH   3   4
ENDBRANCH   2   3
ENDBRANCH   1   2
BRANCH   1  35
ATOM     35  C   UNL     1       0.734   5.441  -8.519  0.00  0.00    +0.048 C 
BRANCH  35  36
ATOM     36  C   UNL     1       0.060   5.663  -9.866  0.00  0.00    +0.208 C 
BRANCH  36  37
ATOM     37  O   UNL     1       0.447   6.971 -10.274  0.00  0.00    -0.448 OA
BRANCH  37  38
ATOM     38  C   UNL     1       0.064   7.433 -11.538  0.00  0.00    +0.323 C 
ATOM     39  O   UNL     1      -0.841   8.321 -11.567  0.00  0.00    -0.250 OA
BRANCH  38  40
ATOM     40  C   UNL     1       0.013   6.468 -12.682  0.00  0.00    +0.170 C 
BRANCH  40  41
ATOM     41  C   UNL     1       0.251   7.277 -13.954  0.00  0.00    +0.121 C 
BRANCH  41  43
ATOM     42  C   UNL     1       1.692   6.909 -15.889  0.00  0.00    +0.086 C 
ATOM     43  N   UNL     1       0.345   6.502 -15.116  0.00  0.00    +0.301 N 
ATOM     44  C   UNL     1       0.543   5.089 -14.795  0.00  0.00    +0.171 C 
ATOM     45  C   UNL     1      -0.705   6.582 -16.061  0.00  0.00    +0.114 C 
ATOM     46  C   UNL     1      -0.377   7.089 -17.420  0.00  0.00    +0.087 C 
ATOM     47  C   UNL     1       0.264   8.431 -17.224  0.00  0.00    -0.012 A 
ATOM     48  C   UNL     1      -0.455   9.616 -17.340  0.00  0.00    +0.036 A 
ATOM     49  C   UNL     1      -0.030  10.770 -16.691  0.00  0.00    +0.172 A 
ATOM     50  C   UNL     1       0.934  10.665 -15.692  0.00  0.00    +0.172 A 
ATOM     51  C   UNL     1       1.294   9.393 -15.259  0.00  0.00    +0.041 A 
ATOM     52  C   UNL     1       1.153   8.429 -16.152  0.00  0.00    +0.027 A 
BRANCH  50  53
ATOM     53  O   UNL     1       1.539  11.796 -15.133  0.00  0.00    -0.468 OA
ATOM     54  C   UNL     1       0.729  12.629 -14.327  0.00  0.00    +0.253 C 
ENDBRANCH  50  53
BRANCH  49  55
ATOM     55  O   UNL     1      -0.296  12.033 -17.231  0.00  0.00    -0.468 OA
ATOM     56  C   UNL     1       0.421  12.471 -18.357  0.00  0.00    +0.253 C 
ENDBRANCH  49  55
BRANCH  42  57
ATOM     57  C   UNL     1       2.527   7.285 -14.479  0.00  0.00    +0.086 C 
BRANCH  57  61
ATOM     58  C   UNL     1       6.422   5.998 -14.066  0.00  0.00    +0.172 A 
ATOM     59  C   UNL     1       6.078   6.524 -15.306  0.00  0.00    +0.172 A 
ATOM     60  C   UNL     1       4.766   6.883 -15.585  0.00  0.00    +0.036 A 
ATOM     61  C   UNL     1       3.823   6.615 -14.628  0.00  0.00    -0.013 A 
ATOM     62  C   UNL     1       4.119   5.589 -13.736  0.00  0.00    -0.001 A 
ATOM     63  C   UNL     1       5.434   5.308 -13.374  0.00  0.00    +0.040 A 
BRANCH  58  65
ATOM     64  C   UNL     1       8.258   5.468 -12.608  0.00  0.00    +0.253 C 
ATOM     65  O   UNL     1       7.611   6.409 -13.458  0.00  0.00    -0.468 OA
ENDBRANCH  58  65
BRANCH  59  66
ATOM     66  O   UNL     1       7.110   6.652 -16.234  0.00  0.00    -0.468 OA
ATOM     67  C   UNL     1       7.354   7.887 -16.891  0.00  0.00    +0.253 C 
ENDBRANCH  59  66
ENDBRANCH  57  61
ENDBRANCH  42  57
ENDBRANCH  41  43
ENDBRANCH  40  41
ENDBRANCH  38  40
ENDBRANCH  37  38
ENDBRANCH  36  37
ENDBRANCH  35  36
ENDBRANCH   1  35
TORSDOF 26
ENDMDL
MODEL 6
REMARK VINA RESULT:      -6.3      2.125      5.487
REMARK  Name = 
REMARK  26 active torsions:
REMARK  status: ('A' for Active; 'I' for Inactive)
REMARK    1  A    between atoms: O_2  and  C_3
REMARK    2  A    between atoms: C_6  and  C_7
REMARK    3  A    between atoms: C_7  and  C_8
REMARK    4  A    between atoms: C_11  and  O_12
REMARK    5  A    between atoms: C_14  and  O_15
REMARK    6  A    between atoms: N_21  and  C_23
REMARK    7  A    between atoms: C_23  and  C_24
REMARK    8  A    between atoms: C_24  and  C_25
REMARK    9  A    between atoms: C_25  and  O_27
REMARK   10  A    between atoms: O_27  and  C_28
REMARK   11  A    between atoms: C_28  and  C_29
REMARK   12  A    between atoms: C_29  and  C_30
REMARK   13  A    between atoms: C_30  and  C_31
REMARK   14  A    between atoms: C_31  and  C_32
REMARK   15  A    between atoms: C_32  and  O_33
REMARK   16  A    between atoms: O_33  and  C_34
REMARK   17  A    between atoms: C_34  and  C_36
REMARK   18  A    between atoms: C_36  and  C_37
REMARK   19  A    between atoms: C_37  and  N_38
REMARK   20  A    between atoms: C_44  and  O_45
REMARK   21  A    between atoms: C_47  and  O_48
REMARK   22  A    between atoms: C_52  and  C_53
REMARK   23  A    between atoms: C_53  and  C_54
REMARK   24  A    between atoms: C_57  and  O_58
REMARK   25  A    between atoms: C_60  and  O_61
REMARK   26  A    between atoms: C_65  and  O_66
REMARK                            x       y       z     vdW  Elec       q    Type
REMARK                         _______ _______ _______ _____ _____    ______ ____
ROOT
ATOM      1  C   UNL     1       4.281   5.200  -0.781  0.00  0.00    +0.008 C 
ENDROOT
BRANCH   1   2
ATOM      2  C   UNL     1       3.990   4.931  -2.251  0.00  0.00    +0.048 C 
BRANCH   2   3
ATOM      3  C   UNL     1       4.555   6.109  -3.025  0.00  0.00    +0.208 C 
BRANCH   3   4
ATOM      4  O   UNL     1       3.561   6.437  -3.995  0.00  0.00    -0.448 OA
BRANCH   4   5
ATOM      5  C   UNL     1       3.703   5.781  -5.222  0.00  0.00    +0.323 C 
ATOM      6  O   UNL     1       4.828   5.216  -5.382  0.00  0.00    -0.250 OA
BRANCH   5   7
ATOM      7  C   UNL     1       3.174   6.499  -6.415  0.00  0.00    +0.170 C 
BRANCH   7   8
ATOM      8  C   UNL     1       3.518   5.604  -7.601  0.00  0.00    +0.121 C 
BRANCH   8   9
ATOM      9  N   UNL     1       2.558   5.886  -8.629  0.00  0.00    +0.301 N 
ATOM     10  C   UNL     1       3.316   5.246  -9.889  0.00  0.00    +0.086 C 
ATOM     11  C   UNL     1       2.348   6.043 -10.953  0.00  0.00    +0.027 A 
ATOM     12  C   UNL     1       1.025   5.647 -10.844  0.00  0.00    -0.012 A 
ATOM     13  C   UNL     1       0.275   5.682 -12.013  0.00  0.00    +0.036 A 
ATOM     14  C   UNL     1       0.908   5.561 -13.246  0.00  0.00    +0.172 A 
ATOM     15  C   UNL     1       2.270   5.813 -13.370  0.00  0.00    +0.172 A 
ATOM     16  C   UNL     1       0.355   5.742  -9.514  0.00  0.00    +0.087 C 
ATOM     17  C   UNL     1       2.951   6.083 -12.189  0.00  0.00    +0.041 A 
ATOM     18  C   UNL     1       1.336   5.136  -8.518  0.00  0.00    +0.114 C 
ATOM     19  C   UNL     1       2.403   7.268  -8.924  0.00  0.00    +0.171 C 
BRANCH  14  20
ATOM     20  O   UNL     1       0.321   4.815 -14.273  0.00  0.00    -0.468 OA
ATOM     21  C   UNL     1       0.388   3.398 -14.292  0.00  0.00    +0.253 C 
ENDBRANCH  14  20
BRANCH  15  22
ATOM     22  O   UNL     1       2.940   5.618 -14.583  0.00  0.00    -0.468 OA
ATOM     23  C   UNL     1       3.469   6.799 -15.180  0.00  0.00    +0.253 C 
ENDBRANCH  15  22
BRANCH  10  24
ATOM     24  C   UNL     1       4.449   6.477  -9.921  0.00  0.00    +0.086 C 
BRANCH  24  25
ATOM     25  C   UNL     1       5.668   5.762 -10.409  0.00  0.00    -0.013 A 
ATOM     26  C   UNL     1       5.752   5.224 -11.681  0.00  0.00    +0.036 A 
ATOM     27  C   UNL     1       6.973   5.157 -12.335  0.00  0.00    +0.172 A 
ATOM     28  C   UNL     1       8.149   5.471 -11.671  0.00  0.00    +0.172 A 
ATOM     29  C   UNL     1       8.092   5.962 -10.372  0.00  0.00    +0.040 A 
ATOM     30  C   UNL     1       6.851   6.167  -9.841  0.00  0.00    -0.001 A 
BRANCH  28  31
ATOM     31  O   UNL     1       9.341   5.555 -12.359  0.00  0.00    -0.468 OA
ATOM     32  C   UNL     1      10.517   5.994 -11.690  0.00  0.00    +0.253 C 
ENDBRANCH  28  31
BRANCH  27  33
ATOM     33  O   UNL     1       7.012   4.950 -13.717  0.00  0.00    -0.468 OA
ATOM     34  C   UNL     1       6.877   6.012 -14.637  0.00  0.00    +0.253 C 
ENDBRANCH  27  33
ENDBRANCH  24  25
ENDBRANCH  10  24
ENDBRANCH   8   9
ENDBRANCH   7   8
ENDBRANCH   5   7
ENDBRANCH   4   5
ENDBRANCH   3   4
ENDBRANCH   2   3
ENDBRANCH   1   2
BRANCH   1  35
ATOM     35  C   UNL     1       5.068   6.478  -0.654  0.00  0.00    +0.048 C 
BRANCH  35  36
ATOM     36  C   UNL     1       4.834   7.161   0.686  0.00  0.00    +0.208 C 
BRANCH  36  37
ATOM     37  O   UNL     1       5.974   7.987   0.897  0.00  0.00    -0.448 OA
BRANCH  37  38
ATOM     38  C   UNL     1       6.396   8.247   2.205  0.00  0.00    +0.323 C 
ATOM     39  O   UNL     1       5.975   7.457   3.105  0.00  0.00    -0.250 OA
BRANCH  38  40
ATOM     40  C   UNL     1       6.542   9.667   2.657  0.00  0.00    +0.170 C 
BRANCH  40  41
ATOM     41  C   UNL     1       5.458  10.471   1.945  0.00  0.00    +0.121 C 
BRANCH  41  43
ATOM     42  C   UNL     1       3.380  11.749   1.912  0.00  0.00    +0.086 C 
ATOM     43  N   UNL     1       4.511  11.043   2.804  0.00  0.00    +0.301 N 
ATOM     44  C   UNL     1       3.779  10.015   3.543  0.00  0.00    +0.171 C 
ATOM     45  C   UNL     1       4.953  12.008   3.739  0.00  0.00    +0.114 C 
ATOM     46  C   UNL     1       4.398  13.384   3.630  0.00  0.00    +0.087 C 
ATOM     47  C   UNL     1       4.675  13.838   2.227  0.00  0.00    -0.012 A 
ATOM     48  C   UNL     1       5.771  14.635   1.913  0.00  0.00    +0.036 A 
ATOM     49  C   UNL     1       6.304  14.633   0.628  0.00  0.00    +0.172 A 
ATOM     50  C   UNL     1       5.937  13.619  -0.252  0.00  0.00    +0.172 A 
ATOM     51  C   UNL     1       5.200  12.551   0.248  0.00  0.00    +0.041 A 
ATOM     52  C   UNL     1       4.448  12.824   1.300  0.00  0.00    +0.027 A 
BRANCH  50  53
ATOM     53  O   UNL     1       6.286  13.661  -1.607  0.00  0.00    -0.468 OA
ATOM     54  C   UNL     1       5.502  14.482  -2.449  0.00  0.00    +0.253 C 
ENDBRANCH  50  53
BRANCH  49  55
ATOM     55  O   UNL     1       6.921  15.777   0.109  0.00  0.00    -0.468 OA
ATOM     56  C   UNL     1       6.256  17.012   0.172  0.00  0.00    +0.253 C 
ENDBRANCH  49  55
BRANCH  42  57
ATOM     57  C   UNL     1       3.524  10.652   0.646  0.00  0.00    +0.086 C 
BRANCH  57  61
ATOM     58  C   UNL     1       0.267   8.410   1.812  0.00  0.00    +0.172 A 
ATOM     59  C   UNL     1       1.081   7.847   0.835  0.00  0.00    +0.172 A 
ATOM     60  C   UNL     1       2.139   8.565   0.293  0.00  0.00    +0.036 A 
ATOM     61  C   UNL     1       2.286   9.867   0.695  0.00  0.00    -0.013 A 
ATOM     62  C   UNL     1       1.142  10.505   1.163  0.00  0.00    -0.001 A 
ATOM     63  C   UNL     1       0.135   9.793   1.807  0.00  0.00    +0.040 A 
BRANCH  58  65
ATOM     64  C   UNL     1      -1.180   6.681   2.646  0.00  0.00    +0.253 C 
ATOM     65  O   UNL     1      -0.142   7.624   2.893  0.00  0.00    -0.468 OA
ENDBRANCH  58  65
BRANCH  59  66
ATOM     66  O   UNL     1       0.765   6.551   0.435  0.00  0.00    -0.468 OA
ATOM     67  C   UNL     1      -0.207   6.312  -0.572  0.00  0.00    +0.253 C 
ENDBRANCH  59  66
ENDBRANCH  57  61
ENDBRANCH  42  57
ENDBRANCH  41  43
ENDBRANCH  40  41
ENDBRANCH  38  40
ENDBRANCH  37  38
ENDBRANCH  36  37
ENDBRANCH  35  36
ENDBRANCH   1  35
TORSDOF 26
ENDMDL
MODEL 7
REMARK VINA RESULT:      -6.3      2.914      7.293
REMARK  Name = 
REMARK  26 active torsions:
REMARK  status: ('A' for Active; 'I' for Inactive)
REMARK    1  A    between atoms: O_2  and  C_3
REMARK    2  A    between atoms: C_6  and  C_7
REMARK    3  A    between atoms: C_7  and  C_8
REMARK    4  A    between atoms: C_11  and  O_12
REMARK    5  A    between atoms: C_14  and  O_15
REMARK    6  A    between atoms: N_21  and  C_23
REMARK    7  A    between atoms: C_23  and  C_24
REMARK    8  A    between atoms: C_24  and  C_25
REMARK    9  A    between atoms: C_25  and  O_27
REMARK   10  A    between atoms: O_27  and  C_28
REMARK   11  A    between atoms: C_28  and  C_29
REMARK   12  A    between atoms: C_29  and  C_30
REMARK   13  A    between atoms: C_30  and  C_31
REMARK   14  A    between atoms: C_31  and  C_32
REMARK   15  A    between atoms: C_32  and  O_33
REMARK   16  A    between atoms: O_33  and  C_34
REMARK   17  A    between atoms: C_34  and  C_36
REMARK   18  A    between atoms: C_36  and  C_37
REMARK   19  A    between atoms: C_37  and  N_38
REMARK   20  A    between atoms: C_44  and  O_45
REMARK   21  A    between atoms: C_47  and  O_48
REMARK   22  A    between atoms: C_52  and  C_53
REMARK   23  A    between atoms: C_53  and  C_54
REMARK   24  A    between atoms: C_57  and  O_58
REMARK   25  A    between atoms: C_60  and  O_61
REMARK   26  A    between atoms: C_65  and  O_66
REMARK                            x       y       z     vdW  Elec       q    Type
REMARK                         _______ _______ _______ _____ _____    ______ ____
ROOT
ATOM      1  C   UNL     1       3.734   6.467  -1.154  0.00  0.00    +0.008 C 
ENDROOT
BRANCH   1   2
ATOM      2  C   UNL     1       3.091   6.684  -2.518  0.00  0.00    +0.048 C 
BRANCH   2   3
ATOM      3  C   UNL     1       4.148   6.336  -3.552  0.00  0.00    +0.208 C 
BRANCH   3   4
ATOM      4  O   UNL     1       3.615   5.228  -4.278  0.00  0.00    -0.448 OA
BRANCH   4   5
ATOM      5  C   UNL     1       4.013   5.163  -5.618  0.00  0.00    +0.323 C 
ATOM      6  O   UNL     1       4.892   6.019  -5.941  0.00  0.00    -0.250 OA
BRANCH   5   7
ATOM      7  C   UNL     1       2.925   4.957  -6.615  0.00  0.00    +0.170 C 
BRANCH   7   8
ATOM      8  C   UNL     1       3.607   5.073  -7.974  0.00  0.00    +0.121 C 
BRANCH   8   9
ATOM      9  N   UNL     1       2.582   5.376  -8.931  0.00  0.00    +0.301 N 
ATOM     10  C   UNL     1       3.357   5.005 -10.284  0.00  0.00    +0.086 C 
ATOM     11  C   UNL     1       2.265   5.820 -11.205  0.00  0.00    +0.027 A 
ATOM     12  C   UNL     1       1.000   5.260 -11.122  0.00  0.00    -0.012 A 
ATOM     13  C   UNL     1       0.207   5.364 -12.257  0.00  0.00    +0.036 A 
ATOM     14  C   UNL     1       0.801   5.486 -13.509  0.00  0.00    +0.172 A 
ATOM     15  C   UNL     1       2.119   5.911 -13.628  0.00  0.00    +0.172 A 
ATOM     16  C   UNL     1       0.377   5.095  -9.777  0.00  0.00    +0.087 C 
ATOM     17  C   UNL     1       2.811   6.096 -12.437  0.00  0.00    +0.041 A 
ATOM     18  C   UNL     1       1.458   4.480  -8.896  0.00  0.00    +0.114 C 
ATOM     19  C   UNL     1       2.260   6.757  -9.028  0.00  0.00    +0.171 C 
BRANCH  14  20
ATOM     20  O   UNL     1       0.262   4.822 -14.616  0.00  0.00    -0.468 OA
ATOM     21  C   UNL     1      -0.056   3.440 -14.568  0.00  0.00    +0.253 C 
ENDBRANCH  14  20
BRANCH  15  22
ATOM     22  O   UNL     1       2.759   5.961 -14.871  0.00  0.00    -0.468 OA
ATOM     23  C   UNL     1       2.397   7.066 -15.696  0.00  0.00    +0.253 C 
ENDBRANCH  15  22
BRANCH  10  24
ATOM     24  C   UNL     1       4.342   6.354 -10.171  0.00  0.00    +0.086 C 
BRANCH  24  25
ATOM     25  C   UNL     1       5.661   5.812 -10.623  0.00  0.00    -0.013 A 
ATOM     26  C   UNL     1       5.858   5.308 -11.897  0.00  0.00    +0.036 A 
ATOM     27  C   UNL     1       7.098   5.412 -12.507  0.00  0.00    +0.172 A 
ATOM     28  C   UNL     1       8.200   5.868 -11.799  0.00  0.00    +0.172 A 
ATOM     29  C   UNL     1       8.035   6.327 -10.497  0.00  0.00    +0.040 A 
ATOM     30  C   UNL     1       6.760   6.360 -10.008  0.00  0.00    -0.001 A 
BRANCH  28  31
ATOM     31  O   UNL     1       9.393   6.118 -12.443  0.00  0.00    -0.468 OA
ATOM     32  C   UNL     1      10.624   5.796 -11.806  0.00  0.00    +0.253 C 
ENDBRANCH  28  31
BRANCH  27  33
ATOM     33  O   UNL     1       7.211   5.233 -13.889  0.00  0.00    -0.468 OA
ATOM     34  C   UNL     1       6.877   6.252 -14.806  0.00  0.00    +0.253 C 
ENDBRANCH  27  33
ENDBRANCH  24  25
ENDBRANCH  10  24
ENDBRANCH   8   9
ENDBRANCH   7   8
ENDBRANCH   5   7
ENDBRANCH   4   5
ENDBRANCH   3   4
ENDBRANCH   2   3
ENDBRANCH   1   2
BRANCH   1  35
ATOM     35  C   UNL     1       4.298   7.772  -0.655  0.00  0.00    +0.048 C 
BRANCH  35  36
ATOM     36  C   UNL     1       4.372   7.817   0.865  0.00  0.00    +0.208 C 
BRANCH  36  37
ATOM     37  O   UNL     1       5.037   9.036   1.178  0.00  0.00    -0.448 OA
BRANCH  37  38
ATOM     38  C   UNL     1       5.372   9.308   2.508  0.00  0.00    +0.323 C 
ATOM     39  O   UNL     1       4.470   9.097   3.376  0.00  0.00    -0.250 OA
BRANCH  38  40
ATOM     40  C   UNL     1       6.252  10.481   2.814  0.00  0.00    +0.170 C 
BRANCH  40  41
ATOM     41  C   UNL     1       5.844  11.600   1.861  0.00  0.00    +0.121 C 
BRANCH  41  43
ATOM     42  C   UNL     1       5.440  13.977   1.484  0.00  0.00    +0.086 C 
ATOM     43  N   UNL     1       5.334  12.738   2.498  0.00  0.00    +0.301 N 
ATOM     44  C   UNL     1       3.898  12.609   2.740  0.00  0.00    +0.171 C 
ATOM     45  C   UNL     1       5.936  13.152   3.710  0.00  0.00    +0.114 C 
ATOM     46  C   UNL     1       6.579  14.493   3.741  0.00  0.00    +0.087 C 
ATOM     47  C   UNL     1       7.576  14.507   2.622  0.00  0.00    -0.012 A 
ATOM     48  C   UNL     1       8.926  14.245   2.833  0.00  0.00    +0.036 A 
ATOM     49  C   UNL     1       9.726  13.768   1.799  0.00  0.00    +0.172 A 
ATOM     50  C   UNL     1       9.118  13.270   0.651  0.00  0.00    +0.172 A 
ATOM     51  C   UNL     1       7.737  13.100   0.661  0.00  0.00    +0.041 A 
ATOM     52  C   UNL     1       7.073  13.905   1.471  0.00  0.00    +0.027 A 
BRANCH  50  53
ATOM     53  O   UNL     1       9.858  12.951  -0.493  0.00  0.00    -0.468 OA
ATOM     54  C   UNL     1       9.723  13.809  -1.609  0.00  0.00    +0.253 C 
ENDBRANCH  50  53
BRANCH  49  55
ATOM     55  O   UNL     1      11.090  14.075   1.752  0.00  0.00    -0.468 OA
ATOM     56  C   UNL     1      11.496  15.379   1.425  0.00  0.00    +0.253 C 
ENDBRANCH  49  55
BRANCH  42  57
ATOM     57  C   UNL     1       5.234  13.026   0.113  0.00  0.00    +0.086 C 
BRANCH  57  61
ATOM     58  C   UNL     1       5.990  15.777  -2.862  0.00  0.00    +0.172 A 
ATOM     59  C   UNL     1       5.082  16.166  -1.884  0.00  0.00    +0.172 A 
ATOM     60  C   UNL     1       4.674  15.274  -0.901  0.00  0.00    +0.036 A 
ATOM     61  C   UNL     1       5.131  13.986  -0.991  0.00  0.00    -0.013 A 
ATOM     62  C   UNL     1       5.503  13.547  -2.257  0.00  0.00    -0.001 A 
ATOM     63  C   UNL     1       6.019  14.430  -3.201  0.00  0.00    +0.040 A 
BRANCH  58  65
ATOM     64  C   UNL     1       8.027  16.148  -4.085  0.00  0.00    +0.253 C 
ATOM     65  O   UNL     1       6.998  16.666  -3.248  0.00  0.00    -0.468 OA
ENDBRANCH  58  65
BRANCH  59  66
ATOM     66  O   UNL     1       4.609  17.474  -1.961  0.00  0.00    -0.468 OA
ATOM     67  C   UNL     1       3.285  17.749  -2.396  0.00  0.00    +0.253 C 
ENDBRANCH  59  66
ENDBRANCH  57  61
ENDBRANCH  42  57
ENDBRANCH  41  43
ENDBRANCH  40  41
ENDBRANCH  38  40
ENDBRANCH  37  38
ENDBRANCH  36  37
ENDBRANCH  35  36
ENDBRANCH   1  35
TORSDOF 26
ENDMDL
MODEL 8
REMARK VINA RESULT:      -6.3      1.753      2.570
REMARK  Name = 
REMARK  26 active torsions:
REMARK  status: ('A' for Active; 'I' for Inactive)
REMARK    1  A    between atoms: O_2  and  C_3
REMARK    2  A    between atoms: C_6  and  C_7
REMARK    3  A    between atoms: C_7  and  C_8
REMARK    4  A    between atoms: C_11  and  O_12
REMARK    5  A    between atoms: C_14  and  O_15
REMARK    6  A    between atoms: N_21  and  C_23
REMARK    7  A    between atoms: C_23  and  C_24
REMARK    8  A    between atoms: C_24  and  C_25
REMARK    9  A    between atoms: C_25  and  O_27
REMARK   10  A    between atoms: O_27  and  C_28
REMARK   11  A    between atoms: C_28  and  C_29
REMARK   12  A    between atoms: C_29  and  C_30
REMARK   13  A    between atoms: C_30  and  C_31
REMARK   14  A    between atoms: C_31  and  C_32
REMARK   15  A    between atoms: C_32  and  O_33
REMARK   16  A    between atoms: O_33  and  C_34
REMARK   17  A    between atoms: C_34  and  C_36
REMARK   18  A    between atoms: C_36  and  C_37
REMARK   19  A    between atoms: C_37  and  N_38
REMARK   20  A    between atoms: C_44  and  O_45
REMARK   21  A    between atoms: C_47  and  O_48
REMARK   22  A    between atoms: C_52  and  C_53
REMARK   23  A    between atoms: C_53  and  C_54
REMARK   24  A    between atoms: C_57  and  O_58
REMARK   25  A    between atoms: C_60  and  O_61
REMARK   26  A    between atoms: C_65  and  O_66
REMARK                            x       y       z     vdW  Elec       q    Type
REMARK                         _______ _______ _______ _____ _____    ______ ____
ROOT
ATOM      1  C   UNL     1       2.467   5.755  -3.553  0.00  0.00    +0.008 C 
ENDROOT
BRANCH   1   2
ATOM      2  C   UNL     1       0.953   5.619  -3.469  0.00  0.00    +0.048 C 
BRANCH   2   3
ATOM      3  C   UNL     1       0.374   6.673  -4.396  0.00  0.00    +0.208 C 
BRANCH   3   4
ATOM      4  O   UNL     1      -0.746   6.051  -5.025  0.00  0.00    -0.448 OA
BRANCH   4   5
ATOM      5  C   UNL     1      -0.602   5.842  -6.400  0.00  0.00    +0.323 C 
ATOM      6  O   UNL     1      -0.846   4.655  -6.775  0.00  0.00    -0.250 OA
BRANCH   5   7
ATOM      7  C   UNL     1       0.581   6.482  -7.040  0.00  0.00    +0.170 C 
BRANCH   7   8
ATOM      8  C   UNL     1       0.720   5.794  -8.394  0.00  0.00    +0.121 C 
BRANCH   8   9
ATOM      9  N   UNL     1       2.120   5.549  -8.596  0.00  0.00    +0.301 N 
ATOM     10  C   UNL     1       2.271   6.075 -10.102  0.00  0.00    +0.086 C 
ATOM     11  C   UNL     1       3.719   5.316 -10.286  0.00  0.00    +0.027 A 
ATOM     12  C   UNL     1       4.679   5.822  -9.425  0.00  0.00    -0.012 A 
ATOM     13  C   UNL     1       5.989   5.800  -9.886  0.00  0.00    +0.036 A 
ATOM     14  C   UNL     1       6.243   5.821 -11.254  0.00  0.00    +0.172 A 
ATOM     15  C   UNL     1       5.256   5.454 -12.162  0.00  0.00    +0.172 A 
ATOM     16  C   UNL     1       4.394   5.835  -7.961  0.00  0.00    +0.087 C 
ATOM     17  C   UNL     1       4.004   5.178 -11.625  0.00  0.00    +0.041 A 
ATOM     18  C   UNL     1       2.985   6.399  -7.823  0.00  0.00    +0.114 C 
ATOM     19  C   UNL     1       2.477   4.174  -8.621  0.00  0.00    +0.171 C 
BRANCH  14  20
ATOM     20  O   UNL     1       7.308   6.569 -11.765  0.00  0.00    -0.468 OA
ATOM     21  C   UNL     1       8.637   6.071 -11.752  0.00  0.00    +0.253 C 
ENDBRANCH  14  20
BRANCH  15  22
ATOM     22  O   UNL     1       5.465   5.546 -13.542  0.00  0.00    -0.468 OA
ATOM     23  C   UNL     1       4.297   5.802 -14.318  0.00  0.00    +0.253 C 
ENDBRANCH  15  22
BRANCH  10  24
ATOM     24  C   UNL     1       1.445   4.756 -10.719  0.00  0.00    +0.086 C 
BRANCH  24  25
ATOM     25  C   UNL     1       0.788   5.342 -11.928  0.00  0.00    -0.013 A 
ATOM     26  C   UNL     1       0.933   6.673 -12.279  0.00  0.00    +0.036 A 
ATOM     27  C   UNL     1       0.901   7.054 -13.612  0.00  0.00    +0.172 A 
ATOM     28  C   UNL     1       0.560   6.142 -14.600  0.00  0.00    +0.172 A 
ATOM     29  C   UNL     1       0.355   4.810 -14.262  0.00  0.00    +0.040 A 
ATOM     30  C   UNL     1       0.568   4.461 -12.958  0.00  0.00    -0.001 A 
BRANCH  28  31
ATOM     31  O   UNL     1       0.678   6.477 -15.933  0.00  0.00    -0.468 OA
ATOM     32  C   UNL     1      -0.458   6.943 -16.650  0.00  0.00    +0.253 C 
ENDBRANCH  28  31
BRANCH  27  33
ATOM     33  O   UNL     1       1.389   8.307 -13.989  0.00  0.00    -0.468 OA
ATOM     34  C   UNL     1       0.531   9.391 -14.274  0.00  0.00    +0.253 C 
ENDBRANCH  27  33
ENDBRANCH  24  25
ENDBRANCH  10  24
ENDBRANCH   8   9
ENDBRANCH   7   8
ENDBRANCH   5   7
ENDBRANCH   4   5
ENDBRANCH   3   4
ENDBRANCH   2   3
ENDBRANCH   1   2
BRANCH   1  35
ATOM     35  C   UNL     1       2.930   6.799  -2.570  0.00  0.00    +0.048 C 
BRANCH  35  36
ATOM     36  C   UNL     1       4.432   6.733  -2.334  0.00  0.00    +0.208 C 
BRANCH  36  37
ATOM     37  O   UNL     1       4.684   7.608  -1.240  0.00  0.00    -0.448 OA
BRANCH  37  38
ATOM     38  C   UNL     1       4.981   7.065   0.015  0.00  0.00    +0.323 C 
ATOM     39  O   UNL     1       4.265   6.089   0.394  0.00  0.00    -0.250 OA
BRANCH  38  40
ATOM     40  C   UNL     1       5.408   7.978   1.122  0.00  0.00    +0.170 C 
BRANCH  40  41
ATOM     41  C   UNL     1       4.449   9.166   1.112  0.00  0.00    +0.121 C 
BRANCH  41  43
ATOM     42  C   UNL     1       2.554  10.324   2.122  0.00  0.00    +0.086 C 
ATOM     43  N   UNL     1       3.882   9.454   2.359  0.00  0.00    +0.301 N 
ATOM     44  C   UNL     1       3.391   8.241   3.011  0.00  0.00    +0.171 C 
ATOM     45  C   UNL     1       4.665  10.159   3.303  0.00  0.00    +0.114 C 
ATOM     46  C   UNL     1       4.180  11.492   3.750  0.00  0.00    +0.087 C 
ATOM     47  C   UNL     1       3.988  12.307   2.506  0.00  0.00    -0.012 A 
ATOM     48  C   UNL     1       4.952  13.202   2.054  0.00  0.00    +0.036 A 
ATOM     49  C   UNL     1       5.017  13.558   0.711  0.00  0.00    +0.172 A 
ATOM     50  C   UNL     1       4.320  12.795  -0.222  0.00  0.00    +0.172 A 
ATOM     51  C   UNL     1       3.741  11.604   0.205  0.00  0.00    +0.041 A 
ATOM     52  C   UNL     1       3.406  11.563   1.483  0.00  0.00    +0.027 A 
BRANCH  50  53
ATOM     53  O   UNL     1       4.189  13.203  -1.554  0.00  0.00    -0.468 OA
ATOM     54  C   UNL     1       5.362  13.641  -2.212  0.00  0.00    +0.253 C 
ENDBRANCH  50  53
BRANCH  49  55
ATOM     55  O   UNL     1       5.480  14.820   0.327  0.00  0.00    -0.468 OA
ATOM     56  C   UNL     1       5.330  15.909   1.202  0.00  0.00    +0.253 C 
ENDBRANCH  49  55
BRANCH  42  57
ATOM     57  C   UNL     1       2.202   9.602   0.646  0.00  0.00    +0.086 C 
BRANCH  57  61
ATOM     58  C   UNL     1      -1.397   7.622   0.291  0.00  0.00    +0.172 A 
ATOM     59  C   UNL     1      -1.360   8.669   1.205  0.00  0.00    +0.172 A 
ATOM     60  C   UNL     1      -0.170   9.328   1.482  0.00  0.00    +0.036 A 
ATOM     61  C   UNL     1       0.968   8.847   0.888  0.00  0.00    -0.013 A 
ATOM     62  C   UNL     1       0.952   7.508   0.510  0.00  0.00    -0.001 A 
ATOM     63  C   UNL     1      -0.231   6.884   0.125  0.00  0.00    +0.040 A 
BRANCH  58  65
ATOM     64  C   UNL     1      -2.191   7.008  -1.893  0.00  0.00    +0.253 C 
ATOM     65  O   UNL     1      -2.470   7.534  -0.600  0.00  0.00    -0.468 OA
ENDBRANCH  58  65
BRANCH  59  66
ATOM     66  O   UNL     1      -2.565   8.997   1.822  0.00  0.00    -0.468 OA
ATOM     67  C   UNL     1      -3.317   8.021   2.527  0.00  0.00    +0.253 C 
ENDBRANCH  59  66
ENDBRANCH  57  61
ENDBRANCH  42  57
ENDBRANCH  41  43
ENDBRANCH  40  41
ENDBRANCH  38  40
ENDBRANCH  37  38
ENDBRANCH  36  37
ENDBRANCH  35  36
ENDBRANCH   1  35
TORSDOF 26
ENDMDL
MODEL 9
REMARK VINA RESULT:      -6.2      3.695      9.112
REMARK  Name = 
REMARK  26 active torsions:
REMARK  status: ('A' for Active; 'I' for Inactive)
REMARK    1  A    between atoms: O_2  and  C_3
REMARK    2  A    between atoms: C_6  and  C_7
REMARK    3  A    between atoms: C_7  and  C_8
REMARK    4  A    between atoms: C_11  and  O_12
REMARK    5  A    between atoms: C_14  and  O_15
REMARK    6  A    between atoms: N_21  and  C_23
REMARK    7  A    between atoms: C_23  and  C_24
REMARK    8  A    between atoms: C_24  and  C_25
REMARK    9  A    between atoms: C_25  and  O_27
REMARK   10  A    between atoms: O_27  and  C_28
REMARK   11  A    between atoms: C_28  and  C_29
REMARK   12  A    between atoms: C_29  and  C_30
REMARK   13  A    between atoms: C_30  and  C_31
REMARK   14  A    between atoms: C_31  and  C_32
REMARK   15  A    between atoms: C_32  and  O_33
REMARK   16  A    between atoms: O_33  and  C_34
REMARK   17  A    between atoms: C_34  and  C_36
REMARK   18  A    between atoms: C_36  and  C_37
REMARK   19  A    between atoms: C_37  and  N_38
REMARK   20  A    between atoms: C_44  and  O_45
REMARK   21  A    between atoms: C_47  and  O_48
REMARK   22  A    between atoms: C_52  and  C_53
REMARK   23  A    between atoms: C_53  and  C_54
REMARK   24  A    between atoms: C_57  and  O_58
REMARK   25  A    between atoms: C_60  and  O_61
REMARK   26  A    between atoms: C_65  and  O_66
REMARK                            x       y       z     vdW  Elec       q    Type
REMARK                         _______ _______ _______ _____ _____    ______ ____
ROOT
ATOM      1  C   UNL     1       2.843   7.907  -0.604  0.00  0.00    +0.008 C 
ENDROOT
BRANCH   1   2
ATOM      2  C   UNL     1       3.658   8.449  -1.770  0.00  0.00    +0.048 C 
BRANCH   2   3
ATOM      3  C   UNL     1       4.205   7.243  -2.512  0.00  0.00    +0.208 C 
BRANCH   3   4
ATOM      4  O   UNL     1       3.071   6.420  -2.786  0.00  0.00    -0.448 OA
BRANCH   4   5
ATOM      5  C   UNL     1       3.371   5.077  -3.033  0.00  0.00    +0.323 C 
ATOM      6  O   UNL     1       4.178   4.562  -2.201  0.00  0.00    -0.250 OA
BRANCH   5   7
ATOM      7  C   UNL     1       3.602   4.708  -4.458  0.00  0.00    +0.170 C 
BRANCH   7   8
ATOM      8  C   UNL     1       2.574   5.512  -5.247  0.00  0.00    +0.121 C 
BRANCH   8   9
ATOM      9  N   UNL     1       2.818   5.251  -6.637  0.00  0.00    +0.301 N 
ATOM     10  C   UNL     1       1.606   6.078  -7.283  0.00  0.00    +0.086 C 
ATOM     11  C   UNL     1       1.772   5.309  -8.728  0.00  0.00    +0.027 A 
ATOM     12  C   UNL     1       2.998   5.575  -9.316  0.00  0.00    -0.012 A 
ATOM     13  C   UNL     1       3.022   5.591 -10.704  0.00  0.00    +0.036 A 
ATOM     14  C   UNL     1       1.863   5.890 -11.414  0.00  0.00    +0.172 A 
ATOM     15  C   UNL     1       0.615   5.771 -10.813  0.00  0.00    +0.172 A 
ATOM     16  C   UNL     1       4.241   5.290  -8.542  0.00  0.00    +0.087 C 
ATOM     17  C   UNL     1       0.616   5.446  -9.462  0.00  0.00    +0.041 A 
ATOM     18  C   UNL     1       4.004   5.876  -7.156  0.00  0.00    +0.114 C 
ATOM     19  C   UNL     1       2.621   3.898  -7.023  0.00  0.00    +0.171 C 
BRANCH  14  20
ATOM     20  O   UNL     1       1.923   6.680 -12.567  0.00  0.00    -0.468 OA
ATOM     21  C   UNL     1       2.118   6.105 -13.849  0.00  0.00    +0.253 C 
ENDBRANCH  14  20
BRANCH  15  22
ATOM     22  O   UNL     1      -0.555   6.144 -11.483  0.00  0.00    -0.468 OA
ATOM     23  C   UNL     1      -0.829   7.542 -11.495  0.00  0.00    +0.253 C 
ENDBRANCH  15  22
BRANCH  10  24
ATOM     24  C   UNL     1       0.474   4.960  -6.762  0.00  0.00    +0.086 C 
BRANCH  24  25
ATOM     25  C   UNL     1      -0.551   5.836  -6.116  0.00  0.00    -0.013 A 
ATOM     26  C   UNL     1      -1.680   5.326  -5.500  0.00  0.00    +0.036 A 
ATOM     27  C   UNL     1      -2.246   5.984  -4.418  0.00  0.00    +0.172 A 
ATOM     28  C   UNL     1      -1.796   7.240  -4.040  0.00  0.00    +0.172 A 
ATOM     29  C   UNL     1      -0.696   7.796  -4.683  0.00  0.00    +0.040 A 
ATOM     30  C   UNL     1      -0.075   7.028  -5.626  0.00  0.00    -0.001 A 
BRANCH  28  31
ATOM     31  O   UNL     1      -2.248   7.826  -2.876  0.00  0.00    -0.468 OA
ATOM     32  C   UNL     1      -1.588   7.559  -1.645  0.00  0.00    +0.253 C 
ENDBRANCH  28  31
BRANCH  27  33
ATOM     33  O   UNL     1      -3.147   5.312  -3.588  0.00  0.00    -0.468 OA
ATOM     34  C   UNL     1      -4.360   5.899  -3.168  0.00  0.00    +0.253 C 
ENDBRANCH  27  33
ENDBRANCH  24  25
ENDBRANCH  10  24
ENDBRANCH   8   9
ENDBRANCH   7   8
ENDBRANCH   5   7
ENDBRANCH   4   5
ENDBRANCH   3   4
ENDBRANCH   2   3
ENDBRANCH   1   2
BRANCH   1  35
ATOM     35  C   UNL     1       3.152   8.706   0.636  0.00  0.00    +0.048 C 
BRANCH  35  36
ATOM     36  C   UNL     1       2.486  10.075   0.612  0.00  0.00    +0.208 C 
BRANCH  36  37
ATOM     37  O   UNL     1       3.306  10.912   1.419  0.00  0.00    -0.448 OA
BRANCH  37  38
ATOM     38  C   UNL     1       4.124  11.865   0.803  0.00  0.00    +0.323 C 
ATOM     39  O   UNL     1       4.100  11.898  -0.465  0.00  0.00    -0.250 OA
BRANCH  38  40
ATOM     40  C   UNL     1       5.462  12.173   1.399  0.00  0.00    +0.170 C 
BRANCH  40  41
ATOM     41  C   UNL     1       6.065  13.306   0.573  0.00  0.00    +0.121 C 
BRANCH  41  43
ATOM     42  C   UNL     1       7.157  15.487   0.644  0.00  0.00    +0.086 C 
ATOM     43  N   UNL     1       5.947  14.570   1.163  0.00  0.00    +0.301 N 
ATOM     44  C   UNL     1       4.753  15.267   0.684  0.00  0.00    +0.171 C 
ATOM     45  C   UNL     1       5.952  14.653   2.575  0.00  0.00    +0.114 C 
ATOM     46  C   UNL     1       7.052  15.418   3.221  0.00  0.00    +0.087 C 
ATOM     47  C   UNL     1       8.332  14.817   2.720  0.00  0.00    -0.012 A 
ATOM     48  C   UNL     1       9.037  13.867   3.452  0.00  0.00    +0.036 A 
ATOM     49  C   UNL     1       9.890  12.971   2.816  0.00  0.00    +0.172 A 
ATOM     50  C   UNL     1       9.806  12.826   1.434  0.00  0.00    +0.172 A 
ATOM     51  C   UNL     1       8.750  13.445   0.773  0.00  0.00    +0.041 A 
ATOM     52  C   UNL     1       8.271  14.527   1.359  0.00  0.00    +0.027 A 
BRANCH  50  53
ATOM     53  O   UNL     1      10.752  12.088   0.715  0.00  0.00    -0.468 OA
ATOM     54  C   UNL     1      11.803  12.809   0.102  0.00  0.00    +0.253 C 
ENDBRANCH  50  53
BRANCH  49  55
ATOM     55  O   UNL     1      11.021  12.473   3.472  0.00  0.00    -0.468 OA
ATOM     56  C   UNL     1      12.096  13.334   3.750  0.00  0.00    +0.253 C 
ENDBRANCH  49  55
BRANCH  42  57
ATOM     57  C   UNL     1       7.244  14.730  -0.855  0.00  0.00    +0.086 C 
BRANCH  57  61
ATOM     58  C   UNL     1       7.598  17.061  -4.237  0.00  0.00    +0.172 A 
ATOM     59  C   UNL     1       8.727  16.978  -3.429  0.00  0.00    +0.172 A 
ATOM     60  C   UNL     1       8.680  16.310  -2.212  0.00  0.00    +0.036 A 
ATOM     61  C   UNL     1       7.464  15.823  -1.808  0.00  0.00    -0.013 A 
ATOM     62  C   UNL     1       6.339  16.449  -2.335  0.00  0.00    -0.001 A 
ATOM     63  C   UNL     1       6.362  17.018  -3.605  0.00  0.00    +0.040 A 
BRANCH  58  65
ATOM     64  C   UNL     1       6.658  17.355  -6.430  0.00  0.00    +0.253 C 
ATOM     65  O   UNL     1       7.738  16.903  -5.619  0.00  0.00    -0.468 OA
ENDBRANCH  58  65
BRANCH  59  66
ATOM     66  O   UNL     1       9.878  17.604  -3.902  0.00  0.00    -0.468 OA
ATOM     67  C   UNL     1      11.024  17.749  -3.077  0.00  0.00    +0.253 C 
ENDBRANCH  59  66
ENDBRANCH  57  61
ENDBRANCH  42  57
ENDBRANCH  41  43
ENDBRANCH  40  41
ENDBRANCH  38  40
ENDBRANCH  37  38
ENDBRANCH  36  37
ENDBRANCH  35  36
ENDBRANCH   1  35
TORSDOF 26
ENDMDL
