MODEL 1
REMARK VINA RESULT:      -6.4      0.000      0.000
REMARK  Name = 
REMARK  14 active torsions:
REMARK  status: ('A' for Active; 'I' for Inactive)
REMARK    1  A    between atoms: C_2  and  C_3
REMARK    2  A    between atoms: C_3  and  C_4
REMARK    3  A    between atoms: C_4  and  C_5
REMARK    4  A    between atoms: C_5  and  C_6
REMARK    5  A    between atoms: C_6  and  C_7
REMARK    6  A    between atoms: C_7  and  N_8
REMARK    7  A    between atoms: N_8  and  C_9
REMARK    8  A    between atoms: N_8  and  C_11
REMARK    9  A    between atoms: C_11  and  C_12
REMARK   10  A    between atoms: C_12  and  C_13
REMARK   11  A    between atoms: C_13  and  C_14
REMARK   12  A    between atoms: C_14  and  C_16
REMARK   13  A    between atoms: C_19  and  N_20
REMARK   14  A    between atoms: N_20  and  S_21
REMARK                            x       y       z     vdW  Elec       q    Type
REMARK                         _______ _______ _______ _____ _____    ______ ____
ROOT
ATOM      1  C   UNL     1       2.612   6.926  -6.217  0.00  0.00    +0.039 C 
ENDROOT
BRANCH   1   2
ATOM      2  C   UNL     1       4.161   6.342  -6.218  0.00  0.00    +0.174 C 
ATOM      3  O   UNL     1       3.737   5.076  -5.485  0.00  0.00    -0.218 OA
BRANCH   2   4
ATOM      4  C   UNL     1       4.009   5.654  -7.694  0.00  0.00    +0.008 A 
ATOM      5  C   UNL     1       3.550   6.571  -8.639  0.00  0.00    -0.000 A 
ATOM      6  C   UNL     1       4.084   6.735  -9.882  0.00  0.00    +0.018 A 
ATOM      7  C   UNL     1       5.264   6.079 -10.201  0.00  0.00    +0.091 A 
ATOM      8  C   UNL     1       5.802   5.197  -9.302  0.00  0.00    +0.018 A 
ATOM      9  C   UNL     1       5.237   5.097  -8.043  0.00  0.00    -0.000 A 
BRANCH   7  10
ATOM     10  N   UNL     1       6.012   6.564 -11.324  0.00  0.00    -0.101 NA
BRANCH  10  11
ATOM     11  S   UNL     1       6.260   5.565 -12.702  0.00  0.00    +0.075 S 
ATOM     12  O   UNL     1       5.011   4.764 -12.861  0.00  0.00    -0.153 OA
ATOM     13  O   UNL     1       7.458   4.724 -12.449  0.00  0.00    -0.153 OA
ATOM     14  C   UNL     1       6.421   6.615 -14.104  0.00  0.00    +0.202 C 
ENDBRANCH  10  11
ENDBRANCH   7  10
ENDBRANCH   2   4
ENDBRANCH   1   2
BRANCH   1  15
ATOM     15  C   UNL     1       2.020   6.097  -5.079  0.00  0.00    +0.020 C 
BRANCH  15  16
ATOM     16  C   UNL     1       0.841   6.816  -4.497  0.00  0.00    +0.072 C 
BRANCH  16  17
ATOM     17  N   UNL     1      -0.349   6.773  -5.249  0.00  0.00    -0.273 NA
BRANCH  17  18
ATOM     18  C   UNL     1      -1.299   7.731  -4.793  0.00  0.00    +0.072 C 
ATOM     19  C   UNL     1      -1.927   7.190  -3.522  0.00  0.00    +0.019 C 
ENDBRANCH  17  18
BRANCH  17  20
ATOM     20  C   UNL     1      -0.888   5.474  -5.529  0.00  0.00    +0.072 C 
BRANCH  20  21
ATOM     21  C   UNL     1      -1.270   5.508  -6.999  0.00  0.00    +0.017 C 
BRANCH  21  22
ATOM     22  C   UNL     1      -0.159   5.066  -7.905  0.00  0.00    +0.001 C 
BRANCH  22  23
ATOM     23  C   UNL     1      -0.049   5.931  -9.152  0.00  0.00    +0.000 C 
BRANCH  23  24
ATOM     24  C   UNL     1       0.474   5.078 -10.287  0.00  0.00    +0.000 C 
BRANCH  24  26
ATOM     25  C   UNL     1      -0.190   7.102 -11.528  0.00  0.00    +0.000 C 
ATOM     26  C   UNL     1       0.717   5.897 -11.521  0.00  0.00    +0.000 C 
ENDBRANCH  24  26
ENDBRANCH  23  24
ENDBRANCH  22  23
ENDBRANCH  21  22
ENDBRANCH  20  21
ENDBRANCH  17  20
ENDBRANCH  16  17
ENDBRANCH  15  16
ENDBRANCH   1  15
TORSDOF 14
ENDMDL
MODEL 2
REMARK VINA RESULT:      -6.4      3.774      8.215
REMARK  Name = 
REMARK  14 active torsions:
REMARK  status: ('A' for Active; 'I' for Inactive)
REMARK    1  A    between atoms: C_2  and  C_3
REMARK    2  A    between atoms: C_3  and  C_4
REMARK    3  A    between atoms: C_4  and  C_5
REMARK    4  A    between atoms: C_5  and  C_6
REMARK    5  A    between atoms: C_6  and  C_7
REMARK    6  A    between atoms: C_7  and  N_8
REMARK    7  A    between atoms: N_8  and  C_9
REMARK    8  A    between atoms: N_8  and  C_11
REMARK    9  A    between atoms: C_11  and  C_12
REMARK   10  A    between atoms: C_12  and  C_13
REMARK   11  A    between atoms: C_13  and  C_14
REMARK   12  A    between atoms: C_14  and  C_16
REMARK   13  A    between atoms: C_19  and  N_20
REMARK   14  A    between atoms: N_20  and  S_21
REMARK                            x       y       z     vdW  Elec       q    Type
REMARK                         _______ _______ _______ _____ _____    ______ ____
ROOT
ATOM      1  C   UNL     1       2.726   5.980  -6.655  0.00  0.00    +0.039 C 
ENDROOT
BRANCH   1   2
ATOM      2  C   UNL     1       1.635   4.881  -7.239  0.00  0.00    +0.174 C 
ATOM      3  O   UNL     1       1.398   4.302  -5.851  0.00  0.00    -0.218 OA
BRANCH   2   4
ATOM      4  C   UNL     1       0.375   5.918  -7.127  0.00  0.00    +0.008 A 
ATOM      5  C   UNL     1      -0.837   5.238  -7.007  0.00  0.00    -0.000 A 
ATOM      6  C   UNL     1      -1.809   5.541  -6.101  0.00  0.00    +0.018 A 
ATOM      7  C   UNL     1      -1.541   6.476  -5.112  0.00  0.00    +0.091 A 
ATOM      8  C   UNL     1      -0.349   7.151  -5.136  0.00  0.00    +0.018 A 
ATOM      9  C   UNL     1       0.614   6.778  -6.057  0.00  0.00    -0.000 A 
BRANCH   7  10
ATOM     10  N   UNL     1      -2.392   6.485  -3.958  0.00  0.00    -0.101 NA
BRANCH  10  11
ATOM     11  S   UNL     1      -1.790   5.981  -2.428  0.00  0.00    +0.075 S 
ATOM     12  O   UNL     1      -2.700   4.893  -1.965  0.00  0.00    -0.153 OA
ATOM     13  O   UNL     1      -1.790   7.159  -1.523  0.00  0.00    -0.153 OA
ATOM     14  C   UNL     1      -0.192   5.289  -2.681  0.00  0.00    +0.202 C 
ENDBRANCH  10  11
ENDBRANCH   7  10
ENDBRANCH   2   4
ENDBRANCH   1   2
BRANCH   1  15
ATOM     15  C   UNL     1       3.719   6.005  -7.815  0.00  0.00    +0.020 C 
BRANCH  15  16
ATOM     16  C   UNL     1       3.230   6.948  -8.872  0.00  0.00    +0.072 C 
BRANCH  16  17
ATOM     17  N   UNL     1       3.588   6.637 -10.198  0.00  0.00    -0.273 NA
BRANCH  17  18
ATOM     18  C   UNL     1       2.655   5.746 -10.804  0.00  0.00    +0.072 C 
ATOM     19  C   UNL     1       1.277   6.372 -10.690  0.00  0.00    +0.019 C 
ENDBRANCH  17  18
BRANCH  17  20
ATOM     20  C   UNL     1       4.965   6.321 -10.437  0.00  0.00    +0.072 C 
BRANCH  20  21
ATOM     21  C   UNL     1       5.595   7.616 -10.921  0.00  0.00    +0.017 C 
BRANCH  21  22
ATOM     22  C   UNL     1       7.093   7.563 -10.954  0.00  0.00    +0.001 C 
BRANCH  22  23
ATOM     23  C   UNL     1       7.643   6.296 -10.317  0.00  0.00    +0.000 C 
BRANCH  23  24
ATOM     24  C   UNL     1       8.002   5.319 -11.415  0.00  0.00    +0.000 C 
BRANCH  24  26
ATOM     25  C   UNL     1       7.385   5.513 -13.794  0.00  0.00    +0.000 C 
ATOM     26  C   UNL     1       8.294   6.027 -12.705  0.00  0.00    +0.000 C 
ENDBRANCH  24  26
ENDBRANCH  23  24
ENDBRANCH  22  23
ENDBRANCH  21  22
ENDBRANCH  20  21
ENDBRANCH  17  20
ENDBRANCH  16  17
ENDBRANCH  15  16
ENDBRANCH   1  15
TORSDOF 14
ENDMDL
MODEL 3
REMARK VINA RESULT:      -6.4      2.239      4.031
REMARK  Name = 
REMARK  14 active torsions:
REMARK  status: ('A' for Active; 'I' for Inactive)
REMARK    1  A    between atoms: C_2  and  C_3
REMARK    2  A    between atoms: C_3  and  C_4
REMARK    3  A    between atoms: C_4  and  C_5
REMARK    4  A    between atoms: C_5  and  C_6
REMARK    5  A    between atoms: C_6  and  C_7
REMARK    6  A    between atoms: C_7  and  N_8
REMARK    7  A    between atoms: N_8  and  C_9
REMARK    8  A    between atoms: N_8  and  C_11
REMARK    9  A    between atoms: C_11  and  C_12
REMARK   10  A    between atoms: C_12  and  C_13
REMARK   11  A    between atoms: C_13  and  C_14
REMARK   12  A    between atoms: C_14  and  C_16
REMARK   13  A    between atoms: C_19  and  N_20
REMARK   14  A    between atoms: N_20  and  S_21
REMARK                            x       y       z     vdW  Elec       q    Type
REMARK                         _______ _______ _______ _____ _____    ______ ____
ROOT
ATOM      1  C   UNL     1       2.371   5.149  -7.565  0.00  0.00    +0.039 C 
ENDROOT
BRANCH   1   2
ATOM      2  C   UNL     1       3.414   4.383  -8.598  0.00  0.00    +0.174 C 
ATOM      3  O   UNL     1       2.613   4.826  -9.815  0.00  0.00    -0.218 OA
BRANCH   2   4
ATOM      4  C   UNL     1       4.431   5.661  -8.682  0.00  0.00    +0.008 A 
ATOM      5  C   UNL     1       5.753   5.251  -8.858  0.00  0.00    -0.000 A 
ATOM      6  C   UNL     1       6.616   5.788  -9.766  0.00  0.00    +0.018 A 
ATOM      7  C   UNL     1       6.134   6.690 -10.702  0.00  0.00    +0.091 A 
ATOM      8  C   UNL     1       4.831   7.105 -10.622  0.00  0.00    +0.018 A 
ATOM      9  C   UNL     1       3.992   6.500  -9.704  0.00  0.00    -0.000 A 
BRANCH   7  10
ATOM     10  N   UNL     1       6.932   6.927 -11.870  0.00  0.00    -0.101 NA
BRANCH  10  11
ATOM     11  S   UNL     1       6.914   5.810 -13.178  0.00  0.00    +0.075 S 
ATOM     12  O   UNL     1       7.764   4.661 -12.752  0.00  0.00    -0.153 OA
ATOM     13  O   UNL     1       7.440   6.504 -14.381  0.00  0.00    -0.153 OA
ATOM     14  C   UNL     1       5.263   5.231 -13.366  0.00  0.00    +0.202 C 
ENDBRANCH  10  11
ENDBRANCH   7  10
ENDBRANCH   2   4
ENDBRANCH   1   2
BRANCH   1  15
ATOM     15  C   UNL     1       2.221   4.068  -6.497  0.00  0.00    +0.020 C 
BRANCH  15  16
ATOM     16  C   UNL     1       2.599   4.630  -5.160  0.00  0.00    +0.072 C 
BRANCH  16  17
ATOM     17  N   UNL     1       3.076   5.955  -5.154  0.00  0.00    -0.273 NA
BRANCH  17  18
ATOM     18  C   UNL     1       4.493   6.008  -5.009  0.00  0.00    +0.072 C 
ATOM     19  C   UNL     1       4.853   7.383  -4.480  0.00  0.00    +0.019 C 
ENDBRANCH  17  18
BRANCH  17  20
ATOM     20  C   UNL     1       2.353   6.897  -4.352  0.00  0.00    +0.072 C 
BRANCH  20  21
ATOM     21  C   UNL     1       0.919   6.396  -4.341  0.00  0.00    +0.017 C 
BRANCH  21  22
ATOM     22  C   UNL     1       0.018   7.175  -5.253  0.00  0.00    +0.001 C 
BRANCH  22  23
ATOM     23  C   UNL     1      -1.256   7.632  -4.558  0.00  0.00    +0.000 C 
BRANCH  23  24
ATOM     24  C   UNL     1      -2.443   7.039  -5.285  0.00  0.00    +0.000 C 
BRANCH  24  26
ATOM     25  C   UNL     1      -2.960   5.310  -3.605  0.00  0.00    +0.000 C 
ATOM     26  C   UNL     1      -2.556   5.563  -5.036  0.00  0.00    +0.000 C 
ENDBRANCH  24  26
ENDBRANCH  23  24
ENDBRANCH  22  23
ENDBRANCH  21  22
ENDBRANCH  20  21
ENDBRANCH  17  20
ENDBRANCH  16  17
ENDBRANCH  15  16
ENDBRANCH   1  15
TORSDOF 14
ENDMDL
MODEL 4
REMARK VINA RESULT:      -6.3      1.845      3.994
REMARK  Name = 
REMARK  14 active torsions:
REMARK  status: ('A' for Active; 'I' for Inactive)
REMARK    1  A    between atoms: C_2  and  C_3
REMARK    2  A    between atoms: C_3  and  C_4
REMARK    3  A    between atoms: C_4  and  C_5
REMARK    4  A    between atoms: C_5  and  C_6
REMARK    5  A    between atoms: C_6  and  C_7
REMARK    6  A    between atoms: C_7  and  N_8
REMARK    7  A    between atoms: N_8  and  C_9
REMARK    8  A    between atoms: N_8  and  C_11
REMARK    9  A    between atoms: C_11  and  C_12
REMARK   10  A    between atoms: C_12  and  C_13
REMARK   11  A    between atoms: C_13  and  C_14
REMARK   12  A    between atoms: C_14  and  C_16
REMARK   13  A    between atoms: C_19  and  N_20
REMARK   14  A    between atoms: N_20  and  S_21
REMARK                            x       y       z     vdW  Elec       q    Type
REMARK                         _______ _______ _______ _____ _____    ______ ____
ROOT
ATOM      1  C   UNL     1       0.847   5.523  -8.709  0.00  0.00    +0.039 C 
ENDROOT
BRANCH   1   2
ATOM      2  C   UNL     1       1.932   4.819  -7.677  0.00  0.00    +0.174 C 
ATOM      3  O   UNL     1       2.326   3.782  -8.719  0.00  0.00    -0.218 OA
BRANCH   2   4
ATOM      4  C   UNL     1       3.143   5.837  -8.092  0.00  0.00    +0.008 A 
ATOM      5  C   UNL     1       4.389   5.222  -7.976  0.00  0.00    -0.000 A 
ATOM      6  C   UNL     1       5.372   5.280  -8.918  0.00  0.00    +0.018 A 
ATOM      7  C   UNL     1       5.089   5.842 -10.154  0.00  0.00    +0.091 A 
ATOM      8  C   UNL     1       3.867   6.424 -10.359  0.00  0.00    +0.018 A 
ATOM      9  C   UNL     1       2.896   6.304  -9.381  0.00  0.00    -0.000 A 
BRANCH   7  10
ATOM     10  N   UNL     1       5.973   5.537 -11.241  0.00  0.00    -0.101 NA
BRANCH  10  11
ATOM     11  S   UNL     1       7.068   6.724 -11.833  0.00  0.00    +0.075 S 
ATOM     12  O   UNL     1       7.232   7.718 -10.733  0.00  0.00    -0.153 OA
ATOM     13  O   UNL     1       6.483   7.315 -13.064  0.00  0.00    -0.153 OA
ATOM     14  C   UNL     1       8.619   5.938 -12.099  0.00  0.00    +0.202 C 
ENDBRANCH  10  11
ENDBRANCH   7  10
ENDBRANCH   2   4
ENDBRANCH   1   2
BRANCH   1  15
ATOM     15  C   UNL     1      -0.393   5.537  -7.817  0.00  0.00    +0.020 C 
BRANCH  15  16
ATOM     16  C   UNL     1      -0.041   4.995  -6.464  0.00  0.00    +0.072 C 
BRANCH  16  17
ATOM     17  N   UNL     1      -0.737   5.548  -5.372  0.00  0.00    -0.273 NA
BRANCH  17  18
ATOM     18  C   UNL     1      -2.076   5.895  -5.716  0.00  0.00    +0.072 C 
ATOM     19  C   UNL     1      -2.387   7.233  -5.073  0.00  0.00    +0.019 C 
ENDBRANCH  17  18
BRANCH  17  20
ATOM     20  C   UNL     1      -0.041   6.531  -4.595  0.00  0.00    +0.072 C 
BRANCH  20  21
ATOM     21  C   UNL     1       1.009   5.756  -3.817  0.00  0.00    +0.017 C 
BRANCH  21  22
ATOM     22  C   UNL     1       2.412   6.087  -4.233  0.00  0.00    +0.001 C 
BRANCH  22  23
ATOM     23  C   UNL     1       3.381   4.946  -3.964  0.00  0.00    +0.000 C 
BRANCH  23  24
ATOM     24  C   UNL     1       4.775   5.395  -4.345  0.00  0.00    +0.000 C 
BRANCH  24  26
ATOM     25  C   UNL     1       5.639   7.673  -3.965  0.00  0.00    +0.000 C 
ATOM     26  C   UNL     1       4.776   6.809  -4.850  0.00  0.00    +0.000 C 
ENDBRANCH  24  26
ENDBRANCH  23  24
ENDBRANCH  22  23
ENDBRANCH  21  22
ENDBRANCH  20  21
ENDBRANCH  17  20
ENDBRANCH  16  17
ENDBRANCH  15  16
ENDBRANCH   1  15
TORSDOF 14
ENDMDL
MODEL 5
REMARK VINA RESULT:      -6.2      1.904      3.694
REMARK  Name = 
REMARK  14 active torsions:
REMARK  status: ('A' for Active; 'I' for Inactive)
REMARK    1  A    between atoms: C_2  and  C_3
REMARK    2  A    between atoms: C_3  and  C_4
REMARK    3  A    between atoms: C_4  and  C_5
REMARK    4  A    between atoms: C_5  and  C_6
REMARK    5  A    between atoms: C_6  and  C_7
REMARK    6  A    between atoms: C_7  and  N_8
REMARK    7  A    between atoms: N_8  and  C_9
REMARK    8  A    between atoms: N_8  and  C_11
REMARK    9  A    between atoms: C_11  and  C_12
REMARK   10  A    between atoms: C_12  and  C_13
REMARK   11  A    between atoms: C_13  and  C_14
REMARK   12  A    between atoms: C_14  and  C_16
REMARK   13  A    between atoms: C_19  and  N_20
REMARK   14  A    between atoms: N_20  and  S_21
REMARK                            x       y       z     vdW  Elec       q    Type
REMARK                         _______ _______ _______ _____ _____    ______ ____
ROOT
ATOM      1  C   UNL     1       1.426   6.477  -7.638  0.00  0.00    +0.039 C 
ENDROOT
BRANCH   1   2
ATOM      2  C   UNL     1       2.590   5.364  -7.255  0.00  0.00    +0.174 C 
ATOM      3  O   UNL     1       2.231   4.500  -8.455  0.00  0.00    -0.218 OA
BRANCH   2   4
ATOM      4  C   UNL     1       3.766   6.166  -8.062  0.00  0.00    +0.008 A 
ATOM      5  C   UNL     1       4.899   5.371  -8.235  0.00  0.00    -0.000 A 
ATOM      6  C   UNL     1       5.579   5.238  -9.409  0.00  0.00    +0.018 A 
ATOM      7  C   UNL     1       5.044   5.786 -10.565  0.00  0.00    +0.091 A 
ATOM      8  C   UNL     1       3.904   6.542 -10.480  0.00  0.00    +0.018 A 
ATOM      9  C   UNL     1       3.237   6.613  -9.270  0.00  0.00    -0.000 A 
BRANCH   7  10
ATOM     10  N   UNL     1       5.540   5.305 -11.821  0.00  0.00    -0.101 NA
BRANCH  10  11
ATOM     11  S   UNL     1       7.048   5.861 -12.433  0.00  0.00    +0.075 S 
ATOM     12  O   UNL     1       7.906   4.649 -12.577  0.00  0.00    -0.153 OA
ATOM     13  O   UNL     1       7.598   6.847 -11.468  0.00  0.00    -0.153 OA
ATOM     14  C   UNL     1       6.764   6.527 -14.036  0.00  0.00    +0.202 C 
ENDBRANCH  10  11
ENDBRANCH   7  10
ENDBRANCH   2   4
ENDBRANCH   1   2
BRANCH   1  15
ATOM     15  C   UNL     1       1.100   7.005  -6.243  0.00  0.00    +0.020 C 
BRANCH  15  16
ATOM     16  C   UNL     1       1.210   5.891  -5.247  0.00  0.00    +0.072 C 
BRANCH  16  17
ATOM     17  N   UNL     1       1.320   6.271  -3.895  0.00  0.00    -0.273 NA
BRANCH  17  18
ATOM     18  C   UNL     1       2.651   6.651  -3.558  0.00  0.00    +0.072 C 
ATOM     19  C   UNL     1       3.490   5.389  -3.494  0.00  0.00    +0.019 C 
ENDBRANCH  17  18
BRANCH  17  20
ATOM     20  C   UNL     1       0.672   5.429  -2.934  0.00  0.00    +0.072 C 
BRANCH  20  21
ATOM     21  C   UNL     1      -0.603   6.163  -2.553  0.00  0.00    +0.017 C 
BRANCH  21  22
ATOM     22  C   UNL     1      -1.796   5.258  -2.462  0.00  0.00    +0.001 C 
BRANCH  22  23
ATOM     23  C   UNL     1      -2.758   5.449  -3.626  0.00  0.00    +0.000 C 
BRANCH  23  24
ATOM     24  C   UNL     1      -2.678   6.887  -4.089  0.00  0.00    +0.000 C 
BRANCH  24  26
ATOM     25  C   UNL     1      -2.401   5.588  -6.167  0.00  0.00    +0.000 C 
ATOM     26  C   UNL     1      -2.476   6.973  -5.574  0.00  0.00    +0.000 C 
ENDBRANCH  24  26
ENDBRANCH  23  24
ENDBRANCH  22  23
ENDBRANCH  21  22
ENDBRANCH  20  21
ENDBRANCH  17  20
ENDBRANCH  16  17
ENDBRANCH  15  16
ENDBRANCH   1  15
TORSDOF 14
ENDMDL
MODEL 6
REMARK VINA RESULT:      -6.2      3.883      8.365
REMARK  Name = 
REMARK  14 active torsions:
REMARK  status: ('A' for Active; 'I' for Inactive)
REMARK    1  A    between atoms: C_2  and  C_3
REMARK    2  A    between atoms: C_3  and  C_4
REMARK    3  A    between atoms: C_4  and  C_5
REMARK    4  A    between atoms: C_5  and  C_6
REMARK    5  A    between atoms: C_6  and  C_7
REMARK    6  A    between atoms: C_7  and  N_8
REMARK    7  A    between atoms: N_8  and  C_9
REMARK    8  A    between atoms: N_8  and  C_11
REMARK    9  A    between atoms: C_11  and  C_12
REMARK   10  A    between atoms: C_12  and  C_13
REMARK   11  A    between atoms: C_13  and  C_14
REMARK   12  A    between atoms: C_14  and  C_16
REMARK   13  A    between atoms: C_19  and  N_20
REMARK   14  A    between atoms: N_20  and  S_21
REMARK                            x       y       z     vdW  Elec       q    Type
REMARK                         _______ _______ _______ _____ _____    ______ ____
ROOT
ATOM      1  C   UNL     1      -0.137   5.727  -8.898  0.00  0.00    +0.039 C 
ENDROOT
BRANCH   1   2
ATOM      2  C   UNL     1       1.208   5.396  -7.991  0.00  0.00    +0.174 C 
ATOM      3  O   UNL     1       1.205   6.793  -7.386  0.00  0.00    -0.218 OA
BRANCH   2   4
ATOM      4  C   UNL     1       0.344   4.756  -6.759  0.00  0.00    +0.008 A 
ATOM      5  C   UNL     1       1.054   4.804  -5.559  0.00  0.00    -0.000 A 
ATOM      6  C   UNL     1       0.538   5.226  -4.370  0.00  0.00    +0.018 A 
ATOM      7  C   UNL     1      -0.722   5.805  -4.350  0.00  0.00    +0.091 A 
ATOM      8  C   UNL     1      -1.461   5.837  -5.502  0.00  0.00    +0.018 A 
ATOM      9  C   UNL     1      -0.874   5.427  -6.686  0.00  0.00    -0.000 A 
BRANCH   7  10
ATOM     10  N   UNL     1      -1.073   6.592  -3.204  0.00  0.00    -0.101 NA
BRANCH  10  11
ATOM     11  S   UNL     1      -1.656   5.836  -1.773  0.00  0.00    +0.075 S 
ATOM     12  O   UNL     1      -0.480   5.154  -1.159  0.00  0.00    -0.153 OA
ATOM     13  O   UNL     1      -2.735   4.891  -2.160  0.00  0.00    -0.153 OA
ATOM     14  C   UNL     1      -2.191   7.103  -0.676  0.00  0.00    +0.202 C 
ENDBRANCH  10  11
ENDBRANCH   7  10
ENDBRANCH   2   4
ENDBRANCH   1   2
BRANCH   1  15
ATOM     15  C   UNL     1       0.275   5.084 -10.221  0.00  0.00    +0.020 C 
BRANCH  15  16
ATOM     16  C   UNL     1       0.568   6.155 -11.228  0.00  0.00    +0.072 C 
BRANCH  16  17
ATOM     17  N   UNL     1       1.904   6.253 -11.662  0.00  0.00    -0.273 NA
BRANCH  17  18
ATOM     18  C   UNL     1       1.989   6.506 -13.062  0.00  0.00    +0.072 C 
ATOM     19  C   UNL     1       0.635   7.013 -13.523  0.00  0.00    +0.019 C 
ENDBRANCH  17  18
BRANCH  17  20
ATOM     20  C   UNL     1       2.816   5.261 -11.173  0.00  0.00    +0.072 C 
BRANCH  20  21
ATOM     21  C   UNL     1       3.975   6.042 -10.577  0.00  0.00    +0.017 C 
BRANCH  21  22
ATOM     22  C   UNL     1       4.561   5.387  -9.362  0.00  0.00    +0.001 C 
BRANCH  22  23
ATOM     23  C   UNL     1       6.067   5.585  -9.266  0.00  0.00    +0.000 C 
BRANCH  23  24
ATOM     24  C   UNL     1       6.598   5.930 -10.640  0.00  0.00    +0.000 C 
BRANCH  24  26
ATOM     25  C   UNL     1       6.612   8.274 -11.403  0.00  0.00    +0.000 C 
ATOM     26  C   UNL     1       7.361   7.222 -10.624  0.00  0.00    +0.000 C 
ENDBRANCH  24  26
ENDBRANCH  23  24
ENDBRANCH  22  23
ENDBRANCH  21  22
ENDBRANCH  20  21
ENDBRANCH  17  20
ENDBRANCH  16  17
ENDBRANCH  15  16
ENDBRANCH   1  15
TORSDOF 14
ENDMDL
MODEL 7
REMARK VINA RESULT:      -6.1      4.270      7.546
REMARK  Name = 
REMARK  14 active torsions:
REMARK  status: ('A' for Active; 'I' for Inactive)
REMARK    1  A    between atoms: C_2  and  C_3
REMARK    2  A    between atoms: C_3  and  C_4
REMARK    3  A    between atoms: C_4  and  C_5
REMARK    4  A    between atoms: C_5  and  C_6
REMARK    5  A    between atoms: C_6  and  C_7
REMARK    6  A    between atoms: C_7  and  N_8
REMARK    7  A    between atoms: N_8  and  C_9
REMARK    8  A    between atoms: N_8  and  C_11
REMARK    9  A    between atoms: C_11  and  C_12
REMARK   10  A    between atoms: C_12  and  C_13
REMARK   11  A    between atoms: C_13  and  C_14
REMARK   12  A    between atoms: C_14  and  C_16
REMARK   13  A    between atoms: C_19  and  N_20
REMARK   14  A    between atoms: N_20  and  S_21
REMARK                            x       y       z     vdW  Elec       q    Type
REMARK                         _______ _______ _______ _____ _____    ______ ____
ROOT
ATOM      1  C   UNL     1       2.641   6.880  -6.334  0.00  0.00    +0.039 C 
ENDROOT
BRANCH   1   2
ATOM      2  C   UNL     1       4.141   6.400  -5.825  0.00  0.00    +0.174 C 
ATOM      3  O   UNL     1       4.184   7.488  -4.762  0.00  0.00    -0.218 OA
BRANCH   2   4
ATOM      4  C   UNL     1       3.544   5.280  -4.792  0.00  0.00    +0.008 A 
ATOM      5  C   UNL     1       4.449   4.995  -3.770  0.00  0.00    -0.000 A 
ATOM      6  C   UNL     1       4.126   4.922  -2.448  0.00  0.00    +0.018 A 
ATOM      7  C   UNL     1       2.859   5.310  -2.040  0.00  0.00    +0.091 A 
ATOM      8  C   UNL     1       1.928   5.651  -2.986  0.00  0.00    +0.018 A 
ATOM      9  C   UNL     1       2.321   5.742  -4.309  0.00  0.00    -0.000 A 
BRANCH   7  10
ATOM     10  N   UNL     1       2.670   5.611  -0.651  0.00  0.00    -0.101 NA
BRANCH  10  11
ATOM     11  S   UNL     1       3.273   7.078   0.012  0.00  0.00    +0.075 S 
ATOM     12  O   UNL     1       4.405   6.693   0.905  0.00  0.00    -0.153 OA
ATOM     13  O   UNL     1       2.163   7.743   0.741  0.00  0.00    -0.153 OA
ATOM     14  C   UNL     1       3.920   8.040  -1.311  0.00  0.00    +0.202 C 
ENDBRANCH  10  11
ENDBRANCH   7  10
ENDBRANCH   2   4
ENDBRANCH   1   2
BRANCH   1  15
ATOM     15  C   UNL     1       2.765   6.588  -7.828  0.00  0.00    +0.020 C 
BRANCH  15  16
ATOM     16  C   UNL     1       2.137   5.261  -8.131  0.00  0.00    +0.072 C 
BRANCH  16  17
ATOM     17  N   UNL     1       1.047   5.277  -9.022  0.00  0.00    -0.273 NA
BRANCH  17  18
ATOM     18  C   UNL     1       1.425   5.744 -10.315  0.00  0.00    +0.072 C 
ATOM     19  C   UNL     1       0.310   6.635 -10.829  0.00  0.00    +0.019 C 
ENDBRANCH  17  18
BRANCH  17  20
ATOM     20  C   UNL     1      -0.185   5.815  -8.524  0.00  0.00    +0.072 C 
BRANCH  20  21
ATOM     21  C   UNL     1      -0.525   4.973  -7.305  0.00  0.00    +0.017 C 
BRANCH  21  22
ATOM     22  C   UNL     1      -1.679   5.519  -6.518  0.00  0.00    +0.001 C 
BRANCH  22  23
ATOM     23  C   UNL     1      -1.279   5.922  -5.106  0.00  0.00    +0.000 C 
BRANCH  23  24
ATOM     24  C   UNL     1      -0.934   7.396  -5.103  0.00  0.00    +0.000 C 
BRANCH  24  26
ATOM     25  C   UNL     1      -2.343   7.314  -3.081  0.00  0.00    +0.000 C 
ATOM     26  C   UNL     1      -1.869   8.175  -4.225  0.00  0.00    +0.000 C 
ENDBRANCH  24  26
ENDBRANCH  23  24
ENDBRANCH  22  23
ENDBRANCH  21  22
ENDBRANCH  20  21
ENDBRANCH  17  20
ENDBRANCH  16  17
ENDBRANCH  15  16
ENDBRANCH   1  15
TORSDOF 14
ENDMDL
MODEL 8
REMARK VINA RESULT:      -6.0      3.344      6.243
REMARK  Name = 
REMARK  14 active torsions:
REMARK  status: ('A' for Active; 'I' for Inactive)
REMARK    1  A    between atoms: C_2  and  C_3
REMARK    2  A    between atoms: C_3  and  C_4
REMARK    3  A    between atoms: C_4  and  C_5
REMARK    4  A    between atoms: C_5  and  C_6
REMARK    5  A    between atoms: C_6  and  C_7
REMARK    6  A    between atoms: C_7  and  N_8
REMARK    7  A    between atoms: N_8  and  C_9
REMARK    8  A    between atoms: N_8  and  C_11
REMARK    9  A    between atoms: C_11  and  C_12
REMARK   10  A    between atoms: C_12  and  C_13
REMARK   11  A    between atoms: C_13  and  C_14
REMARK   12  A    between atoms: C_14  and  C_16
REMARK   13  A    between atoms: C_19  and  N_20
REMARK   14  A    between atoms: N_20  and  S_21
REMARK                            x       y       z     vdW  Elec       q    Type
REMARK                         _______ _______ _______ _____ _____    ______ ____
ROOT
ATOM      1  C   UNL     1      -2.548   7.091  -2.950  0.00  0.00    +0.039 C 
ENDROOT
BRANCH   1   2
ATOM      2  C   UNL     1      -1.810   5.735  -3.548  0.00  0.00    +0.174 C 
ATOM      3  O   UNL     1      -3.135   5.168  -4.037  0.00  0.00    -0.218 OA
BRANCH   2   4
ATOM      4  C   UNL     1      -1.467   6.433  -4.988  0.00  0.00    +0.008 A 
ATOM      5  C   UNL     1      -0.128   6.817  -5.062  0.00  0.00    -0.000 A 
ATOM      6  C   UNL     1       0.689   6.574  -6.125  0.00  0.00    +0.018 A 
ATOM      7  C   UNL     1       0.239   5.751  -7.147  0.00  0.00    +0.091 A 
ATOM      8  C   UNL     1      -1.052   5.295  -7.118  0.00  0.00    +0.018 A 
ATOM      9  C   UNL     1      -1.825   5.543  -5.998  0.00  0.00    -0.000 A 
BRANCH   7  10
ATOM     10  N   UNL     1       1.220   5.188  -8.028  0.00  0.00    -0.101 NA
BRANCH  10  11
ATOM     11  S   UNL     1       1.300   5.683  -9.673  0.00  0.00    +0.075 S 
ATOM     12  O   UNL     1       2.694   5.400 -10.122  0.00  0.00    -0.153 OA
ATOM     13  O   UNL     1       0.953   7.126  -9.736  0.00  0.00    -0.153 OA
ATOM     14  C   UNL     1       0.208   4.657 -10.596  0.00  0.00    +0.202 C 
ENDBRANCH  10  11
ENDBRANCH   7  10
ENDBRANCH   2   4
ENDBRANCH   1   2
BRANCH   1  15
ATOM     15  C   UNL     1      -2.260   6.910  -1.461  0.00  0.00    +0.020 C 
BRANCH  15  16
ATOM     16  C   UNL     1      -0.998   6.120  -1.288  0.00  0.00    +0.072 C 
BRANCH  16  17
ATOM     17  N   UNL     1      -0.198   6.458  -0.179  0.00  0.00    -0.273 NA
BRANCH  17  18
ATOM     18  C   UNL     1      -0.789   7.492   0.605  0.00  0.00    +0.072 C 
ATOM     19  C   UNL     1       0.253   8.577   0.799  0.00  0.00    +0.019 C 
ENDBRANCH  17  18
BRANCH  17  20
ATOM     20  C   UNL     1       1.206   6.612  -0.420  0.00  0.00    +0.072 C 
BRANCH  20  21
ATOM     21  C   UNL     1       1.434   6.070  -1.820  0.00  0.00    +0.017 C 
BRANCH  21  22
ATOM     22  C   UNL     1       2.801   6.378  -2.354  0.00  0.00    +0.001 C 
BRANCH  22  23
ATOM     23  C   UNL     1       3.666   5.133  -2.487  0.00  0.00    +0.000 C 
BRANCH  23  24
ATOM     24  C   UNL     1       4.583   5.306  -3.678  0.00  0.00    +0.000 C 
BRANCH  24  26
ATOM     25  C   UNL     1       4.353   5.859  -6.070  0.00  0.00    +0.000 C 
ATOM     26  C   UNL     1       3.888   4.949  -4.960  0.00  0.00    +0.000 C 
ENDBRANCH  24  26
ENDBRANCH  23  24
ENDBRANCH  22  23
ENDBRANCH  21  22
ENDBRANCH  20  21
ENDBRANCH  17  20
ENDBRANCH  16  17
ENDBRANCH  15  16
ENDBRANCH   1  15
TORSDOF 14
ENDMDL
MODEL 9
REMARK VINA RESULT:      -6.0      3.489      5.882
REMARK  Name = 
REMARK  14 active torsions:
REMARK  status: ('A' for Active; 'I' for Inactive)
REMARK    1  A    between atoms: C_2  and  C_3
REMARK    2  A    between atoms: C_3  and  C_4
REMARK    3  A    between atoms: C_4  and  C_5
REMARK    4  A    between atoms: C_5  and  C_6
REMARK    5  A    between atoms: C_6  and  C_7
REMARK    6  A    between atoms: C_7  and  N_8
REMARK    7  A    between atoms: N_8  and  C_9
REMARK    8  A    between atoms: N_8  and  C_11
REMARK    9  A    between atoms: C_11  and  C_12
REMARK   10  A    between atoms: C_12  and  C_13
REMARK   11  A    between atoms: C_13  and  C_14
REMARK   12  A    between atoms: C_14  and  C_16
REMARK   13  A    between atoms: C_19  and  N_20
REMARK   14  A    between atoms: N_20  and  S_21
REMARK                            x       y       z     vdW  Elec       q    Type
REMARK                         _______ _______ _______ _____ _____    ______ ____
ROOT
ATOM      1  C   UNL     1       0.435   6.077  -3.302  0.00  0.00    +0.039 C 
ENDROOT
BRANCH   1   2
ATOM      2  C   UNL     1      -1.106   5.669  -3.748  0.00  0.00    +0.174 C 
ATOM      3  O   UNL     1      -1.681   6.911  -3.082  0.00  0.00    -0.218 OA
BRANCH   2   4
ATOM      4  C   UNL     1      -0.983   6.392  -5.210  0.00  0.00    +0.008 A 
ATOM      5  C   UNL     1       0.327   6.795  -5.472  0.00  0.00    -0.000 A 
ATOM      6  C   UNL     1       0.984   6.578  -6.646  0.00  0.00    +0.018 A 
ATOM      7  C   UNL     1       0.399   5.764  -7.606  0.00  0.00    +0.091 A 
ATOM      8  C   UNL     1      -0.869   5.292  -7.397  0.00  0.00    +0.018 A 
ATOM      9  C   UNL     1      -1.474   5.513  -6.173  0.00  0.00    -0.000 A 
BRANCH   7  10
ATOM     10  N   UNL     1       1.248   5.227  -8.629  0.00  0.00    -0.101 NA
BRANCH  10  11
ATOM     11  S   UNL     1       1.082   5.746 -10.260  0.00  0.00    +0.075 S 
ATOM     12  O   UNL     1       0.587   7.152 -10.197  0.00  0.00    -0.153 OA
ATOM     13  O   UNL     1       0.131   4.829 -10.939  0.00  0.00    -0.153 OA
ATOM     14  C   UNL     1       2.685   5.760 -10.985  0.00  0.00    +0.202 C 
ENDBRANCH  10  11
ENDBRANCH   7  10
ENDBRANCH   2   4
ENDBRANCH   1   2
BRANCH   1  15
ATOM     15  C   UNL     1       0.456   5.509  -1.884  0.00  0.00    +0.020 C 
BRANCH  15  16
ATOM     16  C   UNL     1       1.337   6.358  -1.018  0.00  0.00    +0.072 C 
BRANCH  16  17
ATOM     17  N   UNL     1       2.499   5.740  -0.517  0.00  0.00    -0.273 NA
BRANCH  17  18
ATOM     18  C   UNL     1       3.516   6.692  -0.214  0.00  0.00    +0.072 C 
ATOM     19  C   UNL     1       2.882   8.071  -0.244  0.00  0.00    +0.019 C 
ENDBRANCH  17  18
BRANCH  17  20
ATOM     20  C   UNL     1       2.956   4.569  -1.206  0.00  0.00    +0.072 C 
BRANCH  20  21
ATOM     21  C   UNL     1       4.232   4.993  -1.913  0.00  0.00    +0.017 C 
BRANCH  21  22
ATOM     22  C   UNL     1       4.106   4.986  -3.407  0.00  0.00    +0.001 C 
BRANCH  22  23
ATOM     23  C   UNL     1       3.930   6.385  -3.980  0.00  0.00    +0.000 C 
BRANCH  23  24
ATOM     24  C   UNL     1       4.630   6.450  -5.320  0.00  0.00    +0.000 C 
BRANCH  24  26
ATOM     25  C   UNL     1       4.749   5.530  -7.604  0.00  0.00    +0.000 C 
ATOM     26  C   UNL     1       4.217   5.314  -6.210  0.00  0.00    +0.000 C 
ENDBRANCH  24  26
ENDBRANCH  23  24
ENDBRANCH  22  23
ENDBRANCH  21  22
ENDBRANCH  20  21
ENDBRANCH  17  20
ENDBRANCH  16  17
ENDBRANCH  15  16
ENDBRANCH   1  15
TORSDOF 14
ENDMDL
