MODEL 1
REMARK VINA RESULT:      -7.2      0.000      0.000
REMARK  Name = 
REMARK  6 active torsions:
REMARK  status: ('A' for Active; 'I' for Inactive)
REMARK    1  A    between atoms: C_6  and  C_7
REMARK    2  A    between atoms: C_7  and  O_8
REMARK    3  A    between atoms: O_8  and  C_9
REMARK    4  A    between atoms: C_9  and  C_10
REMARK    5  A    between atoms: C_9  and  C_16
REMARK    6  A    between atoms: C_10  and  N_11
REMARK                            x       y       z     vdW  Elec       q    Type
REMARK                         _______ _______ _______ _____ _____    ______ ____
ROOT
ATOM      1  C   UNL     1       2.789   5.880  -4.556  0.00  0.00    +0.161 C 
ENDROOT
BRANCH   1   2
ATOM      2  C   UNL     1       1.179   5.548  -4.473  0.00  0.00    +0.017 A 
ATOM      3  C   UNL     1       0.915   4.853  -5.655  0.00  0.00    +0.057 A 
ATOM      4 CL   UNL     1       2.009   3.616  -6.263  0.00  0.00    -0.082 Cl
ATOM      5  C   UNL     1      -0.373   4.872  -6.178  0.00  0.00    +0.023 A 
ATOM      6  C   UNL     1      -1.346   5.658  -5.606  0.00  0.00    +0.058 A 
ATOM      7 CL   UNL     1      -2.773   6.141  -6.520  0.00  0.00    -0.082 Cl
ATOM      8  C   UNL     1      -1.011   6.316  -4.445  0.00  0.00    +0.011 A 
ATOM      9  C   UNL     1       0.334   6.560  -4.208  0.00  0.00    -0.000 A 
ENDBRANCH   1   2
BRANCH   1  10
ATOM     10  O   UNL     1       2.646   7.056  -5.554  0.00  0.00    -0.345 OA
BRANCH  10  11
ATOM     11  C   UNL     1       3.699   6.784  -6.405  0.00  0.00    +0.170 C 
BRANCH  11  14
ATOM     12 CL   UNL     1       5.743   5.445  -8.626  0.00  0.00    -0.075 Cl
ATOM     13  C   UNL     1       4.042   5.823  -8.726  0.00  0.00    +0.085 A 
ATOM     14  C   UNL     1       3.239   6.473  -7.795  0.00  0.00    +0.024 A 
ATOM     15  C   UNL     1       2.355   7.320  -8.454  0.00  0.00    +0.006 A 
ATOM     16  C   UNL     1       1.670   6.621  -9.441  0.00  0.00    +0.036 A 
ATOM     17  S   UNL     1       2.933   5.612 -10.018  0.00  0.00    -0.075 S 
ENDBRANCH  11  14
ENDBRANCH  10  11
ENDBRANCH   1  10
BRANCH   1  18
ATOM     18  C   UNL     1       2.709   6.880  -3.212  0.00  0.00    +0.142 C 
BRANCH  18  19
ATOM     19  N   UNL     1       3.696   6.326  -2.290  0.00  0.00    -0.305 N 
ATOM     20  C   UNL     1       3.639   6.540  -0.958  0.00  0.00    +0.179 A 
ATOM     21  N   UNL     1       4.249   5.529  -0.339  0.00  0.00    -0.222 NA
ATOM     22  C   UNL     1       4.064   4.440  -1.123  0.00  0.00    +0.119 A 
ATOM     23  C   UNL     1       3.942   4.995  -2.386  0.00  0.00    +0.098 A 
ENDBRANCH  18  19
ENDBRANCH   1  18
TORSDOF 6
ENDMDL
MODEL 2
REMARK VINA RESULT:      -7.0      4.268      8.294
REMARK  Name = 
REMARK  6 active torsions:
REMARK  status: ('A' for Active; 'I' for Inactive)
REMARK    1  A    between atoms: C_6  and  C_7
REMARK    2  A    between atoms: C_7  and  O_8
REMARK    3  A    between atoms: O_8  and  C_9
REMARK    4  A    between atoms: C_9  and  C_10
REMARK    5  A    between atoms: C_9  and  C_16
REMARK    6  A    between atoms: C_10  and  N_11
REMARK                            x       y       z     vdW  Elec       q    Type
REMARK                         _______ _______ _______ _____ _____    ______ ____
ROOT
ATOM      1  C   UNL     1       4.064   5.168 -10.566  0.00  0.00    +0.161 C 
ENDROOT
BRANCH   1   2
ATOM      2  C   UNL     1       5.326   6.064 -11.125  0.00  0.00    +0.017 A 
ATOM      3  C   UNL     1       5.699   5.424 -12.309  0.00  0.00    +0.057 A 
ATOM      4 CL   UNL     1       4.500   4.833 -13.454  0.00  0.00    -0.082 Cl
ATOM      5  C   UNL     1       7.003   5.557 -12.769  0.00  0.00    +0.023 A 
ATOM      6  C   UNL     1       7.947   6.211 -12.011  0.00  0.00    +0.058 A 
ATOM      7 CL   UNL     1       9.667   5.929 -12.265  0.00  0.00    -0.082 Cl
ATOM      8  C   UNL     1       7.506   6.814 -10.856  0.00  0.00    +0.011 A 
ATOM      9  C   UNL     1       6.339   6.332 -10.282  0.00  0.00    -0.000 A 
ENDBRANCH   1   2
BRANCH   1  10
ATOM     10  O   UNL     1       4.563   5.107  -9.101  0.00  0.00    -0.345 OA
BRANCH  10  11
ATOM     11  C   UNL     1       3.448   4.575  -8.486  0.00  0.00    +0.170 C 
BRANCH  11  14
ATOM     12 CL   UNL     1       0.548   5.096  -6.994  0.00  0.00    -0.075 Cl
ATOM     13  C   UNL     1       2.171   5.068  -6.352  0.00  0.00    +0.085 A 
ATOM     14  C   UNL     1       3.375   4.934  -7.035  0.00  0.00    +0.024 A 
ATOM     15  C   UNL     1       4.328   5.769  -6.463  0.00  0.00    +0.006 A 
ATOM     16  C   UNL     1       4.397   5.549  -5.093  0.00  0.00    +0.036 A 
ATOM     17  S   UNL     1       2.733   5.308  -4.749  0.00  0.00    -0.075 S 
ENDBRANCH  11  14
ENDBRANCH  10  11
ENDBRANCH   1  10
BRANCH   1  18
ATOM     18  C   UNL     1       3.137   6.540 -10.299  0.00  0.00    +0.142 C 
BRANCH  18  19
ATOM     19  N   UNL     1       1.843   6.224 -10.897  0.00  0.00    -0.305 N 
ATOM     20  C   UNL     1       0.675   6.583 -10.322  0.00  0.00    +0.179 A 
ATOM     21  N   UNL     1      -0.250   6.694 -11.274  0.00  0.00    -0.222 NA
ATOM     22  C   UNL     1       0.404   7.088 -12.392  0.00  0.00    +0.119 A 
ATOM     23  C   UNL     1       1.673   6.567 -12.199  0.00  0.00    +0.098 A 
ENDBRANCH  18  19
ENDBRANCH   1  18
TORSDOF 6
ENDMDL
MODEL 3
REMARK VINA RESULT:      -6.9      2.406      5.008
REMARK  Name = 
REMARK  6 active torsions:
REMARK  status: ('A' for Active; 'I' for Inactive)
REMARK    1  A    between atoms: C_6  and  C_7
REMARK    2  A    between atoms: C_7  and  O_8
REMARK    3  A    between atoms: O_8  and  C_9
REMARK    4  A    between atoms: C_9  and  C_10
REMARK    5  A    between atoms: C_9  and  C_16
REMARK    6  A    between atoms: C_10  and  N_11
REMARK                            x       y       z     vdW  Elec       q    Type
REMARK                         _______ _______ _______ _____ _____    ______ ____
ROOT
ATOM      1  C   UNL     1       2.738   5.969  -6.074  0.00  0.00    +0.161 C 
ENDROOT
BRANCH   1   2
ATOM      2  C   UNL     1       3.908   6.235  -7.200  0.00  0.00    +0.017 A 
ATOM      3  C   UNL     1       3.227   6.835  -8.261  0.00  0.00    +0.057 A 
ATOM      4 CL   UNL     1       2.007   8.075  -7.990  0.00  0.00    -0.082 Cl
ATOM      5  C   UNL     1       3.743   6.724  -9.546  0.00  0.00    +0.023 A 
ATOM      6  C   UNL     1       4.844   5.937  -9.791  0.00  0.00    +0.058 A 
ATOM      7 CL   UNL     1       5.184   5.331 -11.409  0.00  0.00    -0.082 Cl
ATOM      8  C   UNL     1       5.460   5.375  -8.696  0.00  0.00    +0.011 A 
ATOM      9  C   UNL     1       4.704   5.207  -7.546  0.00  0.00    -0.000 A 
ENDBRANCH   1   2
BRANCH   1  10
ATOM     10  O   UNL     1       2.066   4.797  -6.831  0.00  0.00    -0.345 OA
BRANCH  10  11
ATOM     11  C   UNL     1       1.262   4.288  -5.831  0.00  0.00    +0.170 C 
BRANCH  11  14
ATOM     12 CL   UNL     1      -0.159   5.401  -8.596  0.00  0.00    -0.075 Cl
ATOM     13  C   UNL     1      -0.756   5.330  -6.957  0.00  0.00    +0.085 A 
ATOM     14  C   UNL     1      -0.086   4.936  -5.803  0.00  0.00    +0.024 A 
ATOM     15  C   UNL     1      -0.453   5.763  -4.748  0.00  0.00    +0.006 A 
ATOM     16  C   UNL     1      -1.838   5.815  -4.640  0.00  0.00    +0.036 A 
ATOM     17  S   UNL     1      -2.263   5.825  -6.303  0.00  0.00    -0.075 S 
ENDBRANCH  11  14
ENDBRANCH  10  11
ENDBRANCH   1  10
BRANCH   1  18
ATOM     18  C   UNL     1       3.742   4.955  -5.191  0.00  0.00    +0.142 C 
BRANCH  18  19
ATOM     19  N   UNL     1       4.035   5.706  -3.974  0.00  0.00    -0.305 N 
ATOM     20  C   UNL     1       5.165   6.432  -3.829  0.00  0.00    +0.179 A 
ATOM     21  N   UNL     1       4.932   7.409  -2.953  0.00  0.00    -0.222 NA
ATOM     22  C   UNL     1       3.623   7.729  -3.083  0.00  0.00    +0.119 A 
ATOM     23  C   UNL     1       3.064   6.540  -3.522  0.00  0.00    +0.098 A 
ENDBRANCH  18  19
ENDBRANCH   1  18
TORSDOF 6
ENDMDL
MODEL 4
REMARK VINA RESULT:      -6.8      3.212      5.400
REMARK  Name = 
REMARK  6 active torsions:
REMARK  status: ('A' for Active; 'I' for Inactive)
REMARK    1  A    between atoms: C_6  and  C_7
REMARK    2  A    between atoms: C_7  and  O_8
REMARK    3  A    between atoms: O_8  and  C_9
REMARK    4  A    between atoms: C_9  and  C_10
REMARK    5  A    between atoms: C_9  and  C_16
REMARK    6  A    between atoms: C_10  and  N_11
REMARK                            x       y       z     vdW  Elec       q    Type
REMARK                         _______ _______ _______ _____ _____    ______ ____
ROOT
ATOM      1  C   UNL     1       0.184   6.097  -4.875  0.00  0.00    +0.161 C 
ENDROOT
BRANCH   1   2
ATOM      2  C   UNL     1       0.505   6.750  -6.351  0.00  0.00    +0.017 A 
ATOM      3  C   UNL     1       0.057   5.784  -7.254  0.00  0.00    +0.057 A 
ATOM      4 CL   UNL     1      -1.463   4.929  -7.012  0.00  0.00    -0.082 Cl
ATOM      5  C   UNL     1       0.617   5.733  -8.524  0.00  0.00    +0.023 A 
ATOM      6  C   UNL     1       1.678   6.545  -8.852  0.00  0.00    +0.058 A 
ATOM      7 CL   UNL     1       2.746   6.143 -10.194  0.00  0.00    -0.082 Cl
ATOM      8  C   UNL     1       2.066   7.470  -7.910  0.00  0.00    +0.011 A 
ATOM      9  C   UNL     1       1.745   7.215  -6.585  0.00  0.00    -0.000 A 
ENDBRANCH   1   2
BRANCH   1  10
ATOM     10  O   UNL     1       1.334   6.826  -4.137  0.00  0.00    -0.345 OA
BRANCH  10  11
ATOM     11  C   UNL     1       1.937   5.756  -3.506  0.00  0.00    +0.170 C 
BRANCH  11  14
ATOM     12 CL   UNL     1       4.552   7.557  -4.412  0.00  0.00    -0.075 Cl
ATOM     13  C   UNL     1       4.024   7.029  -2.834  0.00  0.00    +0.085 A 
ATOM     14  C   UNL     1       2.962   6.191  -2.507  0.00  0.00    +0.024 A 
ATOM     15  C   UNL     1       3.338   5.351  -1.465  0.00  0.00    +0.006 A 
ATOM     16  C   UNL     1       3.851   6.097  -0.410  0.00  0.00    +0.036 A 
ATOM     17  S   UNL     1       4.719   7.290  -1.287  0.00  0.00    -0.075 S 
ENDBRANCH  11  14
ENDBRANCH  10  11
ENDBRANCH   1  10
BRANCH   1  18
ATOM     18  C   UNL     1      -0.935   7.297  -4.526  0.00  0.00    +0.142 C 
BRANCH  18  19
ATOM     19  N   UNL     1      -1.852   6.671  -3.578  0.00  0.00    -0.305 N 
ATOM     20  C   UNL     1      -2.102   5.344  -3.584  0.00  0.00    +0.179 A 
ATOM     21  N   UNL     1      -2.472   4.975  -2.358  0.00  0.00    -0.222 NA
ATOM     22  C   UNL     1      -1.824   5.803  -1.504  0.00  0.00    +0.119 A 
ATOM     23  C   UNL     1      -1.656   6.949  -2.264  0.00  0.00    +0.098 A 
ENDBRANCH  18  19
ENDBRANCH   1  18
TORSDOF 6
ENDMDL
MODEL 5
REMARK VINA RESULT:      -6.7      4.686      7.149
REMARK  Name = 
REMARK  6 active torsions:
REMARK  status: ('A' for Active; 'I' for Inactive)
REMARK    1  A    between atoms: C_6  and  C_7
REMARK    2  A    between atoms: C_7  and  O_8
REMARK    3  A    between atoms: O_8  and  C_9
REMARK    4  A    between atoms: C_9  and  C_10
REMARK    5  A    between atoms: C_9  and  C_16
REMARK    6  A    between atoms: C_10  and  N_11
REMARK                            x       y       z     vdW  Elec       q    Type
REMARK                         _______ _______ _______ _____ _____    ______ ____
ROOT
ATOM      1  C   UNL     1       4.096   5.786 -10.381  0.00  0.00    +0.161 C 
ENDROOT
BRANCH   1   2
ATOM      2  C   UNL     1       3.789   6.630  -9.002  0.00  0.00    +0.017 A 
ATOM      3  C   UNL     1       4.111   5.736  -7.979  0.00  0.00    +0.057 A 
ATOM      4 CL   UNL     1       5.549   4.724  -8.056  0.00  0.00    -0.082 Cl
ATOM      5  C   UNL     1       3.505   5.882  -6.737  0.00  0.00    +0.023 A 
ATOM      6  C   UNL     1       2.516   6.820  -6.549  0.00  0.00    +0.058 A 
ATOM      7 CL   UNL     1       1.369   6.673  -5.220  0.00  0.00    -0.082 Cl
ATOM      8  C   UNL     1       2.252   7.663  -7.604  0.00  0.00    +0.011 A 
ATOM      9  C   UNL     1       2.592   7.230  -8.876  0.00  0.00    -0.000 A 
ENDBRANCH   1   2
BRANCH   1  10
ATOM     10  O   UNL     1       3.275   6.714 -11.310  0.00  0.00    -0.345 OA
BRANCH  10  11
ATOM     11  C   UNL     1       2.574   5.773 -12.038  0.00  0.00    +0.170 C 
BRANCH  11  14
ATOM     12 CL   UNL     1      -0.221   7.376 -11.312  0.00  0.00    -0.075 Cl
ATOM     13  C   UNL     1       0.606   7.158 -12.835  0.00  0.00    +0.085 A 
ATOM     14  C   UNL     1       1.736   6.396 -13.110  0.00  0.00    +0.024 A 
ATOM     15  C   UNL     1       1.587   5.773 -14.344  0.00  0.00    +0.006 A 
ATOM     16  C   UNL     1       1.253   6.709 -15.315  0.00  0.00    +0.036 A 
ATOM     17  S   UNL     1       0.200   7.714 -14.406  0.00  0.00    -0.075 S 
ENDBRANCH  11  14
ENDBRANCH  10  11
ENDBRANCH   1  10
BRANCH   1  18
ATOM     18  C   UNL     1       5.526   6.624 -10.642  0.00  0.00    +0.142 C 
BRANCH  18  19
ATOM     19  N   UNL     1       6.418   5.639 -11.246  0.00  0.00    -0.305 N 
ATOM     20  C   UNL     1       6.365   5.327 -12.559  0.00  0.00    +0.179 A 
ATOM     21  N   UNL     1       7.564   4.888 -12.940  0.00  0.00    -0.222 NA
ATOM     22  C   UNL     1       8.466   5.537 -12.166  0.00  0.00    +0.119 A 
ATOM     23  C   UNL     1       7.746   5.792 -11.011  0.00  0.00    +0.098 A 
ENDBRANCH  18  19
ENDBRANCH   1  18
TORSDOF 6
ENDMDL
MODEL 6
REMARK VINA RESULT:      -6.7      3.546      6.135
REMARK  Name = 
REMARK  6 active torsions:
REMARK  status: ('A' for Active; 'I' for Inactive)
REMARK    1  A    between atoms: C_6  and  C_7
REMARK    2  A    between atoms: C_7  and  O_8
REMARK    3  A    between atoms: O_8  and  C_9
REMARK    4  A    between atoms: C_9  and  C_10
REMARK    5  A    between atoms: C_9  and  C_16
REMARK    6  A    between atoms: C_10  and  N_11
REMARK                            x       y       z     vdW  Elec       q    Type
REMARK                         _______ _______ _______ _____ _____    ______ ____
ROOT
ATOM      1  C   UNL     1       1.571   5.961  -4.844  0.00  0.00    +0.161 C 
ENDROOT
BRANCH   1   2
ATOM      2  C   UNL     1       2.681   6.246  -3.663  0.00  0.00    +0.017 A 
ATOM      3  C   UNL     1       1.937   6.209  -2.482  0.00  0.00    +0.057 A 
ATOM      4 CL   UNL     1       0.697   4.990  -2.211  0.00  0.00    -0.082 Cl
ATOM      5  C   UNL     1       2.396   6.904  -1.370  0.00  0.00    +0.023 A 
ATOM      6  C   UNL     1       3.507   7.711  -1.461  0.00  0.00    +0.058 A 
ATOM      7 CL   UNL     1       3.789   8.998  -0.293  0.00  0.00    -0.082 Cl
ATOM      8  C   UNL     1       4.187   7.698  -2.657  0.00  0.00    +0.011 A 
ATOM      9  C   UNL     1       3.488   7.314  -3.792  0.00  0.00    -0.000 A 
ENDBRANCH   1   2
BRANCH   1  10
ATOM     10  O   UNL     1       0.901   7.355  -4.757  0.00  0.00    -0.345 OA
BRANCH  10  11
ATOM     11  C   UNL     1      -0.298   7.090  -5.389  0.00  0.00    +0.170 C 
BRANCH  11  14
ATOM     12 CL   UNL     1      -2.812   5.152  -6.299  0.00  0.00    -0.075 Cl
ATOM     13  C   UNL     1      -2.398   5.825  -4.742  0.00  0.00    +0.085 A 
ATOM     14  C   UNL     1      -1.377   6.714  -4.422  0.00  0.00    +0.024 A 
ATOM     15  C   UNL     1      -1.835   7.628  -3.481  0.00  0.00    +0.006 A 
ATOM     16  C   UNL     1      -2.400   6.961  -2.401  0.00  0.00    +0.036 A 
ATOM     17  S   UNL     1      -3.185   5.677  -3.225  0.00  0.00    -0.075 S 
ENDBRANCH  11  14
ENDBRANCH  10  11
ENDBRANCH   1  10
BRANCH   1  18
ATOM     18  C   UNL     1       2.643   6.441  -6.043  0.00  0.00    +0.142 C 
BRANCH  18  19
ATOM     19  N   UNL     1       2.987   5.203  -6.735  0.00  0.00    -0.305 N 
ATOM     20  C   UNL     1       2.059   4.435  -7.346  0.00  0.00    +0.179 A 
ATOM     21  N   UNL     1       2.653   3.747  -8.321  0.00  0.00    -0.222 NA
ATOM     22  C   UNL     1       3.668   4.524  -8.767  0.00  0.00    +0.119 A 
ATOM     23  C   UNL     1       3.990   5.272  -7.648  0.00  0.00    +0.098 A 
ENDBRANCH  18  19
ENDBRANCH   1  18
TORSDOF 6
ENDMDL
MODEL 7
REMARK VINA RESULT:      -6.6      4.165      7.115
REMARK  Name = 
REMARK  6 active torsions:
REMARK  status: ('A' for Active; 'I' for Inactive)
REMARK    1  A    between atoms: C_6  and  C_7
REMARK    2  A    between atoms: C_7  and  O_8
REMARK    3  A    between atoms: O_8  and  C_9
REMARK    4  A    between atoms: C_9  and  C_10
REMARK    5  A    between atoms: C_9  and  C_16
REMARK    6  A    between atoms: C_10  and  N_11
REMARK                            x       y       z     vdW  Elec       q    Type
REMARK                         _______ _______ _______ _____ _____    ______ ____
ROOT
ATOM      1  C   UNL     1       1.432   5.503  -8.802  0.00  0.00    +0.161 C 
ENDROOT
BRANCH   1   2
ATOM      2  C   UNL     1       2.672   6.224  -7.994  0.00  0.00    +0.017 A 
ATOM      3  C   UNL     1       3.573   5.184  -7.758  0.00  0.00    +0.057 A 
ATOM      4 CL   UNL     1       3.943   3.986  -8.993  0.00  0.00    -0.082 Cl
ATOM      5  C   UNL     1       4.450   5.278  -6.684  0.00  0.00    +0.023 A 
ATOM      6  C   UNL     1       4.355   6.325  -5.796  0.00  0.00    +0.058 A 
ATOM      7 CL   UNL     1       5.033   6.201  -4.175  0.00  0.00    -0.082 Cl
ATOM      8  C   UNL     1       3.442   7.310  -6.093  0.00  0.00    +0.011 A 
ATOM      9  C   UNL     1       2.378   6.976  -6.919  0.00  0.00    -0.000 A 
ENDBRANCH   1   2
BRANCH   1  10
ATOM     10  O   UNL     1       0.320   6.386  -8.184  0.00  0.00    -0.345 OA
BRANCH  10  11
ATOM     11  C   UNL     1      -0.536   5.408  -7.716  0.00  0.00    +0.170 C 
BRANCH  11  14
ATOM     12 CL   UNL     1       1.196   4.522  -5.048  0.00  0.00    -0.075 Cl
ATOM     13  C   UNL     1      -0.287   5.431  -5.193  0.00  0.00    +0.085 A 
ATOM     14  C   UNL     1      -1.032   5.704  -6.335  0.00  0.00    +0.024 A 
ATOM     15  C   UNL     1      -2.387   5.620  -6.037  0.00  0.00    +0.006 A 
ATOM     16  C   UNL     1      -2.684   6.411  -4.933  0.00  0.00    +0.036 A 
ATOM     17  S   UNL     1      -1.283   6.128  -3.983  0.00  0.00    -0.075 S 
ENDBRANCH  11  14
ENDBRANCH  10  11
ENDBRANCH   1  10
BRANCH   1  18
ATOM     18  C   UNL     1       1.636   6.512 -10.127  0.00  0.00    +0.142 C 
BRANCH  18  19
ATOM     19  N   UNL     1       1.682   5.604 -11.268  0.00  0.00    -0.305 N 
ATOM     20  C   UNL     1       0.569   5.053 -11.799  0.00  0.00    +0.179 A 
ATOM     21  N   UNL     1       0.804   4.768 -13.079  0.00  0.00    -0.222 NA
ATOM     22  C   UNL     1       1.691   5.695 -13.514  0.00  0.00    +0.119 A 
ATOM     23  C   UNL     1       2.375   6.026 -12.357  0.00  0.00    +0.098 A 
ENDBRANCH  18  19
ENDBRANCH   1  18
TORSDOF 6
ENDMDL
MODEL 8
REMARK VINA RESULT:      -6.6      4.389      6.669
REMARK  Name = 
REMARK  6 active torsions:
REMARK  status: ('A' for Active; 'I' for Inactive)
REMARK    1  A    between atoms: C_6  and  C_7
REMARK    2  A    between atoms: C_7  and  O_8
REMARK    3  A    between atoms: O_8  and  C_9
REMARK    4  A    between atoms: C_9  and  C_10
REMARK    5  A    between atoms: C_9  and  C_16
REMARK    6  A    between atoms: C_10  and  N_11
REMARK                            x       y       z     vdW  Elec       q    Type
REMARK                         _______ _______ _______ _____ _____    ______ ____
ROOT
ATOM      1  C   UNL     1       2.279   5.789  -9.557  0.00  0.00    +0.161 C 
ENDROOT
BRANCH   1   2
ATOM      2  C   UNL     1       1.967   5.323  -8.010  0.00  0.00    +0.017 A 
ATOM      3  C   UNL     1       2.418   6.394  -7.236  0.00  0.00    +0.057 A 
ATOM      4 CL   UNL     1       2.110   8.064  -7.702  0.00  0.00    -0.082 Cl
ATOM      5  C   UNL     1       2.803   6.165  -5.921  0.00  0.00    +0.023 A 
ATOM      6  C   UNL     1       2.850   4.884  -5.421  0.00  0.00    +0.058 A 
ATOM      7 CL   UNL     1       3.829   4.499  -4.008  0.00  0.00    -0.082 Cl
ATOM      8  C   UNL     1       2.393   3.880  -6.243  0.00  0.00    +0.011 A 
ATOM      9  C   UNL     1       2.397   4.113  -7.610  0.00  0.00    -0.000 A 
ENDBRANCH   1   2
BRANCH   1  10
ATOM     10  O   UNL     1       3.453   4.802  -9.774  0.00  0.00    -0.345 OA
BRANCH  10  11
ATOM     11  C   UNL     1       4.497   5.693  -9.917  0.00  0.00    +0.170 C 
BRANCH  11  14
ATOM     12 CL   UNL     1       7.517   6.909 -10.472  0.00  0.00    -0.075 Cl
ATOM     13  C   UNL     1       6.433   6.029 -11.520  0.00  0.00    +0.085 A 
ATOM     14  C   UNL     1       5.128   5.615 -11.272  0.00  0.00    +0.024 A 
ATOM     15  C   UNL     1       4.363   5.778 -12.421  0.00  0.00    +0.006 A 
ATOM     16  C   UNL     1       4.984   5.164 -13.501  0.00  0.00    +0.036 A 
ATOM     17  S   UNL     1       6.622   5.542 -13.155  0.00  0.00    -0.075 S 
ENDBRANCH  11  14
ENDBRANCH  10  11
ENDBRANCH   1  10
BRANCH   1  18
ATOM     18  C   UNL     1       1.137   4.721 -10.167  0.00  0.00    +0.142 C 
BRANCH  18  19
ATOM     19  N   UNL     1       0.320   5.537 -11.060  0.00  0.00    -0.305 N 
ATOM     20  C   UNL     1       0.021   6.826 -10.788  0.00  0.00    +0.179 A 
ATOM     21  N   UNL     1      -0.210   7.459 -11.938  0.00  0.00    -0.222 NA
ATOM     22  C   UNL     1       0.569   6.852 -12.865  0.00  0.00    +0.119 A 
ATOM     23  C   UNL     1       0.686   5.566 -12.367  0.00  0.00    +0.098 A 
ENDBRANCH  18  19
ENDBRANCH   1  18
TORSDOF 6
ENDMDL
MODEL 9
REMARK VINA RESULT:      -6.5      4.348      6.630
REMARK  Name = 
REMARK  6 active torsions:
REMARK  status: ('A' for Active; 'I' for Inactive)
REMARK    1  A    between atoms: C_6  and  C_7
REMARK    2  A    between atoms: C_7  and  O_8
REMARK    3  A    between atoms: O_8  and  C_9
REMARK    4  A    between atoms: C_9  and  C_10
REMARK    5  A    between atoms: C_9  and  C_16
REMARK    6  A    between atoms: C_10  and  N_11
REMARK                            x       y       z     vdW  Elec       q    Type
REMARK                         _______ _______ _______ _____ _____    ______ ____
ROOT
ATOM      1  C   UNL     1       4.555   5.290  -9.785  0.00  0.00    +0.161 C 
ENDROOT
BRANCH   1   2
ATOM      2  C   UNL     1       4.519   5.146  -8.147  0.00  0.00    +0.017 A 
ATOM      3  C   UNL     1       3.238   4.659  -7.877  0.00  0.00    +0.057 A 
ATOM      4 CL   UNL     1       2.505   3.396  -8.860  0.00  0.00    -0.082 Cl
ATOM      5  C   UNL     1       2.667   4.906  -6.634  0.00  0.00    +0.023 A 
ATOM      6  C   UNL     1       3.304   5.716  -5.723  0.00  0.00    +0.058 A 
ATOM      7 CL   UNL     1       2.408   6.489  -4.417  0.00  0.00    -0.082 Cl
ATOM      8  C   UNL     1       4.561   6.160  -6.060  0.00  0.00    +0.011 A 
ATOM      9  C   UNL     1       4.891   6.205  -7.406  0.00  0.00    -0.000 A 
ENDBRANCH   1   2
BRANCH   1  10
ATOM     10  O   UNL     1       3.878   6.682  -9.827  0.00  0.00    -0.345 OA
BRANCH  10  11
ATOM     11  C   UNL     1       3.251   6.613 -11.055  0.00  0.00    +0.170 C 
BRANCH  11  14
ATOM     12 CL   UNL     1       1.772   5.266 -13.682  0.00  0.00    -0.075 Cl
ATOM     13  C   UNL     1       1.260   5.371 -12.016  0.00  0.00    +0.085 A 
ATOM     14  C   UNL     1       1.876   6.030 -10.957  0.00  0.00    +0.024 A 
ATOM     15  C   UNL     1       0.909   6.628 -10.157  0.00  0.00    +0.006 A 
ATOM     16  C   UNL     1      -0.055   5.694  -9.794  0.00  0.00    +0.036 A 
ATOM     17  S   UNL     1      -0.171   4.805 -11.258  0.00  0.00    -0.075 S 
ENDBRANCH  11  14
ENDBRANCH  10  11
ENDBRANCH   1  10
BRANCH   1  18
ATOM     18  C   UNL     1       6.104   5.933  -9.750  0.00  0.00    +0.142 C 
BRANCH  18  19
ATOM     19  N   UNL     1       6.811   5.231 -10.817  0.00  0.00    -0.305 N 
ATOM     20  C   UNL     1       6.394   5.262 -12.101  0.00  0.00    +0.179 A 
ATOM     21  N   UNL     1       7.446   5.059 -12.894  0.00  0.00    -0.222 NA
ATOM     22  C   UNL     1       8.514   5.576 -12.242  0.00  0.00    +0.119 A 
ATOM     23  C   UNL     1       8.147   5.452 -10.913  0.00  0.00    +0.098 A 
ENDBRANCH  18  19
ENDBRANCH   1  18
TORSDOF 6
ENDMDL
