MODEL 1
REMARK VINA RESULT:      -8.6      0.000      0.000
REMARK  Name = 
REMARK  3 active torsions:
REMARK  status: ('A' for Active; 'I' for Inactive)
REMARK    1  A    between atoms: C_3  and  C_5
REMARK    2  A    between atoms: N_15  and  C1*_16
REMARK    3  A    between atoms: C4*_18  and  C5*_19
REMARK                            x       y       z     vdW  Elec       q    Type
REMARK                         _______ _______ _______ _____ _____    ______ ____
ROOT
ATOM      1  C   UNL     1       2.249   6.125  -9.779  0.00  0.00    +0.095 A 
ATOM      2  C   UNL     1       1.481   5.323  -8.943  0.00  0.00    +0.110 A 
ATOM      3  N   UNL     1       1.674   5.762  -7.684  0.00  0.00    -0.195 N 
ATOM      4  C   UNL     1       1.815   4.933  -6.518  0.00  0.00    +0.256 A 
ATOM      5  N   UNL     1       3.007   4.545  -6.003  0.00  0.00    -0.190 NA
ATOM      6  C   UNL     1       3.416   4.872  -4.745  0.00  0.00    +0.193 A 
ATOM      7  N   UNL     1       4.713   4.774  -4.265  0.00  0.00    -0.105 NA
ATOM      8  C   UNL     1       2.489   5.426  -3.871  0.00  0.00    +0.152 A 
ATOM      9  N   UNL     1       2.394   6.572  -3.126  0.00  0.00    -0.219 NA
ATOM     10  C   UNL     1       1.114   6.654  -2.650  0.00  0.00    +0.182 A 
ATOM     11  N   UNL     1       0.478   5.745  -3.264  0.00  0.00    -0.269 N 
ATOM     12  C   UNL     1       1.165   5.218  -4.272  0.00  0.00    +0.171 A 
ATOM     13  N   UNL     1       0.835   4.957  -5.560  0.00  0.00    -0.191 NA
ATOM     14  N   UNL     1       2.056   7.036  -7.825  0.00  0.00    -0.161 NA
ATOM     15  C   UNL     1       2.712   7.170  -8.999  0.00  0.00    +0.127 A 
ENDROOT
BRANCH  11  16
ATOM     16  C1* UNL     1      -1.000   5.172  -3.179  0.00  0.00    +0.241 C 
ATOM     17  C2* UNL     1      -1.510   6.386  -2.088  0.00  0.00    +0.234 C 
ATOM     18  O2* UNL     1      -1.663   5.364  -0.997  0.00  0.00    -0.216 OA
ATOM     19  C3* UNL     1      -3.106   6.097  -2.587  0.00  0.00    +0.216 C 
ATOM     20  O3* UNL     1      -3.034   4.627  -2.858  0.00  0.00    -0.218 OA
ATOM     21  C4* UNL     1      -2.730   6.610  -4.176  0.00  0.00    +0.183 C 
ATOM     22  O4* UNL     1      -1.433   5.910  -4.387  0.00  0.00    -0.331 OA
BRANCH  21  23
ATOM     23  C5* UNL     1      -1.907   7.977  -3.733  0.00  0.00    +0.214 C 
ATOM     24  O5* UNL     1      -1.194   8.377  -4.821  0.00  0.00    -0.218 OA
ENDBRANCH  21  23
ENDBRANCH  11  16
BRANCH   1  27
ATOM     25  C   UNL     1       4.889   5.470 -12.181  0.00  0.00    +0.139 C 
ATOM     26  N   UNL     1       4.155   5.377 -11.247  0.00  0.00    -0.200 NA
ATOM     27  C   UNL     1       2.798   5.770 -11.099  0.00  0.00    +0.268 C 
ATOM     28  O   UNL     1       2.337   6.384 -12.092  0.00  0.00    -0.268 OA
ENDBRANCH   1  27
TORSDOF 3
ENDMDL
MODEL 2
REMARK VINA RESULT:      -8.4      3.281      9.008
REMARK  Name = 
REMARK  3 active torsions:
REMARK  status: ('A' for Active; 'I' for Inactive)
REMARK    1  A    between atoms: C_3  and  C_5
REMARK    2  A    between atoms: N_15  and  C1*_16
REMARK    3  A    between atoms: C4*_18  and  C5*_19
REMARK                            x       y       z     vdW  Elec       q    Type
REMARK                         _______ _______ _______ _____ _____    ______ ____
ROOT
ATOM      1  C   UNL     1       3.436   6.071  -4.624  0.00  0.00    +0.095 A 
ATOM      2  C   UNL     1       4.104   5.281  -5.552  0.00  0.00    +0.110 A 
ATOM      3  N   UNL     1       3.719   5.693  -6.776  0.00  0.00    -0.195 N 
ATOM      4  C   UNL     1       3.441   4.842  -7.900  0.00  0.00    +0.256 A 
ATOM      5  N   UNL     1       2.202   4.407  -8.235  0.00  0.00    -0.190 NA
ATOM      6  C   UNL     1       1.607   4.700  -9.425  0.00  0.00    +0.193 A 
ATOM      7  N   UNL     1       0.259   4.552  -9.713  0.00  0.00    -0.105 NA
ATOM      8  C   UNL     1       2.380   5.270 -10.428  0.00  0.00    +0.152 A 
ATOM      9  N   UNL     1       2.327   6.407 -11.192  0.00  0.00    -0.219 NA
ATOM     10  C   UNL     1       3.524   6.523 -11.847  0.00  0.00    +0.182 A 
ATOM     11  N   UNL     1       4.271   5.645 -11.321  0.00  0.00    -0.269 N 
ATOM     12  C   UNL     1       3.754   5.113 -10.219  0.00  0.00    +0.171 A 
ATOM     13  N   UNL     1       4.273   4.883  -8.988  0.00  0.00    -0.191 NA
ATOM     14  N   UNL     1       3.317   6.956  -6.595  0.00  0.00    -0.161 NA
ATOM     15  C   UNL     1       2.830   7.088  -5.342  0.00  0.00    +0.127 A 
ENDROOT
BRANCH  11  16
ATOM     16  C1* UNL     1       5.741   5.119 -11.610  0.00  0.00    +0.241 C 
ATOM     17  C2* UNL     1       5.922   6.102 -12.998  0.00  0.00    +0.234 C 
ATOM     18  O2* UNL     1       5.929   4.884 -13.879  0.00  0.00    -0.216 OA
ATOM     19  C3* UNL     1       7.604   5.978 -12.809  0.00  0.00    +0.216 C 
ATOM     20  O3* UNL     1       7.703   4.593 -12.250  0.00  0.00    -0.218 OA
ATOM     21  C4* UNL     1       7.521   6.792 -11.305  0.00  0.00    +0.183 C 
ATOM     22  O4* UNL     1       6.353   6.104 -10.689  0.00  0.00    -0.331 OA
BRANCH  21  23
ATOM     23  C5* UNL     1       6.521   8.009 -11.815  0.00  0.00    +0.214 C 
ATOM     24  O5* UNL     1       6.801   9.097 -11.046  0.00  0.00    -0.218 OA
ENDBRANCH  21  23
ENDBRANCH  11  16
BRANCH   1  27
ATOM     25  C   UNL     1       3.954   4.478  -1.406  0.00  0.00    +0.139 C 
ATOM     26  N   UNL     1       4.072   5.197  -2.349  0.00  0.00    -0.200 NA
ATOM     27  C   UNL     1       3.093   5.720  -3.235  0.00  0.00    +0.268 C 
ATOM     28  O   UNL     1       1.934   5.282  -3.027  0.00  0.00    -0.268 OA
ENDBRANCH   1  27
TORSDOF 3
ENDMDL
MODEL 3
REMARK VINA RESULT:      -8.1      3.588      7.908
REMARK  Name = 
REMARK  3 active torsions:
REMARK  status: ('A' for Active; 'I' for Inactive)
REMARK    1  A    between atoms: C_3  and  C_5
REMARK    2  A    between atoms: N_15  and  C1*_16
REMARK    3  A    between atoms: C4*_18  and  C5*_19
REMARK                            x       y       z     vdW  Elec       q    Type
REMARK                         _______ _______ _______ _____ _____    ______ ____
ROOT
ATOM      1  C   UNL     1       4.506   7.514   0.106  0.00  0.00    +0.095 A 
ATOM      2  C   UNL     1       4.675   6.627  -0.950  0.00  0.00    +0.110 A 
ATOM      3  N   UNL     1       3.666   6.844  -1.817  0.00  0.00    -0.195 N 
ATOM      4  C   UNL     1       2.939   5.831  -2.531  0.00  0.00    +0.256 A 
ATOM      5  N   UNL     1       1.764   5.302  -2.111  0.00  0.00    -0.190 NA
ATOM      6  C   UNL     1       0.607   5.398  -2.825  0.00  0.00    +0.193 A 
ATOM      7  N   UNL     1      -0.667   5.156  -2.337  0.00  0.00    -0.105 NA
ATOM      8  C   UNL     1       0.676   5.850  -4.137  0.00  0.00    +0.152 A 
ATOM      9  N   UNL     1       0.108   6.863  -4.865  0.00  0.00    -0.219 NA
ATOM     10  C   UNL     1       0.767   6.933  -6.063  0.00  0.00    +0.182 A 
ATOM     11  N   UNL     1       1.770   6.171  -5.930  0.00  0.00    -0.269 N 
ATOM     12  C   UNL     1       1.965   5.780  -4.675  0.00  0.00    +0.171 A 
ATOM     13  N   UNL     1       3.072   5.750  -3.892  0.00  0.00    -0.191 NA
ATOM     14  N   UNL     1       3.281   8.103  -1.577  0.00  0.00    -0.161 NA
ATOM     15  C   UNL     1       3.508   8.392  -0.277  0.00  0.00    +0.127 A 
ENDROOT
BRANCH  11  16
ATOM     16  C1* UNL     1       2.921   5.670  -6.901  0.00  0.00    +0.241 C 
ATOM     17  C2* UNL     1       1.850   4.716  -7.833  0.00  0.00    +0.234 C 
ATOM     18  O2* UNL     1       2.510   3.461  -7.335  0.00  0.00    -0.216 OA
ATOM     19  C3* UNL     1       2.964   4.798  -9.111  0.00  0.00    +0.216 C 
ATOM     20  O3* UNL     1       4.246   4.825  -8.340  0.00  0.00    -0.218 OA
ATOM     21  C4* UNL     1       2.759   6.495  -9.215  0.00  0.00    +0.183 C 
ATOM     22  O4* UNL     1       2.804   6.862  -7.773  0.00  0.00    -0.331 OA
BRANCH  21  23
ATOM     23  C5* UNL     1       1.104   6.481  -9.148  0.00  0.00    +0.214 C 
ATOM     24  O5* UNL     1       0.661   7.224 -10.198  0.00  0.00    -0.218 OA
ENDBRANCH  21  23
ENDBRANCH  11  16
BRANCH   1  27
ATOM     25  C   UNL     1       4.185   7.530   3.721  0.00  0.00    +0.139 C 
ATOM     26  N   UNL     1       4.063   7.241   2.572  0.00  0.00    -0.200 NA
ATOM     27  C   UNL     1       4.979   7.350   1.492  0.00  0.00    +0.268 C 
ATOM     28  O   UNL     1       6.058   7.917   1.798  0.00  0.00    -0.268 OA
ENDBRANCH   1  27
TORSDOF 3
ENDMDL
MODEL 4
REMARK VINA RESULT:      -7.9      2.323      7.739
REMARK  Name = 
REMARK  3 active torsions:
REMARK  status: ('A' for Active; 'I' for Inactive)
REMARK    1  A    between atoms: C_3  and  C_5
REMARK    2  A    between atoms: N_15  and  C1*_16
REMARK    3  A    between atoms: C4*_18  and  C5*_19
REMARK                            x       y       z     vdW  Elec       q    Type
REMARK                         _______ _______ _______ _____ _____    ______ ____
ROOT
ATOM      1  C   UNL     1      -1.639   6.660  -1.370  0.00  0.00    +0.095 A 
ATOM      2  C   UNL     1      -1.207   7.275  -2.538  0.00  0.00    +0.110 A 
ATOM      3  N   UNL     1      -0.420   6.393  -3.185  0.00  0.00    -0.195 N 
ATOM      4  C   UNL     1       0.799   6.706  -3.879  0.00  0.00    +0.256 A 
ATOM      5  N   UNL     1       2.034   6.603  -3.329  0.00  0.00    -0.190 NA
ATOM      6  C   UNL     1       2.998   5.773  -3.816  0.00  0.00    +0.193 A 
ATOM      7  N   UNL     1       4.152   5.394  -3.147  0.00  0.00    -0.105 NA
ATOM      8  C   UNL     1       2.796   5.180  -5.055  0.00  0.00    +0.152 A 
ATOM      9  N   UNL     1       2.768   3.901  -5.547  0.00  0.00    -0.219 NA
ATOM     10  C   UNL     1       2.277   3.957  -6.823  0.00  0.00    +0.182 A 
ATOM     11  N   UNL     1       1.853   5.144  -6.958  0.00  0.00    -0.269 N 
ATOM     12  C   UNL     1       1.807   5.814  -5.812  0.00  0.00    +0.171 A 
ATOM     13  N   UNL     1       0.842   6.577  -5.243  0.00  0.00    -0.191 NA
ATOM     14  N   UNL     1      -0.812   5.197  -2.733  0.00  0.00    -0.161 NA
ATOM     15  C   UNL     1      -1.263   5.332  -1.466  0.00  0.00    +0.127 A 
ENDROOT
BRANCH  11  16
ATOM     16  C1* UNL     1       1.250   5.977  -8.168  0.00  0.00    +0.241 C 
ATOM     17  C2* UNL     1       2.725   6.790  -8.467  0.00  0.00    +0.234 C 
ATOM     18  O2* UNL     1       2.117   8.090  -8.017  0.00  0.00    -0.216 OA
ATOM     19  C3* UNL     1       2.187   7.084 -10.050  0.00  0.00    +0.216 C 
ATOM     20  O3* UNL     1       0.718   7.233  -9.805  0.00  0.00    -0.218 OA
ATOM     21  C4* UNL     1       2.163   5.404 -10.381  0.00  0.00    +0.183 C 
ATOM     22  O4* UNL     1       1.515   4.893  -9.142  0.00  0.00    -0.331 OA
BRANCH  21  23
ATOM     23  C5* UNL     1       3.648   5.072  -9.727  0.00  0.00    +0.214 C 
ATOM     24  O5* UNL     1       4.515   4.940 -10.768  0.00  0.00    -0.218 OA
ENDBRANCH  21  23
ENDBRANCH  11  16
BRANCH   1  27
ATOM     25  C   UNL     1      -1.421   9.121   1.288  0.00  0.00    +0.139 C 
ATOM     26  N   UNL     1      -1.580   8.611   0.222  0.00  0.00    -0.200 NA
ATOM     27  C   UNL     1      -2.052   7.315  -0.117  0.00  0.00    +0.268 C 
ATOM     28  O   UNL     1      -2.252   6.573   0.876  0.00  0.00    -0.268 OA
ENDBRANCH   1  27
TORSDOF 3
ENDMDL
MODEL 5
REMARK VINA RESULT:      -7.6      2.826      4.346
REMARK  Name = 
REMARK  3 active torsions:
REMARK  status: ('A' for Active; 'I' for Inactive)
REMARK    1  A    between atoms: C_3  and  C_5
REMARK    2  A    between atoms: N_15  and  C1*_16
REMARK    3  A    between atoms: C4*_18  and  C5*_19
REMARK                            x       y       z     vdW  Elec       q    Type
REMARK                         _______ _______ _______ _____ _____    ______ ____
ROOT
ATOM      1  C   UNL     1       3.420   4.785  -8.831  0.00  0.00    +0.095 A 
ATOM      2  C   UNL     1       3.838   5.624  -7.806  0.00  0.00    +0.110 A 
ATOM      3  N   UNL     1       3.032   5.395  -6.750  0.00  0.00    -0.195 N 
ATOM      4  C   UNL     1       2.507   6.395  -5.862  0.00  0.00    +0.256 A 
ATOM      5  N   UNL     1       1.285   6.966  -6.000  0.00  0.00    -0.190 NA
ATOM      6  C   UNL     1       0.306   6.867  -5.056  0.00  0.00    +0.193 A 
ATOM      7  N   UNL     1      -1.035   7.156  -5.250  0.00  0.00    -0.105 NA
ATOM      8  C   UNL     1       0.641   6.360  -3.807  0.00  0.00    +0.152 A 
ATOM      9  N   UNL     1       0.213   5.332  -3.009  0.00  0.00    -0.219 NA
ATOM     10  C   UNL     1       1.110   5.198  -1.985  0.00  0.00    +0.182 A 
ATOM     11  N   UNL     1       2.084   5.943  -2.305  0.00  0.00    -0.269 N 
ATOM     12  C   UNL     1       2.017   6.380  -3.558  0.00  0.00    +0.171 A 
ATOM     13  N   UNL     1       2.930   6.417  -4.559  0.00  0.00    -0.191 NA
ATOM     14  N   UNL     1       2.567   4.156  -6.945  0.00  0.00    -0.161 NA
ATOM     15  C   UNL     1       2.501   3.914  -8.273  0.00  0.00    +0.127 A 
ENDROOT
BRANCH  11  16
ATOM     16  C1* UNL     1       3.432   6.380  -1.587  0.00  0.00    +0.241 C 
ATOM     17  C2* UNL     1       2.944   8.014  -1.456  0.00  0.00    +0.234 C 
ATOM     18  O2* UNL     1       4.006   8.425  -2.438  0.00  0.00    -0.216 OA
ATOM     19  C3* UNL     1       4.050   8.192  -0.182  0.00  0.00    +0.216 C 
ATOM     20  O3* UNL     1       5.124   7.252  -0.632  0.00  0.00    -0.218 OA
ATOM     21  C4* UNL     1       3.181   7.061   0.765  0.00  0.00    +0.183 C 
ATOM     22  O4* UNL     1       2.926   6.000  -0.248  0.00  0.00    -0.331 OA
BRANCH  21  23
ATOM     23  C5* UNL     1       1.680   7.692   0.465  0.00  0.00    +0.214 C 
ATOM     24  O5* UNL     1       0.780   6.875   1.077  0.00  0.00    -0.218 OA
ENDBRANCH  21  23
ENDBRANCH  11  16
BRANCH   1  27
ATOM     25  C   UNL     1       5.103   5.990 -11.812  0.00  0.00    +0.139 C 
ATOM     26  N   UNL     1       4.844   5.376 -10.824  0.00  0.00    -0.200 NA
ATOM     27  C   UNL     1       3.589   4.994 -10.280  0.00  0.00    +0.268 C 
ATOM     28  O   UNL     1       2.603   5.452 -10.909  0.00  0.00    -0.268 OA
ENDBRANCH   1  27
TORSDOF 3
ENDMDL
MODEL 6
REMARK VINA RESULT:      -7.5      2.895      4.587
REMARK  Name = 
REMARK  3 active torsions:
REMARK  status: ('A' for Active; 'I' for Inactive)
REMARK    1  A    between atoms: C_3  and  C_5
REMARK    2  A    between atoms: N_15  and  C1*_16
REMARK    3  A    between atoms: C4*_18  and  C5*_19
REMARK                            x       y       z     vdW  Elec       q    Type
REMARK                         _______ _______ _______ _____ _____    ______ ____
ROOT
ATOM      1  C   UNL     1       1.348   5.855  -8.892  0.00  0.00    +0.095 A 
ATOM      2  C   UNL     1       1.556   6.782  -7.878  0.00  0.00    +0.110 A 
ATOM      3  N   UNL     1       1.251   6.174  -6.715  0.00  0.00    -0.195 N 
ATOM      4  C   UNL     1       0.553   6.774  -5.611  0.00  0.00    +0.256 A 
ATOM      5  N   UNL     1      -0.783   6.665  -5.409  0.00  0.00    -0.190 NA
ATOM      6  C   UNL     1      -1.324   6.085  -4.300  0.00  0.00    +0.193 A 
ATOM      7  N   UNL     1      -2.640   5.673  -4.164  0.00  0.00    -0.105 NA
ATOM      8  C   UNL     1      -0.487   5.801  -3.229  0.00  0.00    +0.152 A 
ATOM      9  N   UNL     1      -0.156   4.688  -2.500  0.00  0.00    -0.219 NA
ATOM     10  C   UNL     1       0.919   5.009  -1.717  0.00  0.00    +0.182 A 
ATOM     11  N   UNL     1       1.303   6.141  -2.136  0.00  0.00    -0.269 N 
ATOM     12  C   UNL     1       0.724   6.498  -3.278  0.00  0.00    +0.171 A 
ATOM     13  N   UNL     1       1.224   6.992  -4.436  0.00  0.00    -0.191 NA
ATOM     14  N   UNL     1       1.404   4.869  -6.966  0.00  0.00    -0.161 NA
ATOM     15  C   UNL     1       1.131   4.638  -8.270  0.00  0.00    +0.127 A 
ENDROOT
BRANCH  11  16
ATOM     16  C1* UNL     1       2.408   7.182  -1.671  0.00  0.00    +0.241 C 
ATOM     17  C2* UNL     1       3.341   5.985  -0.885  0.00  0.00    +0.234 C 
ATOM     18  O2* UNL     1       3.024   6.594   0.453  0.00  0.00    -0.216 OA
ATOM     19  C3* UNL     1       4.689   7.005  -1.033  0.00  0.00    +0.216 C 
ATOM     20  O3* UNL     1       4.023   8.340  -0.904  0.00  0.00    -0.218 OA
ATOM     21  C4* UNL     1       4.608   6.908  -2.740  0.00  0.00    +0.183 C 
ATOM     22  O4* UNL     1       3.144   7.082  -2.952  0.00  0.00    -0.331 OA
BRANCH  21  23
ATOM     23  C5* UNL     1       4.411   5.265  -2.817  0.00  0.00    +0.214 C 
ATOM     24  O5* UNL     1       4.130   4.962  -4.113  0.00  0.00    -0.218 OA
ENDBRANCH  21  23
ENDBRANCH  11  16
BRANCH   1  27
ATOM     25  C   UNL     1      -0.437   7.465 -11.610  0.00  0.00    +0.139 C 
ATOM     26  N   UNL     1       0.273   7.278 -10.672  0.00  0.00    -0.200 NA
ATOM     27  C   UNL     1       1.028   6.133 -10.303  0.00  0.00    +0.268 C 
ATOM     28  O   UNL     1       0.846   5.142 -11.052  0.00  0.00    -0.268 OA
ENDBRANCH   1  27
TORSDOF 3
ENDMDL
MODEL 7
REMARK VINA RESULT:      -7.5      3.837      8.313
REMARK  Name = 
REMARK  3 active torsions:
REMARK  status: ('A' for Active; 'I' for Inactive)
REMARK    1  A    between atoms: C_3  and  C_5
REMARK    2  A    between atoms: N_15  and  C1*_16
REMARK    3  A    between atoms: C4*_18  and  C5*_19
REMARK                            x       y       z     vdW  Elec       q    Type
REMARK                         _______ _______ _______ _____ _____    ______ ____
ROOT
ATOM      1  C   UNL     1       4.142   7.038  -1.797  0.00  0.00    +0.095 A 
ATOM      2  C   UNL     1       4.845   6.544  -2.889  0.00  0.00    +0.110 A 
ATOM      3  N   UNL     1       4.035   6.646  -3.962  0.00  0.00    -0.195 N 
ATOM      4  C   UNL     1       3.900   5.671  -5.008  0.00  0.00    +0.256 A 
ATOM      5  N   UNL     1       2.939   4.714  -5.034  0.00  0.00    -0.190 NA
ATOM      6  C   UNL     1       2.008   4.622  -6.025  0.00  0.00    +0.193 A 
ATOM      7  N   UNL     1       0.839   3.880  -5.968  0.00  0.00    -0.105 NA
ATOM      8  C   UNL     1       2.184   5.387  -7.171  0.00  0.00    +0.152 A 
ATOM      9  N   UNL     1       1.453   6.322  -7.858  0.00  0.00    -0.219 NA
ATOM     10  C   UNL     1       2.278   6.892  -8.788  0.00  0.00    +0.182 A 
ATOM     11  N   UNL     1       3.438   6.472  -8.498  0.00  0.00    -0.269 N 
ATOM     12  C   UNL     1       3.491   5.860  -7.320  0.00  0.00    +0.171 A 
ATOM     13  N   UNL     1       4.339   5.980  -6.269  0.00  0.00    -0.191 NA
ATOM     14  N   UNL     1       3.174   7.620  -3.643  0.00  0.00    -0.161 NA
ATOM     15  C   UNL     1       2.998   7.629  -2.303  0.00  0.00    +0.127 A 
ENDROOT
BRANCH  11  16
ATOM     16  C1* UNL     1       4.871   6.615  -9.166  0.00  0.00    +0.241 C 
ATOM     17  C2* UNL     1       4.796   5.065  -9.885  0.00  0.00    +0.234 C 
ATOM     18  O2* UNL     1       5.896   4.577  -8.985  0.00  0.00    -0.216 OA
ATOM     19  C3* UNL     1       5.949   5.586 -11.017  0.00  0.00    +0.216 C 
ATOM     20  O3* UNL     1       6.751   6.518 -10.164  0.00  0.00    -0.218 OA
ATOM     21  C4* UNL     1       4.861   6.760 -11.624  0.00  0.00    +0.183 C 
ATOM     22  O4* UNL     1       4.329   7.320 -10.351  0.00  0.00    -0.331 OA
BRANCH  21  23
ATOM     23  C5* UNL     1       3.547   5.756 -11.718  0.00  0.00    +0.214 C 
ATOM     24  O5* UNL     1       2.535   6.483 -12.265  0.00  0.00    -0.218 OA
ENDBRANCH  21  23
ENDBRANCH  11  16
BRANCH   1  27
ATOM     25  C   UNL     1       5.437   7.493   1.563  0.00  0.00    +0.139 C 
ATOM     26  N   UNL     1       4.822   7.642   0.553  0.00  0.00    -0.200 NA
ATOM     27  C   UNL     1       4.336   6.687  -0.379  0.00  0.00    +0.268 C 
ATOM     28  O   UNL     1       4.686   5.508  -0.126  0.00  0.00    -0.268 OA
ENDBRANCH   1  27
TORSDOF 3
ENDMDL
MODEL 8
REMARK VINA RESULT:      -7.4      3.615      9.163
REMARK  Name = 
REMARK  3 active torsions:
REMARK  status: ('A' for Active; 'I' for Inactive)
REMARK    1  A    between atoms: C_3  and  C_5
REMARK    2  A    between atoms: N_15  and  C1*_16
REMARK    3  A    between atoms: C4*_18  and  C5*_19
REMARK                            x       y       z     vdW  Elec       q    Type
REMARK                         _______ _______ _______ _____ _____    ______ ____
ROOT
ATOM      1  C   UNL     1       3.814   6.816  -4.031  0.00  0.00    +0.095 A 
ATOM      2  C   UNL     1       4.833   6.459  -4.905  0.00  0.00    +0.110 A 
ATOM      3  N   UNL     1       4.315   6.478  -6.149  0.00  0.00    -0.195 N 
ATOM      4  C   UNL     1       4.590   5.525  -7.188  0.00  0.00    +0.256 A 
ATOM      5  N   UNL     1       3.816   4.444  -7.451  0.00  0.00    -0.190 NA
ATOM      6  C   UNL     1       3.189   4.251  -8.646  0.00  0.00    +0.193 A 
ATOM      7  N   UNL     1       2.162   3.350  -8.883  0.00  0.00    -0.105 NA
ATOM      8  C   UNL     1       3.536   5.067  -9.715  0.00  0.00    +0.152 A 
ATOM      9  N   UNL     1       2.876   5.909 -10.571  0.00  0.00    -0.219 NA
ATOM     10  C   UNL     1       3.819   6.618 -11.265  0.00  0.00    +0.182 A 
ATOM     11  N   UNL     1       4.915   6.358 -10.687  0.00  0.00    -0.269 N 
ATOM     12  C   UNL     1       4.757   5.723  -9.530  0.00  0.00    +0.171 A 
ATOM     13  N   UNL     1       5.284   5.931  -8.298  0.00  0.00    -0.191 NA
ATOM     14  N   UNL     1       3.271   7.310  -6.066  0.00  0.00    -0.161 NA
ATOM     15  C   UNL     1       2.762   7.254  -4.816  0.00  0.00    +0.127 A 
ENDROOT
BRANCH  11  16
ATOM     16  C1* UNL     1       6.435   6.721 -10.969  0.00  0.00    +0.241 C 
ATOM     17  C2* UNL     1       6.771   5.193 -11.660  0.00  0.00    +0.234 C 
ATOM     18  O2* UNL     1       7.665   4.850 -10.501  0.00  0.00    -0.216 OA
ATOM     19  C3* UNL     1       8.086   5.900 -12.467  0.00  0.00    +0.216 C 
ATOM     20  O3* UNL     1       8.500   6.919 -11.453  0.00  0.00    -0.218 OA
ATOM     21  C4* UNL     1       7.029   6.918 -13.350  0.00  0.00    +0.183 C 
ATOM     22  O4* UNL     1       6.115   7.366 -12.264  0.00  0.00    -0.331 OA
BRANCH  21  23
ATOM     23  C5* UNL     1       5.943   5.736 -13.761  0.00  0.00    +0.214 C 
ATOM     24  O5* UNL     1       5.018   6.318 -14.572  0.00  0.00    -0.218 OA
ENDBRANCH  21  23
ENDBRANCH  11  16
BRANCH   1  27
ATOM     25  C   UNL     1       3.806   4.549  -1.197  0.00  0.00    +0.139 C 
ATOM     26  N   UNL     1       4.164   5.204  -2.126  0.00  0.00    -0.200 NA
ATOM     27  C   UNL     1       3.691   6.454  -2.608  0.00  0.00    +0.268 C 
ATOM     28  O   UNL     1       2.685   6.887  -1.994  0.00  0.00    -0.268 OA
ENDBRANCH   1  27
TORSDOF 3
ENDMDL
MODEL 9
REMARK VINA RESULT:      -7.3      2.715      4.228
REMARK  Name = 
REMARK  3 active torsions:
REMARK  status: ('A' for Active; 'I' for Inactive)
REMARK    1  A    between atoms: C_3  and  C_5
REMARK    2  A    between atoms: N_15  and  C1*_16
REMARK    3  A    between atoms: C4*_18  and  C5*_19
REMARK                            x       y       z     vdW  Elec       q    Type
REMARK                         _______ _______ _______ _____ _____    ______ ____
ROOT
ATOM      1  C   UNL     1       3.459   5.205  -9.131  0.00  0.00    +0.095 A 
ATOM      2  C   UNL     1       3.486   6.205  -8.166  0.00  0.00    +0.110 A 
ATOM      3  N   UNL     1       2.740   5.776  -7.129  0.00  0.00    -0.195 N 
ATOM      4  C   UNL     1       1.838   6.583  -6.353  0.00  0.00    +0.256 A 
ATOM      5  N   UNL     1       0.506   6.674  -6.591  0.00  0.00    -0.190 NA
ATOM      6  C   UNL     1      -0.439   6.299  -5.684  0.00  0.00    +0.193 A 
ATOM      7  N   UNL     1      -1.780   6.082  -5.957  0.00  0.00    -0.105 NA
ATOM      8  C   UNL     1      -0.036   6.029  -4.382  0.00  0.00    +0.152 A 
ATOM      9  N   UNL     1      -0.132   4.971  -3.516  0.00  0.00    -0.219 NA
ATOM     10  C   UNL     1       0.682   5.233  -2.448  0.00  0.00    +0.182 A 
ATOM     11  N   UNL     1       1.354   6.251  -2.791  0.00  0.00    -0.269 N 
ATOM     12  C   UNL     1       1.226   6.551  -4.079  0.00  0.00    +0.171 A 
ATOM     13  N   UNL     1       2.135   6.841  -5.041  0.00  0.00    -0.191 NA
ATOM     14  N   UNL     1       2.751   4.443  -7.233  0.00  0.00    -0.161 NA
ATOM     15  C   UNL     1       2.866   4.105  -8.537  0.00  0.00    +0.127 A 
ENDROOT
BRANCH  11  16
ATOM     16  C1* UNL     1       2.411   7.183  -2.059  0.00  0.00    +0.241 C 
ATOM     17  C2* UNL     1       2.991   5.913  -1.072  0.00  0.00    +0.234 C 
ATOM     18  O2* UNL     1       2.416   6.578   0.148  0.00  0.00    -0.216 OA
ATOM     19  C3* UNL     1       4.431   6.787  -0.874  0.00  0.00    +0.216 C 
ATOM     20  O3* UNL     1       3.897   8.185  -0.907  0.00  0.00    -0.218 OA
ATOM     21  C4* UNL     1       4.767   6.664  -2.548  0.00  0.00    +0.183 C 
ATOM     22  O4* UNL     1       3.428   6.983  -3.117  0.00  0.00    -0.331 OA
BRANCH  21  23
ATOM     23  C5* UNL     1       4.426   5.049  -2.681  0.00  0.00    +0.214 C 
ATOM     24  O5* UNL     1       4.584   4.719  -3.992  0.00  0.00    -0.218 OA
ENDBRANCH  21  23
ENDBRANCH  11  16
BRANCH   1  27
ATOM     25  C   UNL     1       5.346   5.868 -12.159  0.00  0.00    +0.139 C 
ATOM     26  N   UNL     1       4.941   5.354 -11.163  0.00  0.00    -0.200 NA
ATOM     27  C   UNL     1       3.645   5.362 -10.584  0.00  0.00    +0.268 C 
ATOM     28  O   UNL     1       2.825   6.098 -11.187  0.00  0.00    -0.268 OA
ENDBRANCH   1  27
TORSDOF 3
ENDMDL
