MODEL 1
REMARK VINA RESULT:      -7.2      0.000      0.000
REMARK  Name = 
REMARK  21 active torsions:
REMARK  status: ('A' for Active; 'I' for Inactive)
REMARK    1  A    between atoms: C_2  and  C_3
REMARK    2  A    between atoms: C_3  and  C_4
REMARK    3  A    between atoms: C_4  and  C_5
REMARK    4  A    between atoms: C_5  and  C_6
REMARK    5  A    between atoms: C_6  and  C_7
REMARK    6  A    between atoms: C_7  and  C_8
REMARK    7  A    between atoms: C_8  and  C_9
REMARK    8  A    between atoms: C_9  and  C_10
REMARK    9  A    between atoms: C_10  and  C_11
REMARK   10  A    between atoms: C_11  and  C_12
REMARK   11  A    between atoms: C_12  and  C_13
REMARK   12  A    between atoms: C_13  and  C_14
REMARK   13  A    between atoms: C_14  and  C_15
REMARK   14  A    between atoms: C_15  and  C_16
REMARK   15  A    between atoms: C_16  and  N_17
REMARK   16  A    between atoms: N_17  and  C_20
REMARK   17  A    between atoms: C_20  and  C_21
REMARK   18  A    between atoms: C_21  and  N_22
REMARK   19  A    between atoms: N_22  and  C_23
REMARK   20  A    between atoms: C_23  and  C_24
REMARK   21  A    between atoms: C_27  and  O_28
REMARK                            x       y       z     vdW  Elec       q    Type
REMARK                         _______ _______ _______ _____ _____    ______ ____
ROOT
ATOM      1  N   UNL     1       3.506   5.660  -5.278  0.00  0.00    +0.307 N 
ATOM      2  C   UNL     1       4.387   6.674  -5.841  0.00  0.00    +0.171 C 
ATOM      3  C   UNL     1       4.278   4.684  -4.533  0.00  0.00    +0.171 C 
ENDROOT
BRANCH   1   4
ATOM      4  C   UNL     1       2.536   6.340  -4.447  0.00  0.00    +0.109 C 
BRANCH   4   5
ATOM      5  C   UNL     1       1.459   5.313  -4.120  0.00  0.00    +0.061 C 
BRANCH   5   6
ATOM      6  C   UNL     1       1.141   5.372  -2.634  0.00  0.00    +0.006 C 
BRANCH   6   7
ATOM      7  C   UNL     1       2.105   6.361  -1.993  0.00  0.00    +0.000 C 
BRANCH   7   8
ATOM      8  C   UNL     1       1.528   6.879  -0.696  0.00  0.00    +0.000 C 
BRANCH   8   9
ATOM      9  C   UNL     1       0.240   6.173  -0.343  0.00  0.00    +0.000 C 
BRANCH   9  10
ATOM     10  C   UNL     1      -0.668   7.164   0.376  0.00  0.00    +0.000 C 
BRANCH  10  11
ATOM     11  C   UNL     1      -2.110   6.970  -0.045  0.00  0.00    +0.000 C 
BRANCH  11  12
ATOM     12  C   UNL     1      -2.166   6.173  -1.341  0.00  0.00    +0.000 C 
BRANCH  12  13
ATOM     13  C   UNL     1      -2.916   6.924  -2.414  0.00  0.00    +0.000 C 
BRANCH  13  14
ATOM     14  C   UNL     1      -1.957   7.878  -3.086  0.00  0.00    +0.000 C 
BRANCH  14  15
ATOM     15  C   UNL     1      -1.548   7.287  -4.430  0.00  0.00    +0.000 C 
BRANCH  15  16
ATOM     16  C   UNL     1      -2.730   7.244  -5.389  0.00  0.00    +0.000 C 
BRANCH  16  17
ATOM     17  C   UNL     1      -2.781   5.875  -6.055  0.00  0.00    +0.000 C 
BRANCH  17  19
ATOM     18  C   UNL     1      -0.846   5.324  -7.435  0.00  0.00    +0.000 C 
ATOM     19  C   UNL     1      -1.357   5.334  -6.003  0.00  0.00    +0.000 C 
ENDBRANCH  17  19
ENDBRANCH  16  17
ENDBRANCH  15  16
ENDBRANCH  14  15
ENDBRANCH  13  14
ENDBRANCH  12  13
ENDBRANCH  11  12
ENDBRANCH  10  11
ENDBRANCH   9  10
ENDBRANCH   8   9
ENDBRANCH   7   8
ENDBRANCH   6   7
ENDBRANCH   5   6
ENDBRANCH   4   5
ENDBRANCH   1   4
BRANCH   1  20
ATOM     20  C   UNL     1       2.828   5.032  -6.403  0.00  0.00    +0.131 C 
BRANCH  20  21
ATOM     21  C   UNL     1       2.801   5.998  -7.566  0.00  0.00    +0.155 C 
BRANCH  21  22
ATOM     22  N   UNL     1       2.939   5.308  -8.846  0.00  0.00    -0.268 N 
ATOM     23  C   UNL     1       1.957   5.583  -9.851  0.00  0.00    +0.221 A 
ATOM     24  N   UNL     1       1.345   4.543 -10.439  0.00  0.00    -0.212 NA
ATOM     25  C   UNL     1       0.133   4.695 -11.026  0.00  0.00    +0.103 A 
ATOM     26  C   UNL     1      -0.399   5.958 -11.253  0.00  0.00    +0.041 A 
ATOM     27  C   UNL     1       0.197   7.002 -10.561  0.00  0.00    +0.103 A 
ATOM     28  N   UNL     1       1.311   6.773  -9.837  0.00  0.00    -0.212 NA
BRANCH  22  29
ATOM     29  C   UNL     1       4.239   4.758  -9.138  0.00  0.00    +0.121 C 
BRANCH  29  30
ATOM     30  C   UNL     1       5.262   5.807  -9.396  0.00  0.00    -0.002 A 
ATOM     31  C   UNL     1       5.038   6.873 -10.256  0.00  0.00    +0.001 A 
ATOM     32  C   UNL     1       6.046   7.297 -11.111  0.00  0.00    +0.037 A 
ATOM     33  C   UNL     1       7.321   6.746 -11.069  0.00  0.00    +0.139 A 
ATOM     34  C   UNL     1       7.613   6.031  -9.913  0.00  0.00    +0.037 A 
ATOM     35  C   UNL     1       6.594   5.542  -9.105  0.00  0.00    +0.001 A 
BRANCH  33  36
ATOM     36  O   UNL     1       8.067   6.542 -12.233  0.00  0.00    -0.471 OA
ATOM     37  C   UNL     1       7.744   5.382 -12.986  0.00  0.00    +0.252 C 
ENDBRANCH  33  36
ENDBRANCH  29  30
ENDBRANCH  22  29
ENDBRANCH  21  22
ENDBRANCH  20  21
ENDBRANCH   1  20
TORSDOF 21
ENDMDL
MODEL 2
REMARK VINA RESULT:      -7.2      2.211      5.838
REMARK  Name = 
REMARK  21 active torsions:
REMARK  status: ('A' for Active; 'I' for Inactive)
REMARK    1  A    between atoms: C_2  and  C_3
REMARK    2  A    between atoms: C_3  and  C_4
REMARK    3  A    between atoms: C_4  and  C_5
REMARK    4  A    between atoms: C_5  and  C_6
REMARK    5  A    between atoms: C_6  and  C_7
REMARK    6  A    between atoms: C_7  and  C_8
REMARK    7  A    between atoms: C_8  and  C_9
REMARK    8  A    between atoms: C_9  and  C_10
REMARK    9  A    between atoms: C_10  and  C_11
REMARK   10  A    between atoms: C_11  and  C_12
REMARK   11  A    between atoms: C_12  and  C_13
REMARK   12  A    between atoms: C_13  and  C_14
REMARK   13  A    between atoms: C_14  and  C_15
REMARK   14  A    between atoms: C_15  and  C_16
REMARK   15  A    between atoms: C_16  and  N_17
REMARK   16  A    between atoms: N_17  and  C_20
REMARK   17  A    between atoms: C_20  and  C_21
REMARK   18  A    between atoms: C_21  and  N_22
REMARK   19  A    between atoms: N_22  and  C_23
REMARK   20  A    between atoms: C_23  and  C_24
REMARK   21  A    between atoms: C_27  and  O_28
REMARK                            x       y       z     vdW  Elec       q    Type
REMARK                         _______ _______ _______ _____ _____    ______ ____
ROOT
ATOM      1  N   UNL     1       1.259   5.872 -12.278  0.00  0.00    +0.307 N 
ATOM      2  C   UNL     1       0.948   5.017 -13.417  0.00  0.00    +0.171 C 
ATOM      3  C   UNL     1       0.365   7.013 -12.251  0.00  0.00    +0.171 C 
ENDROOT
BRANCH   1   4
ATOM      4  C   UNL     1       1.149   5.062 -11.084  0.00  0.00    +0.109 C 
BRANCH   4   5
ATOM      5  C   UNL     1       0.249   5.833 -10.127  0.00  0.00    +0.061 C 
BRANCH   5   6
ATOM      6  C   UNL     1      -0.095   4.950  -8.937  0.00  0.00    +0.006 C 
BRANCH   6   7
ATOM      7  C   UNL     1      -0.306   5.857  -7.733  0.00  0.00    +0.000 C 
BRANCH   7   8
ATOM      8  C   UNL     1      -1.318   5.243  -6.794  0.00  0.00    +0.000 C 
BRANCH   8   9
ATOM      9  C   UNL     1      -1.003   5.569  -5.352  0.00  0.00    +0.000 C 
BRANCH   9  10
ATOM     10  C   UNL     1      -0.826   7.078  -5.231  0.00  0.00    +0.000 C 
BRANCH  10  11
ATOM     11  C   UNL     1      -1.776   7.645  -4.196  0.00  0.00    +0.000 C 
BRANCH  11  12
ATOM     12  C   UNL     1      -2.890   6.646  -3.916  0.00  0.00    +0.000 C 
BRANCH  12  13
ATOM     13  C   UNL     1      -3.157   6.525  -2.435  0.00  0.00    +0.000 C 
BRANCH  13  14
ATOM     14  C   UNL     1      -2.204   5.504  -1.861  0.00  0.00    +0.000 C 
BRANCH  14  15
ATOM     15  C   UNL     1      -1.505   6.117  -0.653  0.00  0.00    +0.000 C 
BRANCH  15  16
ATOM     16  C   UNL     1      -0.020   6.319  -0.927  0.00  0.00    +0.000 C 
BRANCH  16  17
ATOM     17  C   UNL     1       0.455   5.251  -1.903  0.00  0.00    +0.000 C 
BRANCH  17  19
ATOM     18  C   UNL     1       2.875   5.372  -2.180  0.00  0.00    +0.000 C 
ATOM     19  C   UNL     1       1.559   5.901  -2.727  0.00  0.00    +0.000 C 
ENDBRANCH  17  19
ENDBRANCH  16  17
ENDBRANCH  15  16
ENDBRANCH  14  15
ENDBRANCH  13  14
ENDBRANCH  12  13
ENDBRANCH  11  12
ENDBRANCH  10  11
ENDBRANCH   9  10
ENDBRANCH   8   9
ENDBRANCH   7   8
ENDBRANCH   6   7
ENDBRANCH   5   6
ENDBRANCH   4   5
ENDBRANCH   1   4
BRANCH   1  20
ATOM     20  C   UNL     1       2.639   6.301 -12.450  0.00  0.00    +0.131 C 
BRANCH  20  21
ATOM     21  C   UNL     1       3.541   5.407 -11.629  0.00  0.00    +0.155 C 
BRANCH  21  22
ATOM     22  N   UNL     1       4.534   6.178 -10.885  0.00  0.00    -0.268 N 
ATOM     23  C   UNL     1       5.862   6.226 -11.416  0.00  0.00    +0.221 A 
ATOM     24  N   UNL     1       6.883   5.922 -10.598  0.00  0.00    -0.212 NA
ATOM     25  C   UNL     1       8.069   5.499 -11.099  0.00  0.00    +0.103 A 
ATOM     26  C   UNL     1       8.350   5.599 -12.456  0.00  0.00    +0.041 A 
ATOM     27  C   UNL     1       7.261   5.823 -13.286  0.00  0.00    +0.103 A 
ATOM     28  N   UNL     1       6.050   6.067 -12.748  0.00  0.00    -0.212 NA
BRANCH  22  29
ATOM     29  C   UNL     1       4.020   7.145  -9.948  0.00  0.00    +0.121 C 
BRANCH  29  30
ATOM     30  C   UNL     1       3.586   6.527  -8.666  0.00  0.00    -0.002 A 
ATOM     31  C   UNL     1       2.834   7.214  -7.722  0.00  0.00    +0.001 A 
ATOM     32  C   UNL     1       3.119   7.071  -6.371  0.00  0.00    +0.037 A 
ATOM     33  C   UNL     1       4.083   6.179  -5.917  0.00  0.00    +0.139 A 
ATOM     34  C   UNL     1       4.467   5.212  -6.838  0.00  0.00    +0.037 A 
ATOM     35  C   UNL     1       4.249   5.399  -8.197  0.00  0.00    +0.001 A 
BRANCH  33  36
ATOM     36  O   UNL     1       4.906   6.486  -4.829  0.00  0.00    -0.471 OA
ATOM     37  C   UNL     1       4.783   7.799  -4.303  0.00  0.00    +0.252 C 
ENDBRANCH  33  36
ENDBRANCH  29  30
ENDBRANCH  22  29
ENDBRANCH  21  22
ENDBRANCH  20  21
ENDBRANCH   1  20
TORSDOF 21
ENDMDL
MODEL 3
REMARK VINA RESULT:      -7.1      1.895      4.890
REMARK  Name = 
REMARK  21 active torsions:
REMARK  status: ('A' for Active; 'I' for Inactive)
REMARK    1  A    between atoms: C_2  and  C_3
REMARK    2  A    between atoms: C_3  and  C_4
REMARK    3  A    between atoms: C_4  and  C_5
REMARK    4  A    between atoms: C_5  and  C_6
REMARK    5  A    between atoms: C_6  and  C_7
REMARK    6  A    between atoms: C_7  and  C_8
REMARK    7  A    between atoms: C_8  and  C_9
REMARK    8  A    between atoms: C_9  and  C_10
REMARK    9  A    between atoms: C_10  and  C_11
REMARK   10  A    between atoms: C_11  and  C_12
REMARK   11  A    between atoms: C_12  and  C_13
REMARK   12  A    between atoms: C_13  and  C_14
REMARK   13  A    between atoms: C_14  and  C_15
REMARK   14  A    between atoms: C_15  and  C_16
REMARK   15  A    between atoms: C_16  and  N_17
REMARK   16  A    between atoms: N_17  and  C_20
REMARK   17  A    between atoms: C_20  and  C_21
REMARK   18  A    between atoms: C_21  and  N_22
REMARK   19  A    between atoms: N_22  and  C_23
REMARK   20  A    between atoms: C_23  and  C_24
REMARK   21  A    between atoms: C_27  and  O_28
REMARK                            x       y       z     vdW  Elec       q    Type
REMARK                         _______ _______ _______ _____ _____    ______ ____
ROOT
ATOM      1  N   UNL     1       3.798   5.971  -5.076  0.00  0.00    +0.307 N 
ATOM      2  C   UNL     1       3.785   7.211  -4.311  0.00  0.00    +0.171 C 
ATOM      3  C   UNL     1       4.789   5.061  -4.536  0.00  0.00    +0.171 C 
ENDROOT
BRANCH   1   4
ATOM      4  C   UNL     1       2.462   5.416  -5.028  0.00  0.00    +0.109 C 
BRANCH   4   5
ATOM      5  C   UNL     1       1.518   6.594  -4.823  0.00  0.00    +0.061 C 
BRANCH   5   6
ATOM      6  C   UNL     1       0.473   6.600  -5.928  0.00  0.00    +0.006 C 
BRANCH   6   7
ATOM      7  C   UNL     1      -0.163   5.218  -5.971  0.00  0.00    +0.000 C 
BRANCH   7   8
ATOM      8  C   UNL     1      -1.365   5.231  -6.888  0.00  0.00    +0.000 C 
BRANCH   8   9
ATOM      9  C   UNL     1      -2.616   5.653  -6.153  0.00  0.00    +0.000 C 
BRANCH   9  10
ATOM     10  C   UNL     1      -2.240   5.968  -4.710  0.00  0.00    +0.000 C 
BRANCH  10  11
ATOM     11  C   UNL     1      -3.213   5.316  -3.750  0.00  0.00    +0.000 C 
BRANCH  11  12
ATOM     12  C   UNL     1      -3.576   6.294  -2.641  0.00  0.00    +0.000 C 
BRANCH  12  13
ATOM     13  C   UNL     1      -2.409   7.186  -2.294  0.00  0.00    +0.000 C 
BRANCH  13  14
ATOM     14  C   UNL     1      -2.006   6.909  -0.866  0.00  0.00    +0.000 C 
BRANCH  14  15
ATOM     15  C   UNL     1      -0.512   6.607  -0.833  0.00  0.00    +0.000 C 
BRANCH  15  16
ATOM     16  C   UNL     1      -0.200   5.320  -1.586  0.00  0.00    +0.000 C 
BRANCH  16  17
ATOM     17  C   UNL     1       1.269   4.969  -1.382  0.00  0.00    +0.000 C 
BRANCH  17  19
ATOM     18  C   UNL     1       3.434   5.949  -0.835  0.00  0.00    +0.000 C 
ATOM     19  C   UNL     1       1.981   6.291  -1.122  0.00  0.00    +0.000 C 
ENDBRANCH  17  19
ENDBRANCH  16  17
ENDBRANCH  15  16
ENDBRANCH  14  15
ENDBRANCH  13  14
ENDBRANCH  12  13
ENDBRANCH  11  12
ENDBRANCH  10  11
ENDBRANCH   9  10
ENDBRANCH   8   9
ENDBRANCH   7   8
ENDBRANCH   6   7
ENDBRANCH   5   6
ENDBRANCH   4   5
ENDBRANCH   1   4
BRANCH   1  20
ATOM     20  C   UNL     1       4.125   6.336  -6.447  0.00  0.00    +0.131 C 
BRANCH  20  21
ATOM     21  C   UNL     1       4.696   5.130  -7.158  0.00  0.00    +0.155 C 
BRANCH  21  22
ATOM     22  N   UNL     1       4.313   5.102  -8.567  0.00  0.00    -0.268 N 
ATOM     23  C   UNL     1       5.237   5.652  -9.511  0.00  0.00    +0.221 A 
ATOM     24  N   UNL     1       4.781   6.559 -10.390  0.00  0.00    -0.212 NA
ATOM     25  C   UNL     1       5.628   7.440 -10.977  0.00  0.00    +0.103 A 
ATOM     26  C   UNL     1       7.005   7.281 -10.884  0.00  0.00    +0.041 A 
ATOM     27  C   UNL     1       7.450   6.404  -9.905  0.00  0.00    +0.103 A 
ATOM     28  N   UNL     1       6.558   5.668  -9.213  0.00  0.00    -0.212 NA
BRANCH  22  29
ATOM     29  C   UNL     1       3.271   4.173  -8.927  0.00  0.00    +0.121 C 
BRANCH  29  30
ATOM     30  C   UNL     1       1.956   4.836  -9.135  0.00  0.00    -0.002 A 
ATOM     31  C   UNL     1       0.946   4.270  -9.901  0.00  0.00    +0.001 A 
ATOM     32  C   UNL     1       0.193   5.067 -10.753  0.00  0.00    +0.037 A 
ATOM     33  C   UNL     1       0.352   6.447 -10.796  0.00  0.00    +0.139 A 
ATOM     34  C   UNL     1       1.027   6.993  -9.710  0.00  0.00    +0.037 A 
ATOM     35  C   UNL     1       1.842   6.203  -8.910  0.00  0.00    +0.001 A 
BRANCH  33  36
ATOM     36  O   UNL     1       0.255   7.155 -11.997  0.00  0.00    -0.471 OA
ATOM     37  C   UNL     1       0.775   6.508 -13.149  0.00  0.00    +0.252 C 
ENDBRANCH  33  36
ENDBRANCH  29  30
ENDBRANCH  22  29
ENDBRANCH  21  22
ENDBRANCH  20  21
ENDBRANCH   1  20
TORSDOF 21
ENDMDL
MODEL 4
REMARK VINA RESULT:      -7.0      1.687      3.672
REMARK  Name = 
REMARK  21 active torsions:
REMARK  status: ('A' for Active; 'I' for Inactive)
REMARK    1  A    between atoms: C_2  and  C_3
REMARK    2  A    between atoms: C_3  and  C_4
REMARK    3  A    between atoms: C_4  and  C_5
REMARK    4  A    between atoms: C_5  and  C_6
REMARK    5  A    between atoms: C_6  and  C_7
REMARK    6  A    between atoms: C_7  and  C_8
REMARK    7  A    between atoms: C_8  and  C_9
REMARK    8  A    between atoms: C_9  and  C_10
REMARK    9  A    between atoms: C_10  and  C_11
REMARK   10  A    between atoms: C_11  and  C_12
REMARK   11  A    between atoms: C_12  and  C_13
REMARK   12  A    between atoms: C_13  and  C_14
REMARK   13  A    between atoms: C_14  and  C_15
REMARK   14  A    between atoms: C_15  and  C_16
REMARK   15  A    between atoms: C_16  and  N_17
REMARK   16  A    between atoms: N_17  and  C_20
REMARK   17  A    between atoms: C_20  and  C_21
REMARK   18  A    between atoms: C_21  and  N_22
REMARK   19  A    between atoms: N_22  and  C_23
REMARK   20  A    between atoms: C_23  and  C_24
REMARK   21  A    between atoms: C_27  and  O_28
REMARK                            x       y       z     vdW  Elec       q    Type
REMARK                         _______ _______ _______ _____ _____    ______ ____
ROOT
ATOM      1  N   UNL     1       2.849   5.436  -6.900  0.00  0.00    +0.307 N 
ATOM      2  C   UNL     1       2.700   6.867  -6.663  0.00  0.00    +0.171 C 
ATOM      3  C   UNL     1       3.241   4.765  -5.677  0.00  0.00    +0.171 C 
ENDROOT
BRANCH   1   4
ATOM      4  C   UNL     1       1.587   4.947  -7.412  0.00  0.00    +0.109 C 
BRANCH   4   5
ATOM      5  C   UNL     1       0.515   5.886  -6.873  0.00  0.00    +0.061 C 
BRANCH   5   6
ATOM      6  C   UNL     1      -0.478   5.091  -6.039  0.00  0.00    +0.006 C 
BRANCH   6   7
ATOM      7  C   UNL     1      -1.878   5.472  -6.499  0.00  0.00    +0.000 C 
BRANCH   7   8
ATOM      8  C   UNL     1      -2.407   6.612  -5.659  0.00  0.00    +0.000 C 
BRANCH   8   9
ATOM      9  C   UNL     1      -2.470   6.237  -4.197  0.00  0.00    +0.000 C 
BRANCH   9  10
ATOM     10  C   UNL     1      -2.366   7.513  -3.371  0.00  0.00    +0.000 C 
BRANCH  10  11
ATOM     11  C   UNL     1      -2.039   7.190  -1.928  0.00  0.00    +0.000 C 
BRANCH  11  12
ATOM     12  C   UNL     1      -1.659   5.721  -1.802  0.00  0.00    +0.000 C 
BRANCH  12  13
ATOM     13  C   UNL     1      -0.283   5.561  -1.202  0.00  0.00    +0.000 C 
BRANCH  13  14
ATOM     14  C   UNL     1       0.647   5.050  -2.275  0.00  0.00    +0.000 C 
BRANCH  14  15
ATOM     15  C   UNL     1       1.393   6.235  -2.877  0.00  0.00    +0.000 C 
BRANCH  15  16
ATOM     16  C   UNL     1       2.798   6.345  -2.299  0.00  0.00    +0.000 C 
BRANCH  16  17
ATOM     17  C   UNL     1       3.449   7.623  -2.812  0.00  0.00    +0.000 C 
BRANCH  17  19
ATOM     18  C   UNL     1       5.391   7.498  -4.282  0.00  0.00    +0.000 C 
ATOM     19  C   UNL     1       4.947   7.348  -2.836  0.00  0.00    +0.000 C 
ENDBRANCH  17  19
ENDBRANCH  16  17
ENDBRANCH  15  16
ENDBRANCH  14  15
ENDBRANCH  13  14
ENDBRANCH  12  13
ENDBRANCH  11  12
ENDBRANCH  10  11
ENDBRANCH   9  10
ENDBRANCH   8   9
ENDBRANCH   7   8
ENDBRANCH   6   7
ENDBRANCH   5   6
ENDBRANCH   4   5
ENDBRANCH   1   4
BRANCH   1  20
ATOM     20  C   UNL     1       3.877   5.293  -7.921  0.00  0.00    +0.131 C 
BRANCH  20  21
ATOM     21  C   UNL     1       3.222   4.931  -9.235  0.00  0.00    +0.155 C 
BRANCH  21  22
ATOM     22  N   UNL     1       3.624   5.837 -10.308  0.00  0.00    -0.268 N 
ATOM     23  C   UNL     1       2.862   5.802 -11.519  0.00  0.00    +0.221 A 
ATOM     24  N   UNL     1       3.523   5.667 -12.679  0.00  0.00    -0.212 NA
ATOM     25  C   UNL     1       2.901   5.173 -13.777  0.00  0.00    +0.103 A 
ATOM     26  C   UNL     1       1.520   5.023 -13.810  0.00  0.00    +0.041 A 
ATOM     27  C   UNL     1       0.873   5.077 -12.584  0.00  0.00    +0.103 A 
ATOM     28  N   UNL     1       1.569   5.402 -11.477  0.00  0.00    -0.212 NA
BRANCH  22  29
ATOM     29  C   UNL     1       4.449   6.955  -9.923  0.00  0.00    +0.121 C 
BRANCH  29  30
ATOM     30  C   UNL     1       5.816   6.887 -10.507  0.00  0.00    -0.002 A 
ATOM     31  C   UNL     1       6.236   7.733 -11.525  0.00  0.00    +0.001 A 
ATOM     32  C   UNL     1       7.008   7.234 -12.566  0.00  0.00    +0.037 A 
ATOM     33  C   UNL     1       7.462   5.921 -12.576  0.00  0.00    +0.139 A 
ATOM     34  C   UNL     1       7.406   5.272 -11.348  0.00  0.00    +0.037 A 
ATOM     35  C   UNL     1       6.570   5.733 -10.339  0.00  0.00    +0.001 A 
BRANCH  33  36
ATOM     36  O   UNL     1       7.540   5.185 -13.762  0.00  0.00    -0.471 OA
ATOM     37  C   UNL     1       6.887   5.747 -14.890  0.00  0.00    +0.252 C 
ENDBRANCH  33  36
ENDBRANCH  29  30
ENDBRANCH  22  29
ENDBRANCH  21  22
ENDBRANCH  20  21
ENDBRANCH   1  20
TORSDOF 21
ENDMDL
MODEL 5
REMARK VINA RESULT:      -7.0      1.725      3.746
REMARK  Name = 
REMARK  21 active torsions:
REMARK  status: ('A' for Active; 'I' for Inactive)
REMARK    1  A    between atoms: C_2  and  C_3
REMARK    2  A    between atoms: C_3  and  C_4
REMARK    3  A    between atoms: C_4  and  C_5
REMARK    4  A    between atoms: C_5  and  C_6
REMARK    5  A    between atoms: C_6  and  C_7
REMARK    6  A    between atoms: C_7  and  C_8
REMARK    7  A    between atoms: C_8  and  C_9
REMARK    8  A    between atoms: C_9  and  C_10
REMARK    9  A    between atoms: C_10  and  C_11
REMARK   10  A    between atoms: C_11  and  C_12
REMARK   11  A    between atoms: C_12  and  C_13
REMARK   12  A    between atoms: C_13  and  C_14
REMARK   13  A    between atoms: C_14  and  C_15
REMARK   14  A    between atoms: C_15  and  C_16
REMARK   15  A    between atoms: C_16  and  N_17
REMARK   16  A    between atoms: N_17  and  C_20
REMARK   17  A    between atoms: C_20  and  C_21
REMARK   18  A    between atoms: C_21  and  N_22
REMARK   19  A    between atoms: N_22  and  C_23
REMARK   20  A    between atoms: C_23  and  C_24
REMARK   21  A    between atoms: C_27  and  O_28
REMARK                            x       y       z     vdW  Elec       q    Type
REMARK                         _______ _______ _______ _____ _____    ______ ____
ROOT
ATOM      1  N   UNL     1       3.584   5.504  -4.828  0.00  0.00    +0.307 N 
ATOM      2  C   UNL     1       3.618   6.950  -5.002  0.00  0.00    +0.171 C 
ATOM      3  C   UNL     1       4.899   5.012  -4.468  0.00  0.00    +0.171 C 
ENDROOT
BRANCH   1   4
ATOM      4  C   UNL     1       2.594   5.211  -3.814  0.00  0.00    +0.109 C 
BRANCH   4   5
ATOM      5  C   UNL     1       2.172   6.553  -3.229  0.00  0.00    +0.061 C 
BRANCH   5   6
ATOM      6  C   UNL     1       1.300   6.317  -2.005  0.00  0.00    +0.006 C 
BRANCH   6   7
ATOM      7  C   UNL     1       2.182   6.466  -0.773  0.00  0.00    +0.000 C 
BRANCH   7   8
ATOM      8  C   UNL     1       1.622   7.535   0.137  0.00  0.00    +0.000 C 
BRANCH   8   9
ATOM      9  C   UNL     1       0.332   7.088   0.784  0.00  0.00    +0.000 C 
BRANCH   9  10
ATOM     10  C   UNL     1      -0.777   8.040   0.349  0.00  0.00    +0.000 C 
BRANCH  10  11
ATOM     11  C   UNL     1      -2.061   7.280   0.090  0.00  0.00    +0.000 C 
BRANCH  11  12
ATOM     12  C   UNL     1      -2.262   7.103  -1.409  0.00  0.00    +0.000 C 
BRANCH  12  13
ATOM     13  C   UNL     1      -2.309   5.642  -1.787  0.00  0.00    +0.000 C 
BRANCH  13  14
ATOM     14  C   UNL     1      -2.941   5.523  -3.152  0.00  0.00    +0.000 C 
BRANCH  14  15
ATOM     15  C   UNL     1      -2.934   6.898  -3.812  0.00  0.00    +0.000 C 
BRANCH  15  16
ATOM     16  C   UNL     1      -2.399   6.816  -5.236  0.00  0.00    +0.000 C 
BRANCH  16  17
ATOM     17  C   UNL     1      -0.884   6.967  -5.208  0.00  0.00    +0.000 C 
BRANCH  17  19
ATOM     18  C   UNL     1      -1.513   5.265  -6.836  0.00  0.00    +0.000 C 
ATOM     19  C   UNL     1      -0.335   5.828  -6.057  0.00  0.00    +0.000 C 
ENDBRANCH  17  19
ENDBRANCH  16  17
ENDBRANCH  15  16
ENDBRANCH  14  15
ENDBRANCH  13  14
ENDBRANCH  12  13
ENDBRANCH  11  12
ENDBRANCH  10  11
ENDBRANCH   9  10
ENDBRANCH   8   9
ENDBRANCH   7   8
ENDBRANCH   6   7
ENDBRANCH   5   6
ENDBRANCH   4   5
ENDBRANCH   1   4
BRANCH   1  20
ATOM     20  C   UNL     1       3.155   4.946  -6.103  0.00  0.00    +0.131 C 
BRANCH  20  21
ATOM     21  C   UNL     1       3.453   5.939  -7.203  0.00  0.00    +0.155 C 
BRANCH  21  22
ATOM     22  N   UNL     1       3.331   5.333  -8.526  0.00  0.00    -0.268 N 
ATOM     23  C   UNL     1       4.480   5.377  -9.379  0.00  0.00    +0.221 A 
ATOM     24  N   UNL     1       4.324   5.845 -10.628  0.00  0.00    -0.212 NA
ATOM     25  C   UNL     1       5.379   6.345 -11.316  0.00  0.00    +0.103 A 
ATOM     26  C   UNL     1       6.680   6.167 -10.860  0.00  0.00    +0.041 A 
ATOM     27  C   UNL     1       6.812   5.769  -9.538  0.00  0.00    +0.103 A 
ATOM     28  N   UNL     1       5.714   5.448  -8.825  0.00  0.00    -0.212 NA
BRANCH  22  29
ATOM     29  C   UNL     1       2.249   4.396  -8.701  0.00  0.00    +0.121 C 
BRANCH  29  30
ATOM     30  C   UNL     1       1.124   4.960  -9.494  0.00  0.00    -0.002 A 
ATOM     31  C   UNL     1       0.478   4.241 -10.492  0.00  0.00    +0.001 A 
ATOM     32  C   UNL     1       0.120   4.869 -11.677  0.00  0.00    +0.037 A 
ATOM     33  C   UNL     1       0.302   6.234 -11.866  0.00  0.00    +0.139 A 
ATOM     34  C   UNL     1       0.515   6.964 -10.702  0.00  0.00    +0.037 A 
ATOM     35  C   UNL     1       0.950   6.338  -9.541  0.00  0.00    +0.001 A 
BRANCH  33  36
ATOM     36  O   UNL     1       0.683   6.755 -13.107  0.00  0.00    -0.471 OA
ATOM     37  C   UNL     1       1.783   6.119 -13.740  0.00  0.00    +0.252 C 
ENDBRANCH  33  36
ENDBRANCH  29  30
ENDBRANCH  22  29
ENDBRANCH  21  22
ENDBRANCH  20  21
ENDBRANCH   1  20
TORSDOF 21
ENDMDL
MODEL 6
REMARK VINA RESULT:      -6.9      2.608      8.986
REMARK  Name = 
REMARK  21 active torsions:
REMARK  status: ('A' for Active; 'I' for Inactive)
REMARK    1  A    between atoms: C_2  and  C_3
REMARK    2  A    between atoms: C_3  and  C_4
REMARK    3  A    between atoms: C_4  and  C_5
REMARK    4  A    between atoms: C_5  and  C_6
REMARK    5  A    between atoms: C_6  and  C_7
REMARK    6  A    between atoms: C_7  and  C_8
REMARK    7  A    between atoms: C_8  and  C_9
REMARK    8  A    between atoms: C_9  and  C_10
REMARK    9  A    between atoms: C_10  and  C_11
REMARK   10  A    between atoms: C_11  and  C_12
REMARK   11  A    between atoms: C_12  and  C_13
REMARK   12  A    between atoms: C_13  and  C_14
REMARK   13  A    between atoms: C_14  and  C_15
REMARK   14  A    between atoms: C_15  and  C_16
REMARK   15  A    between atoms: C_16  and  N_17
REMARK   16  A    between atoms: N_17  and  C_20
REMARK   17  A    between atoms: C_20  and  C_21
REMARK   18  A    between atoms: C_21  and  N_22
REMARK   19  A    between atoms: N_22  and  C_23
REMARK   20  A    between atoms: C_23  and  C_24
REMARK   21  A    between atoms: C_27  and  O_28
REMARK                            x       y       z     vdW  Elec       q    Type
REMARK                         _______ _______ _______ _____ _____    ______ ____
ROOT
ATOM      1  N   UNL     1       0.633   5.681  -6.149  0.00  0.00    +0.307 N 
ATOM      2  C   UNL     1      -0.801   5.559  -6.382  0.00  0.00    +0.171 C 
ATOM      3  C   UNL     1       1.270   4.384  -6.262  0.00  0.00    +0.171 C 
ENDROOT
BRANCH   1   4
ATOM      4  C   UNL     1       1.150   6.631  -7.111  0.00  0.00    +0.109 C 
BRANCH   4   5
ATOM      5  C   UNL     1       1.670   5.810  -8.284  0.00  0.00    +0.061 C 
BRANCH   5   6
ATOM      6  C   UNL     1       1.449   6.582  -9.576  0.00  0.00    +0.006 C 
BRANCH   6   7
ATOM      7  C   UNL     1       0.134   6.106 -10.179  0.00  0.00    +0.000 C 
BRANCH   7   8
ATOM      8  C   UNL     1       0.403   5.108 -11.282  0.00  0.00    +0.000 C 
BRANCH   8   9
ATOM      9  C   UNL     1       0.464   5.781 -12.633  0.00  0.00    +0.000 C 
BRANCH   9  10
ATOM     10  C   UNL     1       1.470   5.029 -13.497  0.00  0.00    +0.000 C 
BRANCH  10  11
ATOM     11  C   UNL     1       2.637   5.924 -13.859  0.00  0.00    +0.000 C 
BRANCH  11  12
ATOM     12  C   UNL     1       3.899   5.433 -13.163  0.00  0.00    +0.000 C 
BRANCH  12  13
ATOM     13  C   UNL     1       4.186   6.238 -11.918  0.00  0.00    +0.000 C 
BRANCH  13  14
ATOM     14  C   UNL     1       4.699   5.301 -10.852  0.00  0.00    +0.000 C 
BRANCH  14  15
ATOM     15  C   UNL     1       5.360   6.128  -9.756  0.00  0.00    +0.000 C 
BRANCH  15  16
ATOM     16  C   UNL     1       6.835   5.771  -9.618  0.00  0.00    +0.000 C 
BRANCH  16  17
ATOM     17  C   UNL     1       7.657   6.714 -10.487  0.00  0.00    +0.000 C 
BRANCH  17  19
ATOM     18  C   UNL     1       7.837   5.914 -12.783  0.00  0.00    +0.000 C 
ATOM     19  C   UNL     1       8.480   5.822 -11.408  0.00  0.00    +0.000 C 
ENDBRANCH  17  19
ENDBRANCH  16  17
ENDBRANCH  15  16
ENDBRANCH  14  15
ENDBRANCH  13  14
ENDBRANCH  12  13
ENDBRANCH  11  12
ENDBRANCH  10  11
ENDBRANCH   9  10
ENDBRANCH   8   9
ENDBRANCH   7   8
ENDBRANCH   6   7
ENDBRANCH   5   6
ENDBRANCH   4   5
ENDBRANCH   1   4
BRANCH   1  20
ATOM     20  C   UNL     1       0.787   6.217  -4.805  0.00  0.00    +0.131 C 
BRANCH  20  21
ATOM     21  C   UNL     1       0.925   5.071  -3.828  0.00  0.00    +0.155 C 
BRANCH  21  22
ATOM     22  N   UNL     1       0.540   5.464  -2.475  0.00  0.00    -0.268 N 
ATOM     23  C   UNL     1      -0.851   5.697  -2.228  0.00  0.00    +0.221 A 
ATOM     24  N   UNL     1      -1.206   6.850  -1.639  0.00  0.00    -0.212 NA
ATOM     25  C   UNL     1      -2.459   7.345  -1.786  0.00  0.00    +0.103 A 
ATOM     26  C   UNL     1      -3.475   6.572  -2.335  0.00  0.00    +0.041 A 
ATOM     27  C   UNL     1      -3.071   5.433  -3.016  0.00  0.00    +0.103 A 
ATOM     28  N   UNL     1      -1.774   5.067  -2.994  0.00  0.00    -0.212 NA
BRANCH  22  29
ATOM     29  C   UNL     1       1.493   5.179  -1.432  0.00  0.00    +0.121 C 
BRANCH  29  30
ATOM     30  C   UNL     1       2.828   5.780  -1.694  0.00  0.00    -0.002 A 
ATOM     31  C   UNL     1       3.035   7.152  -1.743  0.00  0.00    +0.001 A 
ATOM     32  C   UNL     1       3.872   7.693  -2.710  0.00  0.00    +0.037 A 
ATOM     33  C   UNL     1       4.596   6.890  -3.583  0.00  0.00    +0.139 A 
ATOM     34  C   UNL     1       4.708   5.558  -3.199  0.00  0.00    +0.037 A 
ATOM     35  C   UNL     1       3.816   5.004  -2.290  0.00  0.00    +0.001 A 
BRANCH  33  36
ATOM     36  O   UNL     1       4.802   7.262  -4.915  0.00  0.00    -0.471 OA
ATOM     37  C   UNL     1       4.500   6.277  -5.892  0.00  0.00    +0.252 C 
ENDBRANCH  33  36
ENDBRANCH  29  30
ENDBRANCH  22  29
ENDBRANCH  21  22
ENDBRANCH  20  21
ENDBRANCH   1  20
TORSDOF 21
ENDMDL
MODEL 7
REMARK VINA RESULT:      -6.7      2.255      6.024
REMARK  Name = 
REMARK  21 active torsions:
REMARK  status: ('A' for Active; 'I' for Inactive)
REMARK    1  A    between atoms: C_2  and  C_3
REMARK    2  A    between atoms: C_3  and  C_4
REMARK    3  A    between atoms: C_4  and  C_5
REMARK    4  A    between atoms: C_5  and  C_6
REMARK    5  A    between atoms: C_6  and  C_7
REMARK    6  A    between atoms: C_7  and  C_8
REMARK    7  A    between atoms: C_8  and  C_9
REMARK    8  A    between atoms: C_9  and  C_10
REMARK    9  A    between atoms: C_10  and  C_11
REMARK   10  A    between atoms: C_11  and  C_12
REMARK   11  A    between atoms: C_12  and  C_13
REMARK   12  A    between atoms: C_13  and  C_14
REMARK   13  A    between atoms: C_14  and  C_15
REMARK   14  A    between atoms: C_15  and  C_16
REMARK   15  A    between atoms: C_16  and  N_17
REMARK   16  A    between atoms: N_17  and  C_20
REMARK   17  A    between atoms: C_20  and  C_21
REMARK   18  A    between atoms: C_21  and  N_22
REMARK   19  A    between atoms: N_22  and  C_23
REMARK   20  A    between atoms: C_23  and  C_24
REMARK   21  A    between atoms: C_27  and  O_28
REMARK                            x       y       z     vdW  Elec       q    Type
REMARK                         _______ _______ _______ _____ _____    ______ ____
ROOT
ATOM      1  N   UNL     1       0.490   5.956 -11.018  0.00  0.00    +0.307 N 
ATOM      2  C   UNL     1       0.805   5.176 -12.208  0.00  0.00    +0.171 C 
ATOM      3  C   UNL     1      -0.490   6.976 -11.334  0.00  0.00    +0.171 C 
ENDROOT
BRANCH   1   4
ATOM      4  C   UNL     1       0.016   5.036 -10.007  0.00  0.00    +0.109 C 
BRANCH   4   5
ATOM      5  C   UNL     1      -0.067   5.831  -8.710  0.00  0.00    +0.061 C 
BRANCH   5   6
ATOM      6  C   UNL     1      -0.498   4.909  -7.580  0.00  0.00    +0.006 C 
BRANCH   6   7
ATOM      7  C   UNL     1      -1.318   5.733  -6.598  0.00  0.00    +0.000 C 
BRANCH   7   8
ATOM      8  C   UNL     1      -0.476   6.092  -5.395  0.00  0.00    +0.000 C 
BRANCH   8   9
ATOM      9  C   UNL     1      -1.056   7.269  -4.646  0.00  0.00    +0.000 C 
BRANCH   9  10
ATOM     10  C   UNL     1      -2.574   7.218  -4.775  0.00  0.00    +0.000 C 
BRANCH  10  11
ATOM     11  C   UNL     1      -3.173   6.349  -3.689  0.00  0.00    +0.000 C 
BRANCH  11  12
ATOM     12  C   UNL     1      -2.713   6.841  -2.323  0.00  0.00    +0.000 C 
BRANCH  12  13
ATOM     13  C   UNL     1      -2.243   5.696  -1.459  0.00  0.00    +0.000 C 
BRANCH  13  14
ATOM     14  C   UNL     1      -1.227   6.227  -0.476  0.00  0.00    +0.000 C 
BRANCH  14  15
ATOM     15  C   UNL     1      -1.911   7.251   0.422  0.00  0.00    +0.000 C 
BRANCH  15  16
ATOM     16  C   UNL     1      -0.991   8.433   0.699  0.00  0.00    +0.000 C 
BRANCH  16  17
ATOM     17  C   UNL     1       0.224   7.946   1.478  0.00  0.00    +0.000 C 
BRANCH  17  19
ATOM     18  C   UNL     1       1.425  10.015   1.002  0.00  0.00    +0.000 C 
ATOM     19  C   UNL     1       1.438   8.515   0.754  0.00  0.00    +0.000 C 
ENDBRANCH  17  19
ENDBRANCH  16  17
ENDBRANCH  15  16
ENDBRANCH  14  15
ENDBRANCH  13  14
ENDBRANCH  12  13
ENDBRANCH  11  12
ENDBRANCH  10  11
ENDBRANCH   9  10
ENDBRANCH   8   9
ENDBRANCH   7   8
ENDBRANCH   6   7
ENDBRANCH   5   6
ENDBRANCH   4   5
ENDBRANCH   1   4
BRANCH   1  20
ATOM     20  C   UNL     1       1.740   6.560 -10.579  0.00  0.00    +0.131 C 
BRANCH  20  21
ATOM     21  C   UNL     1       2.896   5.715 -11.066  0.00  0.00    +0.155 C 
BRANCH  21  22
ATOM     22  N   UNL     1       3.901   5.521 -10.024  0.00  0.00    -0.268 N 
ATOM     23  C   UNL     1       5.133   6.238 -10.158  0.00  0.00    +0.221 A 
ATOM     24  N   UNL     1       6.281   5.547 -10.062  0.00  0.00    -0.212 NA
ATOM     25  C   UNL     1       7.423   6.023 -10.616  0.00  0.00    +0.103 A 
ATOM     26  C   UNL     1       7.504   7.330 -11.080  0.00  0.00    +0.041 A 
ATOM     27  C   UNL     1       6.295   7.989 -11.255  0.00  0.00    +0.103 A 
ATOM     28  N   UNL     1       5.151   7.403 -10.849  0.00  0.00    -0.212 NA
BRANCH  22  29
ATOM     29  C   UNL     1       3.429   4.984  -8.773  0.00  0.00    +0.121 C 
BRANCH  29  30
ATOM     30  C   UNL     1       3.821   5.818  -7.605  0.00  0.00    -0.002 A 
ATOM     31  C   UNL     1       4.754   5.397  -6.666  0.00  0.00    +0.001 A 
ATOM     32  C   UNL     1       4.538   5.644  -5.317  0.00  0.00    +0.037 A 
ATOM     33  C   UNL     1       3.454   6.392  -4.874  0.00  0.00    +0.139 A 
ATOM     34  C   UNL     1       2.830   7.157  -5.853  0.00  0.00    +0.037 A 
ATOM     35  C   UNL     1       2.988   6.853  -7.199  0.00  0.00    +0.001 A 
BRANCH  33  36
ATOM     36  O   UNL     1       2.780   6.071  -3.692  0.00  0.00    -0.471 OA
ATOM     37  C   UNL     1       3.520   5.331  -2.732  0.00  0.00    +0.252 C 
ENDBRANCH  33  36
ENDBRANCH  29  30
ENDBRANCH  22  29
ENDBRANCH  21  22
ENDBRANCH  20  21
ENDBRANCH   1  20
TORSDOF 21
ENDMDL
MODEL 8
REMARK VINA RESULT:      -6.7      3.443      9.683
REMARK  Name = 
REMARK  21 active torsions:
REMARK  status: ('A' for Active; 'I' for Inactive)
REMARK    1  A    between atoms: C_2  and  C_3
REMARK    2  A    between atoms: C_3  and  C_4
REMARK    3  A    between atoms: C_4  and  C_5
REMARK    4  A    between atoms: C_5  and  C_6
REMARK    5  A    between atoms: C_6  and  C_7
REMARK    6  A    between atoms: C_7  and  C_8
REMARK    7  A    between atoms: C_8  and  C_9
REMARK    8  A    between atoms: C_9  and  C_10
REMARK    9  A    between atoms: C_10  and  C_11
REMARK   10  A    between atoms: C_11  and  C_12
REMARK   11  A    between atoms: C_12  and  C_13
REMARK   12  A    between atoms: C_13  and  C_14
REMARK   13  A    between atoms: C_14  and  C_15
REMARK   14  A    between atoms: C_15  and  C_16
REMARK   15  A    between atoms: C_16  and  N_17
REMARK   16  A    between atoms: N_17  and  C_20
REMARK   17  A    between atoms: C_20  and  C_21
REMARK   18  A    between atoms: C_21  and  N_22
REMARK   19  A    between atoms: N_22  and  C_23
REMARK   20  A    between atoms: C_23  and  C_24
REMARK   21  A    between atoms: C_27  and  O_28
REMARK                            x       y       z     vdW  Elec       q    Type
REMARK                         _______ _______ _______ _____ _____    ______ ____
ROOT
ATOM      1  N   UNL     1       3.987   5.723  -4.284  0.00  0.00    +0.307 N 
ATOM      2  C   UNL     1       4.949   4.697  -3.904  0.00  0.00    +0.171 C 
ATOM      3  C   UNL     1       4.618   7.028  -4.274  0.00  0.00    +0.171 C 
ENDROOT
BRANCH   1   4
ATOM      4  C   UNL     1       3.472   5.374  -5.591  0.00  0.00    +0.109 C 
BRANCH   4   5
ATOM      5  C   UNL     1       4.527   5.816  -6.597  0.00  0.00    +0.061 C 
BRANCH   5   6
ATOM      6  C   UNL     1       3.917   5.834  -7.990  0.00  0.00    +0.006 C 
BRANCH   6   7
ATOM      7  C   UNL     1       3.892   4.401  -8.502  0.00  0.00    +0.000 C 
BRANCH   7   8
ATOM      8  C   UNL     1       2.482   4.013  -8.885  0.00  0.00    +0.000 C 
BRANCH   8   9
ATOM      9  C   UNL     1       1.676   5.216  -9.316  0.00  0.00    +0.000 C 
BRANCH   9  10
ATOM     10  C   UNL     1       0.632   4.755 -10.326  0.00  0.00    +0.000 C 
BRANCH  10  11
ATOM     11  C   UNL     1       0.985   5.239 -11.717  0.00  0.00    +0.000 C 
BRANCH  11  12
ATOM     12  C   UNL     1       2.178   6.182 -11.648  0.00  0.00    +0.000 C 
BRANCH  12  13
ATOM     13  C   UNL     1       3.227   5.815 -12.669  0.00  0.00    +0.000 C 
BRANCH  13  14
ATOM     14  C   UNL     1       4.536   5.598 -11.949  0.00  0.00    +0.000 C 
BRANCH  14  15
ATOM     15  C   UNL     1       4.927   6.896 -11.251  0.00  0.00    +0.000 C 
BRANCH  15  16
ATOM     16  C   UNL     1       6.404   7.205 -11.463  0.00  0.00    +0.000 C 
BRANCH  16  17
ATOM     17  C   UNL     1       7.208   6.599 -10.320  0.00  0.00    +0.000 C 
BRANCH  17  19
ATOM     18  C   UNL     1       8.399   5.982 -12.356  0.00  0.00    +0.000 C 
ATOM     19  C   UNL     1       8.070   5.512 -10.948  0.00  0.00    +0.000 C 
ENDBRANCH  17  19
ENDBRANCH  16  17
ENDBRANCH  15  16
ENDBRANCH  14  15
ENDBRANCH  13  14
ENDBRANCH  12  13
ENDBRANCH  11  12
ENDBRANCH  10  11
ENDBRANCH   9  10
ENDBRANCH   8   9
ENDBRANCH   7   8
ENDBRANCH   6   7
ENDBRANCH   5   6
ENDBRANCH   4   5
ENDBRANCH   1   4
BRANCH   1  20
ATOM     20  C   UNL     1       2.912   5.662  -3.305  0.00  0.00    +0.131 C 
BRANCH  20  21
ATOM     21  C   UNL     1       1.759   6.517  -3.781  0.00  0.00    +0.155 C 
BRANCH  21  22
ATOM     22  N   UNL     1       0.473   5.987  -3.337  0.00  0.00    -0.268 N 
ATOM     23  C   UNL     1      -0.470   5.615  -4.348  0.00  0.00    +0.221 A 
ATOM     24  N   UNL     1      -1.719   6.101  -4.259  0.00  0.00    -0.212 NA
ATOM     25  C   UNL     1      -2.506   6.189  -5.359  0.00  0.00    +0.103 A 
ATOM     26  C   UNL     1      -2.150   5.563  -6.547  0.00  0.00    +0.041 A 
ATOM     27  C   UNL     1      -0.829   5.152  -6.645  0.00  0.00    +0.103 A 
ATOM     28  N   UNL     1      -0.020   5.246  -5.571  0.00  0.00    -0.212 NA
BRANCH  22  29
ATOM     29  C   UNL     1       0.418   5.495  -1.983  0.00  0.00    +0.121 C 
BRANCH  29  30
ATOM     30  C   UNL     1      -0.002   6.538  -1.010  0.00  0.00    -0.002 A 
ATOM     31  C   UNL     1       0.849   7.033  -0.030  0.00  0.00    +0.001 A 
ATOM     32  C   UNL     1       0.368   7.270   1.250  0.00  0.00    +0.037 A 
ATOM     33  C   UNL     1      -0.977   7.118   1.567  0.00  0.00    +0.139 A 
ATOM     34  C   UNL     1      -1.835   7.073   0.474  0.00  0.00    +0.037 A 
ATOM     35  C   UNL     1      -1.357   6.757  -0.791  0.00  0.00    +0.001 A 
BRANCH  33  36
ATOM     36  O   UNL     1      -1.382   6.612   2.805  0.00  0.00    -0.471 OA
ATOM     37  C   UNL     1      -2.780   6.439   2.982  0.00  0.00    +0.252 C 
ENDBRANCH  33  36
ENDBRANCH  29  30
ENDBRANCH  22  29
ENDBRANCH  21  22
ENDBRANCH  20  21
ENDBRANCH   1  20
TORSDOF 21
ENDMDL
MODEL 9
REMARK VINA RESULT:      -6.7      2.137      5.208
REMARK  Name = 
REMARK  21 active torsions:
REMARK  status: ('A' for Active; 'I' for Inactive)
REMARK    1  A    between atoms: C_2  and  C_3
REMARK    2  A    between atoms: C_3  and  C_4
REMARK    3  A    between atoms: C_4  and  C_5
REMARK    4  A    between atoms: C_5  and  C_6
REMARK    5  A    between atoms: C_6  and  C_7
REMARK    6  A    between atoms: C_7  and  C_8
REMARK    7  A    between atoms: C_8  and  C_9
REMARK    8  A    between atoms: C_9  and  C_10
REMARK    9  A    between atoms: C_10  and  C_11
REMARK   10  A    between atoms: C_11  and  C_12
REMARK   11  A    between atoms: C_12  and  C_13
REMARK   12  A    between atoms: C_13  and  C_14
REMARK   13  A    between atoms: C_14  and  C_15
REMARK   14  A    between atoms: C_15  and  C_16
REMARK   15  A    between atoms: C_16  and  N_17
REMARK   16  A    between atoms: N_17  and  C_20
REMARK   17  A    between atoms: C_20  and  C_21
REMARK   18  A    between atoms: C_21  and  N_22
REMARK   19  A    between atoms: N_22  and  C_23
REMARK   20  A    between atoms: C_23  and  C_24
REMARK   21  A    between atoms: C_27  and  O_28
REMARK                            x       y       z     vdW  Elec       q    Type
REMARK                         _______ _______ _______ _____ _____    ______ ____
ROOT
ATOM      1  N   UNL     1       3.856   5.459  -5.836  0.00  0.00    +0.307 N 
ATOM      2  C   UNL     1       3.483   6.843  -5.574  0.00  0.00    +0.171 C 
ATOM      3  C   UNL     1       4.705   4.960  -4.773  0.00  0.00    +0.171 C 
ENDROOT
BRANCH   1   4
ATOM      4  C   UNL     1       2.633   4.696  -5.964  0.00  0.00    +0.109 C 
BRANCH   4   5
ATOM      5  C   UNL     1       1.675   5.247  -4.916  0.00  0.00    +0.061 C 
BRANCH   5   6
ATOM      6  C   UNL     1       0.243   5.037  -5.383  0.00  0.00    +0.006 C 
BRANCH   6   7
ATOM      7  C   UNL     1      -0.242   6.345  -5.991  0.00  0.00    +0.000 C 
BRANCH   7   8
ATOM      8  C   UNL     1      -0.794   7.245  -4.910  0.00  0.00    +0.000 C 
BRANCH   8   9
ATOM      9  C   UNL     1      -2.304   7.290  -4.947  0.00  0.00    +0.000 C 
BRANCH   9  10
ATOM     10  C   UNL     1      -2.826   7.005  -3.544  0.00  0.00    +0.000 C 
BRANCH  10  11
ATOM     11  C   UNL     1      -2.674   5.537  -3.205  0.00  0.00    +0.000 C 
BRANCH  11  12
ATOM     12  C   UNL     1      -2.135   5.388  -1.789  0.00  0.00    +0.000 C 
BRANCH  12  13
ATOM     13  C   UNL     1      -0.626   5.347  -1.779  0.00  0.00    +0.000 C 
BRANCH  13  14
ATOM     14  C   UNL     1      -0.132   6.288  -0.708  0.00  0.00    +0.000 C 
BRANCH  14  15
ATOM     15  C   UNL     1      -1.335   6.825   0.060  0.00  0.00    +0.000 C 
BRANCH  15  16
ATOM     16  C   UNL     1      -1.278   8.344   0.169  0.00  0.00    +0.000 C 
BRANCH  16  17
ATOM     17  C   UNL     1      -2.087   8.786   1.382  0.00  0.00    +0.000 C 
BRANCH  17  19
ATOM     18  C   UNL     1      -2.132  10.473   3.142  0.00  0.00    +0.000 C 
ATOM     19  C   UNL     1      -1.241   9.838   2.086  0.00  0.00    +0.000 C 
ENDBRANCH  17  19
ENDBRANCH  16  17
ENDBRANCH  15  16
ENDBRANCH  14  15
ENDBRANCH  13  14
ENDBRANCH  12  13
ENDBRANCH  11  12
ENDBRANCH  10  11
ENDBRANCH   9  10
ENDBRANCH   8   9
ENDBRANCH   7   8
ENDBRANCH   6   7
ENDBRANCH   5   6
ENDBRANCH   4   5
ENDBRANCH   1   4
BRANCH   1  20
ATOM     20  C   UNL     1       4.565   5.458  -7.108  0.00  0.00    +0.131 C 
BRANCH  20  21
ATOM     21  C   UNL     1       3.592   5.131  -8.218  0.00  0.00    +0.155 C 
BRANCH  21  22
ATOM     22  N   UNL     1       3.341   6.288  -9.074  0.00  0.00    -0.268 N 
ATOM     23  C   UNL     1       4.101   6.388 -10.283  0.00  0.00    +0.221 A 
ATOM     24  N   UNL     1       4.741   7.542 -10.534  0.00  0.00    -0.212 NA
ATOM     25  C   UNL     1       5.811   7.572 -11.365  0.00  0.00    +0.103 A 
ATOM     26  C   UNL     1       6.127   6.481 -12.166  0.00  0.00    +0.041 A 
ATOM     27  C   UNL     1       5.518   5.282 -11.826  0.00  0.00    +0.103 A 
ATOM     28  N   UNL     1       4.577   5.261 -10.862  0.00  0.00    -0.212 NA
BRANCH  22  29
ATOM     29  C   UNL     1       2.095   6.981  -8.861  0.00  0.00    +0.121 C 
BRANCH  29  30
ATOM     30  C   UNL     1       0.974   6.404  -9.651  0.00  0.00    -0.002 A 
ATOM     31  C   UNL     1       0.602   5.070  -9.557  0.00  0.00    +0.001 A 
ATOM     32  C   UNL     1       0.259   4.363 -10.702  0.00  0.00    +0.037 A 
ATOM     33  C   UNL     1       0.182   4.978 -11.945  0.00  0.00    +0.139 A 
ATOM     34  C   UNL     1       0.113   6.366 -11.910  0.00  0.00    +0.037 A 
ATOM     35  C   UNL     1       0.533   7.069 -10.789  0.00  0.00    +0.001 A 
BRANCH  33  36
ATOM     36  O   UNL     1       0.586   4.320 -13.111  0.00  0.00    -0.471 OA
ATOM     37  C   UNL     1       1.528   5.006 -13.922  0.00  0.00    +0.252 C 
ENDBRANCH  33  36
ENDBRANCH  29  30
ENDBRANCH  22  29
ENDBRANCH  21  22
ENDBRANCH  20  21
ENDBRANCH   1  20
TORSDOF 21
ENDMDL
