MODEL 1
REMARK VINA RESULT:      -5.0      0.000      0.000
REMARK  Name = 
REMARK  0 active torsions:
REMARK  status: ('A' for Active; 'I' for Inactive)
REMARK                            x       y       z     vdW  Elec       q    Type
REMARK                         _______ _______ _______ _____ _____    ______ ____
ROOT
ATOM      1  O   UNL     1       6.494   8.678 -11.554  0.00  0.00    -0.265 OA
ATOM      2  C   UNL     1       6.904   7.530 -11.297  0.00  0.00    +0.285 A 
ATOM      3  C   UNL     1       7.024   6.647 -12.365  0.00  0.00    +0.116 A 
ATOM      4  C   UNL     1       7.765   5.500 -12.096  0.00  0.00    +0.191 A 
ATOM      5  N   UNL     1       7.693   4.778 -13.233  0.00  0.00    -0.128 NA
ATOM      6  N   UNL     1       6.649   5.183 -13.956  0.00  0.00    -0.145 NA
ATOM      7  N   UNL     1       8.038   5.195 -10.804  0.00  0.00    -0.203 NA
ATOM      8  C   UNL     1       7.551   5.899  -9.772  0.00  0.00    +0.203 A 
ATOM      9  C   UNL     1       6.289   6.406 -13.499  0.00  0.00    +0.130 A 
ATOM     10  N   UNL     1       7.080   7.143 -10.018  0.00  0.00    -0.185 NA
ENDROOT
TORSDOF 0
ENDMDL
MODEL 2
REMARK VINA RESULT:      -4.9     10.639     11.823
REMARK  Name = 
REMARK  0 active torsions:
REMARK  status: ('A' for Active; 'I' for Inactive)
REMARK                            x       y       z     vdW  Elec       q    Type
REMARK                         _______ _______ _______ _____ _____    ______ ____
ROOT
ATOM      1  O   UNL     1       0.663   6.883  -4.503  0.00  0.00    -0.265 OA
ATOM      2  C   UNL     1      -0.358   6.305  -4.921  0.00  0.00    +0.285 A 
ATOM      3  C   UNL     1      -1.303   5.924  -3.974  0.00  0.00    +0.116 A 
ATOM      4  C   UNL     1      -2.544   5.570  -4.494  0.00  0.00    +0.191 A 
ATOM      5  N   UNL     1      -3.262   5.183  -3.420  0.00  0.00    -0.128 NA
ATOM      6  N   UNL     1      -2.438   4.871  -2.419  0.00  0.00    -0.145 NA
ATOM      7  N   UNL     1      -2.645   5.338  -5.826  0.00  0.00    -0.203 NA
ATOM      8  C   UNL     1      -1.585   5.346  -6.648  0.00  0.00    +0.203 A 
ATOM      9  C   UNL     1      -1.235   5.426  -2.696  0.00  0.00    +0.130 A 
ATOM     10  N   UNL     1      -0.453   5.950  -6.218  0.00  0.00    -0.185 NA
ENDROOT
TORSDOF 0
ENDMDL
MODEL 3
REMARK VINA RESULT:      -4.9     10.783     11.963
REMARK  Name = 
REMARK  0 active torsions:
REMARK  status: ('A' for Active; 'I' for Inactive)
REMARK                            x       y       z     vdW  Elec       q    Type
REMARK                         _______ _______ _______ _____ _____    ______ ____
ROOT
ATOM      1  O   UNL     1      -2.530   5.699  -6.288  0.00  0.00    -0.265 OA
ATOM      2  C   UNL     1      -1.681   5.912  -5.402  0.00  0.00    +0.285 A 
ATOM      3  C   UNL     1      -1.964   5.436  -4.126  0.00  0.00    +0.116 A 
ATOM      4  C   UNL     1      -0.880   5.416  -3.255  0.00  0.00    +0.191 A 
ATOM      5  N   UNL     1      -1.395   4.988  -2.084  0.00  0.00    -0.128 NA
ATOM      6  N   UNL     1      -2.715   5.176  -2.082  0.00  0.00    -0.145 NA
ATOM      7  N   UNL     1       0.236   6.108  -3.593  0.00  0.00    -0.203 NA
ATOM      8  C   UNL     1       0.308   6.882  -4.686  0.00  0.00    +0.203 A 
ATOM      9  C   UNL     1      -3.104   5.344  -3.367  0.00  0.00    +0.130 A 
ATOM     10  N   UNL     1      -0.612   6.691  -5.661  0.00  0.00    -0.185 NA
ENDROOT
TORSDOF 0
ENDMDL
MODEL 4
REMARK VINA RESULT:      -4.7      1.478      1.509
REMARK  Name = 
REMARK  0 active torsions:
REMARK  status: ('A' for Active; 'I' for Inactive)
REMARK                            x       y       z     vdW  Elec       q    Type
REMARK                         _______ _______ _______ _____ _____    ______ ____
ROOT
ATOM      1  O   UNL     1       4.377   6.866 -11.192  0.00  0.00    -0.265 OA
ATOM      2  C   UNL     1       5.434   6.328 -10.811  0.00  0.00    +0.285 A 
ATOM      3  C   UNL     1       6.334   5.934 -11.795  0.00  0.00    +0.116 A 
ATOM      4  C   UNL     1       7.611   5.630 -11.333  0.00  0.00    +0.191 A 
ATOM      5  N   UNL     1       8.278   5.219 -12.432  0.00  0.00    -0.128 NA
ATOM      6  N   UNL     1       7.408   4.850 -13.372  0.00  0.00    -0.145 NA
ATOM      7  N   UNL     1       7.791   5.451 -10.002  0.00  0.00    -0.203 NA
ATOM      8  C   UNL     1       6.779   5.465  -9.122  0.00  0.00    +0.203 A 
ATOM      9  C   UNL     1       6.208   5.386 -13.048  0.00  0.00    +0.130 A 
ATOM     10  N   UNL     1       5.610   6.025  -9.509  0.00  0.00    -0.185 NA
ENDROOT
TORSDOF 0
ENDMDL
MODEL 5
REMARK VINA RESULT:      -4.7      2.596      3.110
REMARK  Name = 
REMARK  0 active torsions:
REMARK  status: ('A' for Active; 'I' for Inactive)
REMARK                            x       y       z     vdW  Elec       q    Type
REMARK                         _______ _______ _______ _____ _____    ______ ____
ROOT
ATOM      1  O   UNL     1       7.521   4.707 -12.884  0.00  0.00    -0.265 OA
ATOM      2  C   UNL     1       6.865   5.627 -12.360  0.00  0.00    +0.285 A 
ATOM      3  C   UNL     1       5.479   5.521 -12.404  0.00  0.00    +0.116 A 
ATOM      4  C   UNL     1       4.797   6.387 -11.555  0.00  0.00    +0.191 A 
ATOM      5  N   UNL     1       3.493   6.155 -11.811  0.00  0.00    -0.128 NA
ATOM      6  N   UNL     1       3.369   5.572 -13.004  0.00  0.00    -0.145 NA
ATOM      7  N   UNL     1       5.477   7.423 -11.006  0.00  0.00    -0.203 NA
ATOM      8  C   UNL     1       6.752   7.702 -11.316  0.00  0.00    +0.203 A 
ATOM      9  C   UNL     1       4.580   5.069 -13.339  0.00  0.00    +0.130 A 
ATOM     10  N   UNL     1       7.489   6.731 -11.904  0.00  0.00    -0.185 NA
ENDROOT
TORSDOF 0
ENDMDL
MODEL 6
REMARK VINA RESULT:      -4.7      1.964      2.508
REMARK  Name = 
REMARK  0 active torsions:
REMARK  status: ('A' for Active; 'I' for Inactive)
REMARK                            x       y       z     vdW  Elec       q    Type
REMARK                         _______ _______ _______ _____ _____    ______ ____
ROOT
ATOM      1  O   UNL     1       7.382   5.597  -9.314  0.00  0.00    -0.265 OA
ATOM      2  C   UNL     1       6.542   5.852 -10.198  0.00  0.00    +0.285 A 
ATOM      3  C   UNL     1       6.798   5.361 -11.474  0.00  0.00    +0.116 A 
ATOM      4  C   UNL     1       5.712   5.395 -12.343  0.00  0.00    +0.191 A 
ATOM      5  N   UNL     1       6.203   4.939 -13.514  0.00  0.00    -0.128 NA
ATOM      6  N   UNL     1       7.530   5.059 -13.520  0.00  0.00    -0.145 NA
ATOM      7  N   UNL     1       4.634   6.144 -12.003  0.00  0.00    -0.203 NA
ATOM      8  C   UNL     1       4.605   6.923 -10.911  0.00  0.00    +0.203 A 
ATOM      9  C   UNL     1       7.930   5.209 -12.236  0.00  0.00    +0.130 A 
ATOM     10  N   UNL     1       5.515   6.686  -9.938  0.00  0.00    -0.185 NA
ENDROOT
TORSDOF 0
ENDMDL
MODEL 7
REMARK VINA RESULT:      -4.7      1.915      3.595
REMARK  Name = 
REMARK  0 active torsions:
REMARK  status: ('A' for Active; 'I' for Inactive)
REMARK                            x       y       z     vdW  Elec       q    Type
REMARK                         _______ _______ _______ _____ _____    ______ ____
ROOT
ATOM      1  O   UNL     1       9.369   5.659 -12.056  0.00  0.00    -0.265 OA
ATOM      2  C   UNL     1       8.130   5.551 -12.134  0.00  0.00    +0.285 A 
ATOM      3  C   UNL     1       7.401   5.764 -10.970  0.00  0.00    +0.116 A 
ATOM      4  C   UNL     1       6.034   5.940 -11.158  0.00  0.00    +0.191 A 
ATOM      5  N   UNL     1       5.534   6.063  -9.911  0.00  0.00    -0.128 NA
ATOM      6  N   UNL     1       6.394   5.549  -9.032  0.00  0.00    -0.145 NA
ATOM      7  N   UNL     1       5.497   5.605 -12.357  0.00  0.00    -0.203 NA
ATOM      8  C   UNL     1       6.209   5.027 -13.336  0.00  0.00    +0.203 A 
ATOM      9  C   UNL     1       7.598   5.462  -9.644  0.00  0.00    +0.130 A 
ATOM     10  N   UNL     1       7.559   5.109 -13.273  0.00  0.00    -0.185 NA
ENDROOT
TORSDOF 0
ENDMDL
MODEL 8
REMARK VINA RESULT:      -4.7     11.219     12.305
REMARK  Name = 
REMARK  0 active torsions:
REMARK  status: ('A' for Active; 'I' for Inactive)
REMARK                            x       y       z     vdW  Elec       q    Type
REMARK                         _______ _______ _______ _____ _____    ______ ____
ROOT
ATOM      1  O   UNL     1      -1.003   7.717  -4.811  0.00  0.00    -0.265 OA
ATOM      2  C   UNL     1      -1.440   6.783  -4.111  0.00  0.00    +0.285 A 
ATOM      3  C   UNL     1      -0.575   6.238  -3.170  0.00  0.00    +0.116 A 
ATOM      4  C   UNL     1      -1.182   5.428  -2.215  0.00  0.00    +0.191 A 
ATOM      5  N   UNL     1      -0.161   4.969  -1.463  0.00  0.00    -0.128 NA
ATOM      6  N   UNL     1       0.981   5.081  -2.142  0.00  0.00    -0.145 NA
ATOM      7  N   UNL     1      -2.450   5.004  -2.439  0.00  0.00    -0.203 NA
ATOM      8  C   UNL     1      -3.110   5.255  -3.579  0.00  0.00    +0.203 A 
ATOM      9  C   UNL     1       0.771   5.962  -3.148  0.00  0.00    +0.130 A 
ATOM     10  N   UNL     1      -2.651   6.251  -4.372  0.00  0.00    -0.185 NA
ENDROOT
TORSDOF 0
ENDMDL
MODEL 9
REMARK VINA RESULT:      -4.7      1.932      2.855
REMARK  Name = 
REMARK  0 active torsions:
REMARK  status: ('A' for Active; 'I' for Inactive)
REMARK                            x       y       z     vdW  Elec       q    Type
REMARK                         _______ _______ _______ _____ _____    ______ ____
ROOT
ATOM      1  O   UNL     1       5.087   6.444  -9.965  0.00  0.00    -0.265 OA
ATOM      2  C   UNL     1       5.275   6.063 -11.135  0.00  0.00    +0.285 A 
ATOM      3  C   UNL     1       6.579   5.743 -11.496  0.00  0.00    +0.116 A 
ATOM      4  C   UNL     1       6.702   5.038 -12.689  0.00  0.00    +0.191 A 
ATOM      5  N   UNL     1       8.032   4.899 -12.865  0.00  0.00    -0.128 NA
ATOM      6  N   UNL     1       8.677   5.812 -12.137  0.00  0.00    -0.145 NA
ATOM      7  N   UNL     1       5.633   4.986 -13.522  0.00  0.00    -0.203 NA
ATOM      8  C   UNL     1       4.496   5.657 -13.289  0.00  0.00    +0.203 A 
ATOM      9  C   UNL     1       7.814   6.268 -11.199  0.00  0.00    +0.130 A 
ATOM     10  N   UNL     1       4.268   6.102 -12.031  0.00  0.00    -0.185 NA
ENDROOT
TORSDOF 0
ENDMDL
