MODEL 1
REMARK VINA RESULT:      -2.7      0.000      0.000
REMARK  Name = 
REMARK  0 active torsions:
REMARK  status: ('A' for Active; 'I' for Inactive)
REMARK                            x       y       z     vdW  Elec       q    Type
REMARK                         _______ _______ _______ _____ _____    ______ ____
ROOT
ATOM      1  O   UNL     1       9.380   5.989 -12.369  0.00  0.00    -0.197 OA
ATOM      2  C   UNL     1       8.294   5.486 -11.971  0.00  0.00    +0.592 C 
ATOM      3  O   UNL     1       7.672   4.588 -12.831  0.00  0.00    -0.197 OA
ATOM      4  O   UNL     1       7.991   5.368 -10.612  0.00  0.00    -0.197 OA
ENDROOT
TORSDOF 0
ENDMDL
MODEL 2
REMARK VINA RESULT:      -2.7      0.098      1.995
REMARK  Name = 
REMARK  0 active torsions:
REMARK  status: ('A' for Active; 'I' for Inactive)
REMARK                            x       y       z     vdW  Elec       q    Type
REMARK                         _______ _______ _______ _____ _____    ______ ____
ROOT
ATOM      1  O   UNL     1       7.684   4.585 -12.786  0.00  0.00    -0.197 OA
ATOM      2  C   UNL     1       8.246   5.425 -12.031  0.00  0.00    +0.592 C 
ATOM      3  O   UNL     1       7.899   5.382 -10.685  0.00  0.00    -0.197 OA
ATOM      4  O   UNL     1       9.489   5.980 -12.342  0.00  0.00    -0.197 OA
ENDROOT
TORSDOF 0
ENDMDL
MODEL 3
REMARK VINA RESULT:      -2.7      0.108      2.026
REMARK  Name = 
REMARK  0 active torsions:
REMARK  status: ('A' for Active; 'I' for Inactive)
REMARK                            x       y       z     vdW  Elec       q    Type
REMARK                         _______ _______ _______ _____ _____    ______ ____
ROOT
ATOM      1  O   UNL     1       8.025   5.341 -10.743  0.00  0.00    -0.197 OA
ATOM      2  C   UNL     1       8.265   5.437 -11.979  0.00  0.00    +0.592 C 
ATOM      3  O   UNL     1       9.499   5.972 -12.332  0.00  0.00    -0.197 OA
ATOM      4  O   UNL     1       7.648   4.606 -12.916  0.00  0.00    -0.197 OA
ENDROOT
TORSDOF 0
ENDMDL
MODEL 4
REMARK VINA RESULT:      -2.4      1.704      2.647
REMARK  Name = 
REMARK  0 active torsions:
REMARK  status: ('A' for Active; 'I' for Inactive)
REMARK                            x       y       z     vdW  Elec       q    Type
REMARK                         _______ _______ _______ _____ _____    ______ ____
ROOT
ATOM      1  O   UNL     1       6.298   5.660 -11.438  0.00  0.00    -0.197 OA
ATOM      2  C   UNL     1       6.614   5.229 -12.581  0.00  0.00    +0.592 C 
ATOM      3  O   UNL     1       7.854   4.612 -12.691  0.00  0.00    -0.197 OA
ATOM      4  O   UNL     1       5.649   4.878 -13.528  0.00  0.00    -0.197 OA
ENDROOT
TORSDOF 0
ENDMDL
MODEL 5
REMARK VINA RESULT:      -2.4      1.800      2.266
REMARK  Name = 
REMARK  0 active torsions:
REMARK  status: ('A' for Active; 'I' for Inactive)
REMARK                            x       y       z     vdW  Elec       q    Type
REMARK                         _______ _______ _______ _____ _____    ______ ____
ROOT
ATOM      1  O   UNL     1       6.615   6.479 -12.145  0.00  0.00    -0.197 OA
ATOM      2  C   UNL     1       6.650   5.285 -12.553  0.00  0.00    +0.592 C 
ATOM      3  O   UNL     1       5.603   4.875 -13.370  0.00  0.00    -0.197 OA
ATOM      4  O   UNL     1       7.852   4.582 -12.670  0.00  0.00    -0.197 OA
ENDROOT
TORSDOF 0
ENDMDL
MODEL 6
REMARK VINA RESULT:      -2.4     14.169     14.614
REMARK  Name = 
REMARK  0 active torsions:
REMARK  status: ('A' for Active; 'I' for Inactive)
REMARK                            x       y       z     vdW  Elec       q    Type
REMARK                         _______ _______ _______ _____ _____    ______ ____
ROOT
ATOM      1  O   UNL     1      -2.883   4.664  -2.710  0.00  0.00    -0.197 OA
ATOM      2  C   UNL     1      -2.168   5.527  -2.129  0.00  0.00    +0.592 C 
ATOM      3  O   UNL     1      -2.811   6.686  -1.709  0.00  0.00    -0.197 OA
ATOM      4  O   UNL     1      -0.994   5.180  -1.457  0.00  0.00    -0.197 OA
ENDROOT
TORSDOF 0
ENDMDL
MODEL 7
REMARK VINA RESULT:      -2.4     13.460     13.792
REMARK  Name = 
REMARK  0 active torsions:
REMARK  status: ('A' for Active; 'I' for Inactive)
REMARK                            x       y       z     vdW  Elec       q    Type
REMARK                         _______ _______ _______ _____ _____    ______ ____
ROOT
ATOM      1  O   UNL     1      -1.527   6.612  -3.037  0.00  0.00    -0.197 OA
ATOM      2  C   UNL     1      -1.604   5.400  -2.691  0.00  0.00    +0.592 C 
ATOM      3  O   UNL     1      -0.637   4.945  -1.802  0.00  0.00    -0.197 OA
ATOM      4  O   UNL     1      -2.814   4.703  -2.718  0.00  0.00    -0.197 OA
ENDROOT
TORSDOF 0
ENDMDL
MODEL 8
REMARK VINA RESULT:      -2.3     20.405     21.234
REMARK  Name = 
REMARK  0 active torsions:
REMARK  status: ('A' for Active; 'I' for Inactive)
REMARK                            x       y       z     vdW  Elec       q    Type
REMARK                         _______ _______ _______ _____ _____    ______ ____
ROOT
ATOM      1  O   UNL     1      -4.157  -3.665   2.526  0.00  0.00    -0.197 OA
ATOM      2  C   UNL     1      -4.565  -2.547   2.945  0.00  0.00    +0.592 C 
ATOM      3  O   UNL     1      -3.938  -1.421   2.425  0.00  0.00    -0.197 OA
ATOM      4  O   UNL     1      -5.861  -2.374   3.438  0.00  0.00    -0.197 OA
ENDROOT
TORSDOF 0
ENDMDL
MODEL 9
REMARK VINA RESULT:      -2.3     13.680     14.251
REMARK  Name = 
REMARK  0 active torsions:
REMARK  status: ('A' for Active; 'I' for Inactive)
REMARK                            x       y       z     vdW  Elec       q    Type
REMARK                         _______ _______ _______ _____ _____    ______ ____
ROOT
ATOM      1  O   UNL     1      10.951   3.030   1.017  0.00  0.00    -0.197 OA
ATOM      2  C   UNL     1      11.499   3.815   1.840  0.00  0.00    +0.592 C 
ATOM      3  O   UNL     1      12.567   4.567   1.365  0.00  0.00    -0.197 OA
ATOM      4  O   UNL     1      10.808   4.328   2.940  0.00  0.00    -0.197 OA
ENDROOT
TORSDOF 0
ENDMDL
