MODEL 1
REMARK VINA RESULT:      -8.9      0.000      0.000
REMARK  Name = 
REMARK  2 active torsions:
REMARK  status: ('A' for Active; 'I' for Inactive)
REMARK    1  A    between atoms: N_2  and  C_3
REMARK    2  A    between atoms: C_3  and  C_4
REMARK                            x       y       z     vdW  Elec       q    Type
REMARK                         _______ _______ _______ _____ _____    ______ ____
ROOT
ATOM      1  C   UNL     1       3.329   5.380 -10.499  0.00  0.00    +0.170 C 
ATOM      2  N   UNL     1       2.475   6.064  -9.706  0.00  0.00    +0.299 N 
ATOM      3  C   UNL     1       1.832   4.871  -8.904  0.00  0.00    +0.092 C 
ATOM      4  C   UNL     1       2.421   5.249  -7.419  0.00  0.00    +0.178 C 
ATOM      5  C   UNL     1       1.904   6.487  -6.979  0.00  0.00    +0.102 C 
ATOM      6  C   UNL     1       2.581   6.766  -5.507  0.00  0.00    +0.229 C 
ATOM      7  O   UNL     1       1.330   7.540  -4.991  0.00  0.00    -0.468 OA
ATOM      8  C   UNL     1       0.281   6.690  -5.324  0.00  0.00    +0.173 A 
ATOM      9  C   UNL     1      -1.073   6.571  -5.029  0.00  0.00    +0.229 A 
ATOM     10  C   UNL     1      -1.849   5.666  -5.755  0.00  0.00    +0.045 A 
ATOM     11  C   UNL     1      -1.377   5.108  -6.947  0.00  0.00    -0.001 A 
ATOM     12  C   UNL     1      -0.099   5.419  -7.378  0.00  0.00    -0.017 A 
ATOM     13  O   UNL     1      -1.365   6.786  -3.677  0.00  0.00    -0.283 OA
ATOM     14  C   UNL     1       2.095   5.375  -4.812  0.00  0.00    +0.191 C 
ATOM     15  O   UNL     1       2.191   5.547  -3.596  0.00  0.00    -0.292 OA
ATOM     16  C   UNL     1       2.759   4.155  -5.345  0.00  0.00    +0.071 C 
ATOM     17  C   UNL     1       0.519   6.415  -6.633  0.00  0.00    +0.017 A 
ATOM     18  C   UNL     1       2.302   7.634  -7.828  0.00  0.00    +0.072 C 
ATOM     19  C   UNL     1       2.009   3.986  -6.666  0.00  0.00    +0.044 C 
ATOM     20  O   UNL     1       3.794   5.054  -7.512  0.00  0.00    -0.219 OA
ATOM     21  C   UNL     1       0.355   5.589  -8.769  0.00  0.00    +0.084 C 
ATOM     22  C   UNL     1       3.128   6.968  -8.917  0.00  0.00    +0.109 C 
ENDROOT
BRANCH   2  23
ATOM     23  C   UNL     1       1.454   6.533 -10.612  0.00  0.00    +0.108 C 
BRANCH  23  24
ATOM     24  C   UNL     1       1.798   6.117 -11.980  0.00  0.00    +0.055 C 
ATOM     25  C   UNL     1       1.246   6.658 -13.221  0.00  0.00    +0.006 C 
ATOM     26  C   UNL     1       0.665   5.395 -12.759  0.00  0.00    +0.006 C 
ENDBRANCH  23  24
ENDBRANCH   2  23
TORSDOF 2
ENDMDL
MODEL 2
REMARK VINA RESULT:      -8.4      2.533      6.294
REMARK  Name = 
REMARK  2 active torsions:
REMARK  status: ('A' for Active; 'I' for Inactive)
REMARK    1  A    between atoms: N_2  and  C_3
REMARK    2  A    between atoms: C_3  and  C_4
REMARK                            x       y       z     vdW  Elec       q    Type
REMARK                         _______ _______ _______ _____ _____    ______ ____
ROOT
ATOM      1  C   UNL     1       1.885   5.456  -4.279  0.00  0.00    +0.170 C 
ATOM      2  N   UNL     1       2.540   6.132  -5.248  0.00  0.00    +0.299 N 
ATOM      3  C   UNL     1       3.092   4.927  -6.097  0.00  0.00    +0.092 C 
ATOM      4  C   UNL     1       2.222   5.193  -7.464  0.00  0.00    +0.178 C 
ATOM      5  C   UNL     1       2.579   6.426  -8.050  0.00  0.00    +0.102 C 
ATOM      6  C   UNL     1       1.631   6.589  -9.383  0.00  0.00    +0.229 C 
ATOM      7  O   UNL     1       2.721   7.390 -10.158  0.00  0.00    -0.468 OA
ATOM      8  C   UNL     1       3.859   6.610  -9.985  0.00  0.00    +0.173 A 
ATOM      9  C   UNL     1       5.141   6.538 -10.520  0.00  0.00    +0.229 A 
ATOM     10  C   UNL     1       6.086   5.712  -9.908  0.00  0.00    +0.045 A 
ATOM     11  C   UNL     1       5.872   5.201  -8.624  0.00  0.00    -0.001 A 
ATOM     12  C   UNL     1       4.678   5.476  -7.979  0.00  0.00    -0.017 A 
ATOM     13  O   UNL     1       5.169   6.688 -11.911  0.00  0.00    -0.283 OA
ATOM     14  C   UNL     1       2.059   5.185 -10.090  0.00  0.00    +0.191 C 
ATOM     15  O   UNL     1       1.734   5.283 -11.273  0.00  0.00    -0.292 OA
ATOM     16  C   UNL     1       1.573   3.967  -9.385  0.00  0.00    +0.071 C 
ATOM     17  C   UNL     1       3.880   6.399  -8.643  0.00  0.00    +0.017 A 
ATOM     18  C   UNL     1       2.279   7.600  -7.198  0.00  0.00    +0.072 C 
ATOM     19  C   UNL     1       2.559   3.909  -8.220  0.00  0.00    +0.044 C 
ATOM     20  O   UNL     1       0.901   4.939  -7.110  0.00  0.00    -0.219 OA
ATOM     21  C   UNL     1       4.477   5.704  -6.537  0.00  0.00    +0.084 C 
ATOM     22  C   UNL     1       1.705   6.959  -5.945  0.00  0.00    +0.109 C 
ENDROOT
BRANCH   2  23
ATOM     23  C   UNL     1       3.681   6.699  -4.570  0.00  0.00    +0.108 C 
BRANCH  23  24
ATOM     24  C   UNL     1       3.295   7.061  -3.198  0.00  0.00    +0.055 C 
ATOM     25  C   UNL     1       3.768   8.213  -2.432  0.00  0.00    +0.006 C 
ATOM     26  C   UNL     1       4.420   6.934  -2.135  0.00  0.00    +0.006 C 
ENDBRANCH  23  24
ENDBRANCH   2  23
TORSDOF 2
ENDMDL
MODEL 3
REMARK VINA RESULT:      -8.1      1.814      3.817
REMARK  Name = 
REMARK  2 active torsions:
REMARK  status: ('A' for Active; 'I' for Inactive)
REMARK    1  A    between atoms: N_2  and  C_3
REMARK    2  A    between atoms: C_3  and  C_4
REMARK                            x       y       z     vdW  Elec       q    Type
REMARK                         _______ _______ _______ _____ _____    ______ ____
ROOT
ATOM      1  C   UNL     1       2.386   6.336 -10.917  0.00  0.00    +0.170 C 
ATOM      2  N   UNL     1       2.938   5.693  -9.865  0.00  0.00    +0.299 N 
ATOM      3  C   UNL     1       2.835   6.820  -8.771  0.00  0.00    +0.092 C 
ATOM      4  C   UNL     1       1.762   6.075  -7.775  0.00  0.00    +0.178 C 
ATOM      5  C   UNL     1       2.321   4.897  -7.234  0.00  0.00    +0.102 C 
ATOM      6  C   UNL     1       1.153   4.234  -6.284  0.00  0.00    +0.229 C 
ATOM      7  O   UNL     1       2.193   3.628  -5.293  0.00  0.00    -0.468 OA
ATOM      8  C   UNL     1       3.030   4.706  -5.025  0.00  0.00    +0.173 A 
ATOM      9  C   UNL     1       4.032   5.021  -4.114  0.00  0.00    +0.229 A 
ATOM     10  C   UNL     1       4.796   6.173  -4.317  0.00  0.00    +0.045 A 
ATOM     11  C   UNL     1       4.781   6.839  -5.546  0.00  0.00    -0.001 A 
ATOM     12  C   UNL     1       3.952   6.377  -6.554  0.00  0.00    -0.017 A 
ATOM     13  O   UNL     1       3.735   4.624  -2.805  0.00  0.00    -0.283 OA
ATOM     14  C   UNL     1       0.913   5.542  -5.343  0.00  0.00    +0.191 C 
ATOM     15  O   UNL     1       0.332   5.138  -4.336  0.00  0.00    -0.292 OA
ATOM     16  C   UNL     1       0.273   6.692  -6.039  0.00  0.00    +0.071 C 
ATOM     17  C   UNL     1       3.339   5.164  -6.266  0.00  0.00    +0.017 A 
ATOM     18  C   UNL     1       2.644   3.868  -8.250  0.00  0.00    +0.072 C 
ATOM     19  C   UNL     1       1.464   7.235  -6.828  0.00  0.00    +0.044 C 
ATOM     20  O   UNL     1       0.574   6.023  -8.495  0.00  0.00    -0.219 OA
ATOM     21  C   UNL     1       4.224   6.379  -8.002  0.00  0.00    +0.084 C 
ATOM     22  C   UNL     1       2.252   4.554  -9.549  0.00  0.00    +0.109 C 
ENDROOT
BRANCH   2  23
ATOM     23  C   UNL     1       4.337   5.596 -10.208  0.00  0.00    +0.108 C 
BRANCH  23  24
ATOM     24  C   UNL     1       4.622   6.507 -11.326  0.00  0.00    +0.055 C 
ATOM     25  C   UNL     1       5.791   6.474 -12.203  0.00  0.00    +0.006 C 
ATOM     26  C   UNL     1       5.832   7.458 -11.117  0.00  0.00    +0.006 C 
ENDBRANCH  23  24
ENDBRANCH   2  23
TORSDOF 2
ENDMDL
MODEL 4
REMARK VINA RESULT:      -7.5      1.987      4.013
REMARK  Name = 
REMARK  2 active torsions:
REMARK  status: ('A' for Active; 'I' for Inactive)
REMARK    1  A    between atoms: N_2  and  C_3
REMARK    2  A    between atoms: C_3  and  C_4
REMARK                            x       y       z     vdW  Elec       q    Type
REMARK                         _______ _______ _______ _____ _____    ______ ____
ROOT
ATOM      1  C   UNL     1       2.739   5.299  -9.764  0.00  0.00    +0.170 C 
ATOM      2  N   UNL     1       3.120   5.045  -8.494  0.00  0.00    +0.299 N 
ATOM      3  C   UNL     1       2.949   6.478  -7.865  0.00  0.00    +0.092 C 
ATOM      4  C   UNL     1       1.721   6.131  -6.832  0.00  0.00    +0.178 C 
ATOM      5  C   UNL     1       2.139   5.201  -5.856  0.00  0.00    +0.102 C 
ATOM      6  C   UNL     1       0.828   4.915  -4.906  0.00  0.00    +0.229 C 
ATOM      7  O   UNL     1       1.701   4.669  -3.638  0.00  0.00    -0.468 OA
ATOM      8  C   UNL     1       2.560   5.763  -3.638  0.00  0.00    +0.173 A 
ATOM      9  C   UNL     1       3.460   6.356  -2.758  0.00  0.00    +0.229 A 
ATOM     10  C   UNL     1       4.308   7.359  -3.231  0.00  0.00    +0.045 A 
ATOM     11  C   UNL     1       4.483   7.568  -4.602  0.00  0.00    -0.001 A 
ATOM     12  C   UNL     1       3.758   6.801  -5.499  0.00  0.00    -0.017 A 
ATOM     13  O   UNL     1       2.982   6.432  -1.445  0.00  0.00    -0.283 OA
ATOM     14  C   UNL     1       0.550   6.468  -4.500  0.00  0.00    +0.191 C 
ATOM     15  O   UNL     1      -0.172   6.439  -3.504  0.00  0.00    -0.292 OA
ATOM     16  C   UNL     1       0.069   7.322  -5.621  0.00  0.00    +0.071 C 
ATOM     17  C   UNL     1       3.045   5.767  -4.906  0.00  0.00    +0.017 A 
ATOM     18  C   UNL     1       2.524   3.883  -6.415  0.00  0.00    +0.072 C 
ATOM     19  C   UNL     1       1.377   7.548  -6.379  0.00  0.00    +0.044 C 
ATOM     20  O   UNL     1       0.628   5.852  -7.646  0.00  0.00    -0.219 OA
ATOM     21  C   UNL     1       4.205   6.308  -6.813  0.00  0.00    +0.084 C 
ATOM     22  C   UNL     1       2.335   4.091  -7.909  0.00  0.00    +0.109 C 
ENDROOT
BRANCH   2  23
ATOM     23  C   UNL     1       4.542   4.819  -8.592  0.00  0.00    +0.108 C 
BRANCH  23  24
ATOM     24  C   UNL     1       5.114   5.769  -9.556  0.00  0.00    +0.055 C 
ATOM     25  C   UNL     1       5.943   5.445 -10.716  0.00  0.00    +0.006 C 
ATOM     26  C   UNL     1       6.661   5.901  -9.522  0.00  0.00    +0.006 C 
ENDBRANCH  23  24
ENDBRANCH   2  23
TORSDOF 2
ENDMDL
MODEL 5
REMARK VINA RESULT:      -7.5      3.501      4.915
REMARK  Name = 
REMARK  2 active torsions:
REMARK  status: ('A' for Active; 'I' for Inactive)
REMARK    1  A    between atoms: N_2  and  C_3
REMARK    2  A    between atoms: C_3  and  C_4
REMARK                            x       y       z     vdW  Elec       q    Type
REMARK                         _______ _______ _______ _____ _____    ______ ____
ROOT
ATOM      1  C   UNL     1       4.114   5.550  -6.262  0.00  0.00    +0.170 C 
ATOM      2  N   UNL     1       3.499   6.315  -5.335  0.00  0.00    +0.299 N 
ATOM      3  C   UNL     1       3.031   5.198  -4.328  0.00  0.00    +0.092 C 
ATOM      4  C   UNL     1       3.972   5.630  -3.053  0.00  0.00    +0.178 C 
ATOM      5  C   UNL     1       3.617   6.912  -2.583  0.00  0.00    +0.102 C 
ATOM      6  C   UNL     1       4.637   7.239  -1.336  0.00  0.00    +0.229 C 
ATOM      7  O   UNL     1       3.573   8.098  -0.586  0.00  0.00    -0.468 OA
ATOM      8  C   UNL     1       2.448   7.280  -0.605  0.00  0.00    +0.173 A 
ATOM      9  C   UNL     1       1.202   7.241   0.013  0.00  0.00    +0.229 A 
ATOM     10  C   UNL     1       0.245   6.335  -0.448  0.00  0.00    +0.045 A 
ATOM     11  C   UNL     1       0.397   5.691  -1.680  0.00  0.00    -0.001 A 
ATOM     12  C   UNL     1       1.544   5.918  -2.423  0.00  0.00    -0.017 A 
ATOM     13  O   UNL     1       1.252   7.542   1.378  0.00  0.00    -0.283 OA
ATOM     14  C   UNL     1       4.289   5.912  -0.457  0.00  0.00    +0.191 C 
ATOM     15  O   UNL     1       4.680   6.146   0.687  0.00  0.00    -0.292 OA
ATOM     16  C   UNL     1       4.765   4.635  -1.055  0.00  0.00    +0.071 C 
ATOM     17  C   UNL     1       2.354   6.923  -1.912  0.00  0.00    +0.017 A 
ATOM     18  C   UNL     1       3.835   7.992  -3.574  0.00  0.00    +0.072 C 
ATOM     19  C   UNL     1       3.714   4.430  -2.144  0.00  0.00    +0.044 C 
ATOM     20  O   UNL     1       5.276   5.365  -3.458  0.00  0.00    -0.219 OA
ATOM     21  C   UNL     1       1.654   5.991  -3.890  0.00  0.00    +0.084 C 
ATOM     22  C   UNL     1       4.352   7.230  -4.783  0.00  0.00    +0.109 C 
ENDROOT
BRANCH   2  23
ATOM     23  C   UNL     1       2.305   6.781  -5.999  0.00  0.00    +0.108 C 
BRANCH  23  24
ATOM     24  C   UNL     1       2.355   6.381  -7.412  0.00  0.00    +0.055 C 
ATOM     25  C   UNL     1       1.784   7.106  -8.546  0.00  0.00    +0.006 C 
ATOM     26  C   UNL     1       0.990   5.983  -8.039  0.00  0.00    +0.006 C 
ENDBRANCH  23  24
ENDBRANCH   2  23
TORSDOF 2
ENDMDL
MODEL 6
REMARK VINA RESULT:      -7.3      3.023      5.731
REMARK  Name = 
REMARK  2 active torsions:
REMARK  status: ('A' for Active; 'I' for Inactive)
REMARK    1  A    between atoms: N_2  and  C_3
REMARK    2  A    between atoms: C_3  and  C_4
REMARK                            x       y       z     vdW  Elec       q    Type
REMARK                         _______ _______ _______ _____ _____    ______ ____
ROOT
ATOM      1  C   UNL     1      -2.091   5.403  -5.514  0.00  0.00    +0.170 C 
ATOM      2  N   UNL     1      -1.019   6.110  -5.096  0.00  0.00    +0.299 N 
ATOM      3  C   UNL     1       0.001   4.937  -4.845  0.00  0.00    +0.092 C 
ATOM      4  C   UNL     1       1.081   5.316  -6.023  0.00  0.00    +0.178 C 
ATOM      5  C   UNL     1       1.680   6.567  -5.764  0.00  0.00    +0.102 C 
ATOM      6  C   UNL     1       2.712   6.845  -7.015  0.00  0.00    +0.229 C 
ATOM      7  O   UNL     1       3.705   7.649  -6.120  0.00  0.00    -0.468 OA
ATOM      8  C   UNL     1       3.870   6.817  -5.018  0.00  0.00    +0.173 A 
ATOM      9  C   UNL     1       4.723   6.728  -3.923  0.00  0.00    +0.229 A 
ATOM     10  C   UNL     1       4.418   5.832  -2.896  0.00  0.00    +0.045 A 
ATOM     11  C   UNL     1       3.148   5.254  -2.799  0.00  0.00    -0.001 A 
ATOM     12  C   UNL     1       2.202   5.536  -3.771  0.00  0.00    -0.017 A 
ATOM     13  O   UNL     1       6.065   6.960  -4.246  0.00  0.00    -0.283 OA
ATOM     14  C   UNL     1       3.571   5.471  -6.856  0.00  0.00    +0.191 C 
ATOM     15  O   UNL     1       4.623   5.651  -7.470  0.00  0.00    -0.292 OA
ATOM     16  C   UNL     1       2.823   4.232  -7.207  0.00  0.00    +0.071 C 
ATOM     17  C   UNL     1       2.592   6.526  -4.664  0.00  0.00    +0.017 A 
ATOM     18  C   UNL     1       0.725   7.700  -5.774  0.00  0.00    +0.072 C 
ATOM     19  C   UNL     1       1.958   4.068  -5.958  0.00  0.00    +0.044 C 
ATOM     20  O   UNL     1       0.408   5.092  -7.218  0.00  0.00    -0.219 OA
ATOM     21  C   UNL     1       0.749   5.686  -3.582  0.00  0.00    +0.084 C 
ATOM     22  C   UNL     1      -0.603   7.008  -6.038  0.00  0.00    +0.109 C 
ENDROOT
BRANCH   2  23
ATOM     23  C   UNL     1      -1.403   6.592  -3.790  0.00  0.00    +0.108 C 
BRANCH  23  24
ATOM     24  C   UNL     1      -2.623   5.893  -3.361  0.00  0.00    +0.055 C 
ATOM     25  C   UNL     1      -3.690   6.436  -2.522  0.00  0.00    +0.006 C 
ATOM     26  C   UNL     1      -2.711   5.584  -1.841  0.00  0.00    +0.006 C 
ENDBRANCH  23  24
ENDBRANCH   2  23
TORSDOF 2
ENDMDL
MODEL 7
REMARK VINA RESULT:      -7.0      2.229      5.613
REMARK  Name = 
REMARK  2 active torsions:
REMARK  status: ('A' for Active; 'I' for Inactive)
REMARK    1  A    between atoms: N_2  and  C_3
REMARK    2  A    between atoms: C_3  and  C_4
REMARK                            x       y       z     vdW  Elec       q    Type
REMARK                         _______ _______ _______ _____ _____    ______ ____
ROOT
ATOM      1  C   UNL     1       2.013   6.493  -3.932  0.00  0.00    +0.170 C 
ATOM      2  N   UNL     1       1.535   5.735  -4.943  0.00  0.00    +0.299 N 
ATOM      3  C   UNL     1       1.549   6.793  -6.109  0.00  0.00    +0.092 C 
ATOM      4  C   UNL     1       2.698   6.086  -7.046  0.00  0.00    +0.178 C 
ATOM      5  C   UNL     1       2.255   4.830  -7.512  0.00  0.00    +0.102 C 
ATOM      6  C   UNL     1       3.490   4.216  -8.408  0.00  0.00    +0.229 C 
ATOM      7  O   UNL     1       2.522   3.454  -9.365  0.00  0.00    -0.468 OA
ATOM      8  C   UNL     1       1.594   4.432  -9.708  0.00  0.00    +0.173 A 
ATOM      9  C   UNL     1       0.579   4.594 -10.644  0.00  0.00    +0.229 A 
ATOM     10  C   UNL     1      -0.289   5.681 -10.523  0.00  0.00    +0.045 A 
ATOM     11  C   UNL     1      -0.350   6.425  -9.340  0.00  0.00    -0.001 A 
ATOM     12  C   UNL     1       0.505   6.107  -8.298  0.00  0.00    -0.017 A 
ATOM     13  O   UNL     1       0.927   4.142 -11.922  0.00  0.00    -0.283 OA
ATOM     14  C   UNL     1       3.622   5.477  -9.432  0.00  0.00    +0.191 C 
ATOM     15  O   UNL     1       4.250   5.063 -10.407  0.00  0.00    -0.292 OA
ATOM     16  C   UNL     1       4.146   6.724  -8.809  0.00  0.00    +0.071 C 
ATOM     17  C   UNL     1       1.229   4.939  -8.502  0.00  0.00    +0.017 A 
ATOM     18  C   UNL     1       2.014   3.844  -6.433  0.00  0.00    +0.072 C 
ATOM     19  C   UNL     1       2.901   7.205  -8.065  0.00  0.00    +0.044 C 
ATOM     20  O   UNL     1       3.877   6.190  -6.316  0.00  0.00    -0.219 OA
ATOM     21  C   UNL     1       0.215   6.178  -6.856  0.00  0.00    +0.084 C 
ATOM     22  C   UNL     1       2.325   4.645  -5.179  0.00  0.00    +0.109 C 
ENDROOT
BRANCH   2  23
ATOM     23  C   UNL     1       0.147   5.533  -4.603  0.00  0.00    +0.108 C 
BRANCH  23  24
ATOM     24  C   UNL     1      -0.112   6.108  -3.276  0.00  0.00    +0.055 C 
ATOM     25  C   UNL     1      -1.118   5.664  -2.312  0.00  0.00    +0.006 C 
ATOM     26  C   UNL     1      -1.477   6.833  -3.120  0.00  0.00    +0.006 C 
ENDBRANCH  23  24
ENDBRANCH   2  23
TORSDOF 2
ENDMDL
MODEL 8
REMARK VINA RESULT:      -7.0      2.660      5.006
REMARK  Name = 
REMARK  2 active torsions:
REMARK  status: ('A' for Active; 'I' for Inactive)
REMARK    1  A    between atoms: N_2  and  C_3
REMARK    2  A    between atoms: C_3  and  C_4
REMARK                            x       y       z     vdW  Elec       q    Type
REMARK                         _______ _______ _______ _____ _____    ______ ____
ROOT
ATOM      1  C   UNL     1      -0.549   6.400 -11.030  0.00  0.00    +0.170 C 
ATOM      2  N   UNL     1       0.686   5.856 -11.076  0.00  0.00    +0.299 N 
ATOM      3  C   UNL     1       1.536   7.062 -10.526  0.00  0.00    +0.092 C 
ATOM      4  C   UNL     1       2.038   6.368  -9.125  0.00  0.00    +0.178 C 
ATOM      5  C   UNL     1       2.860   5.252  -9.388  0.00  0.00    +0.102 C 
ATOM      6  C   UNL     1       3.273   4.634  -7.922  0.00  0.00    +0.229 C 
ATOM      7  O   UNL     1       4.659   4.135  -8.434  0.00  0.00    -0.468 OA
ATOM      8  C   UNL     1       5.168   5.253  -9.086  0.00  0.00    +0.173 A 
ATOM      9  C   UNL     1       6.390   5.665  -9.608  0.00  0.00    +0.229 A 
ATOM     10  C   UNL     1       6.438   6.817 -10.396  0.00  0.00    +0.045 A 
ATOM     11  C   UNL     1       5.269   7.385 -10.912  0.00  0.00    -0.001 A 
ATOM     12  C   UNL     1       4.045   6.823 -10.588  0.00  0.00    -0.017 A 
ATOM     13  O   UNL     1       7.475   5.363  -8.778  0.00  0.00    -0.283 OA
ATOM     14  C   UNL     1       3.912   6.005  -7.315  0.00  0.00    +0.191 C 
ATOM     15  O   UNL     1       4.606   5.665  -6.357  0.00  0.00    -0.292 OA
ATOM     16  C   UNL     1       2.919   7.080  -7.044  0.00  0.00    +0.071 C 
ATOM     17  C   UNL     1       4.144   5.621  -9.899  0.00  0.00    +0.017 A 
ATOM     18  C   UNL     1       2.166   4.156 -10.104  0.00  0.00    +0.072 C 
ATOM     19  C   UNL     1       2.669   7.591  -8.462  0.00  0.00    +0.044 C 
ATOM     20  O   UNL     1       0.888   6.229  -8.356  0.00  0.00    -0.219 OA
ATOM     21  C   UNL     1       2.856   6.720 -11.451  0.00  0.00    +0.084 C 
ATOM     22  C   UNL     1       0.773   4.728 -10.310  0.00  0.00    +0.109 C 
ENDROOT
BRANCH   2  23
ATOM     23  C   UNL     1       0.980   5.770 -12.486  0.00  0.00    +0.108 C 
BRANCH  23  24
ATOM     24  C   UNL     1       0.489   4.484 -13.002  0.00  0.00    +0.055 C 
ATOM     25  C   UNL     1       1.145   3.633 -13.994  0.00  0.00    +0.006 C 
ATOM     26  C   UNL     1       0.063   4.485 -14.496  0.00  0.00    +0.006 C 
ENDBRANCH  23  24
ENDBRANCH   2  23
TORSDOF 2
ENDMDL
MODEL 9
REMARK VINA RESULT:      -6.8      3.210      5.038
REMARK  Name = 
REMARK  2 active torsions:
REMARK  status: ('A' for Active; 'I' for Inactive)
REMARK    1  A    between atoms: N_2  and  C_3
REMARK    2  A    between atoms: C_3  and  C_4
REMARK                            x       y       z     vdW  Elec       q    Type
REMARK                         _______ _______ _______ _____ _____    ______ ____
ROOT
ATOM      1  C   UNL     1      -0.008   4.859  -6.928  0.00  0.00    +0.170 C 
ATOM      2  N   UNL     1       0.306   5.661  -5.888  0.00  0.00    +0.299 N 
ATOM      3  C   UNL     1       1.177   4.668  -5.031  0.00  0.00    +0.092 C 
ATOM      4  C   UNL     1       2.616   5.446  -5.169  0.00  0.00    +0.178 C 
ATOM      5  C   UNL     1       2.555   6.717  -4.558  0.00  0.00    +0.102 C 
ATOM      6  C   UNL     1       4.033   7.402  -4.784  0.00  0.00    +0.229 C 
ATOM      7  O   UNL     1       3.957   8.196  -3.444  0.00  0.00    -0.468 OA
ATOM      8  C   UNL     1       3.576   7.221  -2.529  0.00  0.00    +0.173 A 
ATOM      9  C   UNL     1       3.499   7.090  -1.146  0.00  0.00    +0.229 A 
ATOM     10  C   UNL     1       2.846   5.982  -0.604  0.00  0.00    +0.045 A 
ATOM     11  C   UNL     1       2.022   5.174  -1.395  0.00  0.00    -0.001 A 
ATOM     12  C   UNL     1       1.902   5.452  -2.747  0.00  0.00    -0.017 A 
ATOM     13  O   UNL     1       4.610   7.618  -0.478  0.00  0.00    -0.283 OA
ATOM     14  C   UNL     1       4.900   6.202  -4.106  0.00  0.00    +0.191 C 
ATOM     15  O   UNL     1       6.005   6.680  -3.848  0.00  0.00    -0.292 OA
ATOM     16  C   UNL     1       4.912   4.933  -4.885  0.00  0.00    +0.071 C 
ATOM     17  C   UNL     1       2.505   6.642  -3.132  0.00  0.00    +0.017 A 
ATOM     18  C   UNL     1       1.585   7.639  -5.195  0.00  0.00    +0.072 C 
ATOM     19  C   UNL     1       3.524   4.388  -4.546  0.00  0.00    +0.044 C 
ATOM     20  O   UNL     1       2.967   5.326  -6.509  0.00  0.00    -0.219 OA
ATOM     21  C   UNL     1       0.700   5.297  -3.584  0.00  0.00    +0.084 C 
ATOM     22  C   UNL     1       0.984   6.777  -6.293  0.00  0.00    +0.109 C 
ENDROOT
BRANCH   2  23
ATOM     23  C   UNL     1      -0.939   5.818  -5.176  0.00  0.00    +0.108 C 
BRANCH  23  24
ATOM     24  C   UNL     1      -1.455   7.176  -5.403  0.00  0.00    +0.055 C 
ATOM     25  C   UNL     1      -1.920   8.115  -4.384  0.00  0.00    +0.006 C 
ATOM     26  C   UNL     1      -2.964   7.374  -5.096  0.00  0.00    +0.006 C 
ENDBRANCH  23  24
ENDBRANCH   2  23
TORSDOF 2
ENDMDL
