MODEL 1
REMARK VINA RESULT:      20.8      0.000      0.000
REMARK  Name = 
REMARK  9 active torsions:
REMARK  status: ('A' for Active; 'I' for Inactive)
REMARK    1  A    between atoms: O_2  and  C_3
REMARK    2  A    between atoms: C_5  and  C_6
REMARK    3  A    between atoms: C_6  and  C_7
REMARK    4  A    between atoms: C_7  and  C_9
REMARK    5  A    between atoms: C_20  and  O_21
REMARK    6  A    between atoms: C_37  and  O_38
REMARK    7  A    between atoms: C_64  and  O_65
REMARK    8  A    between atoms: O_65  and  C_66
REMARK    9  A    between atoms: C_66  and  C_67
REMARK                            x       y       z     vdW  Elec       q    Type
REMARK                         _______ _______ _______ _____ _____    ______ ____
ROOT
ATOM      1  C   UNL     1       5.056   5.962  -6.822  0.00  0.00    +0.176 C 
ATOM      2  O   UNL     1       4.006   4.931  -7.229  0.00  0.00    -0.451 OA
ATOM      3  C   UNL     1       3.523   5.077  -8.550  0.00  0.00    +0.335 C 
ATOM      4  O   UNL     1       3.116   3.994  -8.984  0.00  0.00    -0.248 OA
ATOM      5  C   UNL     1       2.393   6.179  -8.161  0.00  0.00    +0.175 C 
ATOM      6  N   UNL     1       1.539   6.179  -9.485  0.00  0.00    -0.265 N 
ATOM      7  C   UNL     1       2.025   6.078 -10.770  0.00  0.00    +0.094 C 
ATOM      8  C   UNL     1       3.493   6.205 -11.023  0.00  0.00    +0.022 C 
ATOM      9  C   UNL     1       3.934   7.115  -9.989  0.00  0.00    +0.004 C 
ATOM     10  C   UNL     1       0.590   7.220  -9.142  0.00  0.00    +0.289 C 
ATOM     11  O   UNL     1       0.226   8.139  -9.944  0.00  0.00    -0.267 OA
ATOM     12  C   UNL     1       0.003   7.084  -7.782  0.00  0.00    +0.279 C 
ATOM     13  O   UNL     1      -1.012   7.861  -7.639  0.00  0.00    -0.281 OA
ATOM     14  C   UNL     1      -0.196   5.757  -7.304  0.00  0.00    +0.279 C 
ATOM     15  O   UNL     1      -0.890   5.888  -6.060  0.00  0.00    -0.329 OA
ATOM     16  C   UNL     1      -0.962   4.454  -5.538  0.00  0.00    +0.121 C 
ATOM     17  C   UNL     1      -2.361   4.150  -6.345  0.00  0.00    +0.030 C 
ATOM     18  C   UNL     1      -2.604   5.077  -7.371  0.00  0.00    +0.008 C 
ATOM     19  C   UNL     1      -1.659   4.830  -4.107  0.00  0.00    +0.063 C 
ATOM     20  C   UNL     1      -3.022   5.649  -4.513  0.00  0.00    +0.136 C 
ATOM     21  C   UNL     1      -3.434   5.581  -2.948  0.00  0.00    -0.017 C 
ATOM     22  C   UNL     1      -3.938   4.173  -2.751  0.00  0.00    +0.029 C 
ATOM     23  C   UNL     1      -3.759   6.601  -2.280  0.00  0.00    -0.006 C 
ATOM     24  C   UNL     1      -2.958   7.320  -1.276  0.00  0.00    -0.001 C 
ATOM     25  C   UNL     1      -1.693   7.400  -1.541  0.00  0.00    -0.000 C 
ATOM     26  C   UNL     1      -1.040   8.629  -1.061  0.00  0.00    -0.005 C 
ATOM     27  C   UNL     1      -0.991   8.721   0.254  0.00  0.00    -0.026 C 
ATOM     28  C   UNL     1      -0.708   7.321   0.987  0.00  0.00    +0.022 C 
ATOM     29  C   UNL     1      -1.760   7.654   2.192  0.00  0.00    +0.005 C 
ATOM     30  C   UNL     1       0.558   7.903   1.832  0.00  0.00    +0.012 C 
ATOM     31  C   UNL     1       1.703   8.035   0.670  0.00  0.00    +0.061 C 
ATOM     32  C   UNL     1       1.508   6.493   0.155  0.00  0.00    +0.008 C 
ATOM     33  C   UNL     1       2.879   7.650   1.677  0.00  0.00    +0.180 C 
ATOM     34  O   UNL     1       2.764   6.707   2.382  0.00  0.00    -0.293 OA
ATOM     35  C   UNL     1       4.350   7.999   1.136  0.00  0.00    +0.206 C 
ATOM     36  C   UNL     1       4.066   7.263  -0.397  0.00  0.00    +0.204 C 
ATOM     37  O   UNL     1       4.525   5.919   0.120  0.00  0.00    -0.216 OA
ATOM     38  C   UNL     1       5.529   7.643  -0.954  0.00  0.00    -0.015 C 
ATOM     39  C   UNL     1       6.675   7.470  -0.049  0.00  0.00    +0.029 C 
ATOM     40  C   UNL     1       5.722   7.452  -2.262  0.00  0.00    -0.025 C 
ATOM     41  C   UNL     1       4.413   7.019  -3.098  0.00  0.00    +0.079 C 
ATOM     42  C   UNL     1       3.914   8.574  -3.239  0.00  0.00    +0.012 C 
ATOM     43  C   UNL     1       5.146   7.015  -4.530  0.00  0.00    +0.158 C 
ATOM     44  O   UNL     1       5.883   7.884  -4.809  0.00  0.00    -0.296 OA
ATOM     45  O   UNL     1       0.530   4.709  -7.044  0.00  0.00    -0.187 OA
ATOM     46  C   UNL     1      -1.376   5.346  -8.390  0.00  0.00    +0.062 C 
ATOM     47  C   UNL     1      -1.014   3.758  -8.527  0.00  0.00    +0.006 C 
ATOM     48  C   UNL     1       3.368   7.372  -8.740  0.00  0.00    +0.031 C 
ATOM     49  C   UNL     1       4.713   5.819  -5.231  0.00  0.00    +0.108 C 
ENDROOT
BRANCH  35  50
ATOM     50  O   UNL     1       3.961   9.359   0.604  0.00  0.00    -0.343 OA
ATOM     51  C   UNL     1       4.456  10.245   1.581  0.00  0.00    +0.175 C 
ENDBRANCH  35  50
BRANCH   1  52
ATOM     52  C   UNL     1       6.189   4.673  -6.698  0.00  0.00    +0.041 C 
ATOM     53  C   UNL     1       5.458   3.864  -7.899  0.00  0.00    +0.004 C 
BRANCH  52  54
ATOM     54  C   UNL     1       7.319   5.464  -7.534  0.00  0.00    +0.004 C 
BRANCH  54  59
ATOM     55  C   UNL     1       6.785   6.822 -10.893  0.00  0.00    +0.142 C 
ATOM     56  C   UNL     1       8.244   6.338 -11.673  0.00  0.00    +0.142 C 
ATOM     57  C   UNL     1       8.988   5.651 -10.400  0.00  0.00    +0.032 C 
ATOM     58  C   UNL     1       8.207   4.756  -9.638  0.00  0.00    +0.003 C 
ATOM     59  C   UNL     1       6.834   5.419  -9.077  0.00  0.00    +0.003 C 
ATOM     60  C   UNL     1       7.381   6.933  -9.371  0.00  0.00    +0.032 C 
BRANCH  55  62
ATOM     61  C   UNL     1       6.506   8.585 -11.535  0.00  0.00    +0.174 C 
ATOM     62  O   UNL     1       7.082   8.271 -11.182  0.00  0.00    -0.351 OA
ENDBRANCH  55  62
BRANCH  56  63
ATOM     63  O   UNL     1       7.589   5.052 -12.108  0.00  0.00    -0.351 OA
BRANCH  63  64
ATOM     64  C   UNL     1       7.410   5.078 -13.450  0.00  0.00    +0.178 C 
BRANCH  64  65
ATOM     65  C   UNL     1       6.068   5.444 -13.949  0.00  0.00    +0.214 C 
ATOM     66  O   UNL     1       5.033   4.626 -13.537  0.00  0.00    -0.218 OA
ENDBRANCH  64  65
ENDBRANCH  63  64
ENDBRANCH  56  63
ENDBRANCH  54  59
ENDBRANCH  52  54
ENDBRANCH   1  52
BRANCH  20  67
ATOM     67  O   UNL     1      -2.335   6.998  -4.386  0.00  0.00    -0.349 OA
ATOM     68  C   UNL     1      -3.039   7.878  -5.174  0.00  0.00    +0.174 C 
ENDBRANCH  20  67
TORSDOF 9
ENDMDL
MODEL 2
REMARK VINA RESULT:      21.5      2.970     10.093
REMARK  Name = 
REMARK  9 active torsions:
REMARK  status: ('A' for Active; 'I' for Inactive)
REMARK    1  A    between atoms: O_2  and  C_3
REMARK    2  A    between atoms: C_5  and  C_6
REMARK    3  A    between atoms: C_6  and  C_7
REMARK    4  A    between atoms: C_7  and  C_9
REMARK    5  A    between atoms: C_20  and  O_21
REMARK    6  A    between atoms: C_37  and  O_38
REMARK    7  A    between atoms: C_64  and  O_65
REMARK    8  A    between atoms: O_65  and  C_66
REMARK    9  A    between atoms: C_66  and  C_67
REMARK                            x       y       z     vdW  Elec       q    Type
REMARK                         _______ _______ _______ _____ _____    ______ ____
ROOT
ATOM      1  C   UNL     1       2.594   8.738   0.609  0.00  0.00    +0.176 C 
ATOM      2  O   UNL     1       1.226   9.361   0.342  0.00  0.00    -0.451 OA
ATOM      3  C   UNL     1       0.262   9.111   1.346  0.00  0.00    +0.335 C 
ATOM      4  O   UNL     1      -0.591  10.006   1.357  0.00  0.00    -0.248 OA
ATOM      5  C   UNL     1      -0.196   7.674   0.741  0.00  0.00    +0.175 C 
ATOM      6  N   UNL     1      -1.516   7.434   1.568  0.00  0.00    -0.265 N 
ATOM      7  C   UNL     1      -1.718   7.749   2.893  0.00  0.00    +0.094 C 
ATOM      8  C   UNL     1      -0.558   8.144   3.750  0.00  0.00    +0.022 C 
ATOM      9  C   UNL     1       0.546   7.400   3.184  0.00  0.00    +0.004 C 
ATOM     10  C   UNL     1      -1.859   6.118   1.068  0.00  0.00    +0.289 C 
ATOM     11  O   UNL     1      -2.264   5.163   1.806  0.00  0.00    -0.267 OA
ATOM     12  C   UNL     1      -1.778   5.987  -0.411  0.00  0.00    +0.279 C 
ATOM     13  O   UNL     1      -2.343   4.904  -0.811  0.00  0.00    -0.281 OA
ATOM     14  C   UNL     1      -2.112   7.144  -1.172  0.00  0.00    +0.279 C 
ATOM     15  O   UNL     1      -2.095   6.732  -2.541  0.00  0.00    -0.329 OA
ATOM     16  C   UNL     1      -2.334   8.031  -3.309  0.00  0.00    +0.121 C 
ATOM     17  C   UNL     1      -3.967   7.869  -3.227  0.00  0.00    +0.030 C 
ATOM     18  C   UNL     1      -4.369   6.957  -2.238  0.00  0.00    +0.008 C 
ATOM     19  C   UNL     1      -2.164   7.380  -4.800  0.00  0.00    +0.063 C 
ATOM     20  C   UNL     1      -3.260   6.160  -4.846  0.00  0.00    +0.136 C 
ATOM     21  C   UNL     1      -2.918   6.018  -6.423  0.00  0.00    -0.017 C 
ATOM     22  C   UNL     1      -3.661   7.158  -7.075  0.00  0.00    +0.029 C 
ATOM     23  C   UNL     1      -2.594   4.922  -6.958  0.00  0.00    -0.006 C 
ATOM     24  C   UNL     1      -1.256   4.481  -7.384  0.00  0.00    -0.001 C 
ATOM     25  C   UNL     1      -0.286   4.852  -6.609  0.00  0.00    -0.000 C 
ATOM     26  C   UNL     1       0.837   3.904  -6.533  0.00  0.00    -0.005 C 
ATOM     27  C   UNL     1       1.501   3.781  -7.667  0.00  0.00    -0.026 C 
ATOM     28  C   UNL     1       1.668   5.161  -8.468  0.00  0.00    +0.022 C 
ATOM     29  C   UNL     1       1.423   4.437  -9.913  0.00  0.00    +0.005 C 
ATOM     30  C   UNL     1       3.286   5.016  -8.586  0.00  0.00    +0.012 C 
ATOM     31  C   UNL     1       3.763   5.333  -7.053  0.00  0.00    +0.061 C 
ATOM     32  C   UNL     1       2.919   6.734  -6.969  0.00  0.00    +0.008 C 
ATOM     33  C   UNL     1       5.099   6.057  -7.537  0.00  0.00    +0.180 C 
ATOM     34  O   UNL     1       5.049   6.874  -8.392  0.00  0.00    -0.293 OA
ATOM     35  C   UNL     1       6.195   6.257  -6.381  0.00  0.00    +0.206 C 
ATOM     36  C   UNL     1       5.048   6.914  -5.273  0.00  0.00    +0.204 C 
ATOM     37  O   UNL     1       5.281   8.310  -5.800  0.00  0.00    -0.216 OA
ATOM     38  C   UNL     1       6.139   7.083  -4.099  0.00  0.00    -0.015 C 
ATOM     39  C   UNL     1       7.466   7.601  -4.465  0.00  0.00    +0.029 C 
ATOM     40  C   UNL     1       5.654   7.381  -2.892  0.00  0.00    -0.025 C 
ATOM     41  C   UNL     1       4.046   7.373  -2.771  0.00  0.00    +0.079 C 
ATOM     42  C   UNL     1       4.011   5.748  -2.556  0.00  0.00    +0.012 C 
ATOM     43  C   UNL     1       4.013   7.686  -1.194  0.00  0.00    +0.158 C 
ATOM     44  O   UNL     1       4.760   7.136  -0.476  0.00  0.00    -0.296 OA
ATOM     45  O   UNL     1      -1.685   8.367  -1.304  0.00  0.00    -0.187 OA
ATOM     46  C   UNL     1      -3.718   7.169  -0.771  0.00  0.00    +0.062 C 
ATOM     47  C   UNL     1      -3.934   8.788  -0.802  0.00  0.00    +0.006 C 
ATOM     48  C   UNL     1       0.709   6.914   1.887  0.00  0.00    +0.031 C 
ATOM     49  C   UNL     1       2.985   8.689  -0.977  0.00  0.00    +0.108 C 
ENDROOT
BRANCH  35  50
ATOM     50  O   UNL     1       6.019   4.870  -5.808  0.00  0.00    -0.343 OA
ATOM     51  C   UNL     1       6.105   4.037  -6.941  0.00  0.00    +0.175 C 
ENDBRANCH  35  50
BRANCH   1  52
ATOM     52  C   UNL     1       3.233  10.331   0.722  0.00  0.00    +0.041 C 
ATOM     53  C   UNL     1       2.325  10.644   2.029  0.00  0.00    +0.004 C 
BRANCH  52  54
ATOM     54  C   UNL     1       4.593   9.835   1.432  0.00  0.00    +0.004 C 
BRANCH  54  59
ATOM     55  C   UNL     1       6.972  11.984   3.204  0.00  0.00    +0.142 C 
ATOM     56  C   UNL     1       7.129  13.283   2.083  0.00  0.00    +0.142 C 
ATOM     57  C   UNL     1       6.184  12.701   0.894  0.00  0.00    +0.032 C 
ATOM     58  C   UNL     1       4.928  12.198   1.295  0.00  0.00    +0.003 C 
ATOM     59  C   UNL     1       5.032  11.035   2.424  0.00  0.00    +0.003 C 
ATOM     60  C   UNL     1       6.623  10.806   2.119  0.00  0.00    +0.032 C 
BRANCH  55  62
ATOM     61  C   UNL     1       8.571  10.970   3.103  0.00  0.00    +0.174 C 
ATOM     62  O   UNL     1       8.450  11.704   3.126  0.00  0.00    -0.351 OA
ENDBRANCH  55  62
BRANCH  56  63
ATOM     63  O   UNL     1       5.995  14.010   2.760  0.00  0.00    -0.351 OA
BRANCH  63  64
ATOM     64  C   UNL     1       6.369  15.290   2.999  0.00  0.00    +0.178 C 
BRANCH  64  65
ATOM     65  C   UNL     1       6.903  16.065   1.860  0.00  0.00    +0.214 C 
ATOM     66  O   UNL     1       6.079  16.148   0.754  0.00  0.00    -0.218 OA
ENDBRANCH  64  65
ENDBRANCH  63  64
ENDBRANCH  56  63
ENDBRANCH  54  59
ENDBRANCH  52  54
ENDBRANCH   1  52
BRANCH  20  67
ATOM     67  O   UNL     1      -2.234   5.125  -4.418  0.00  0.00    -0.349 OA
ATOM     68  C   UNL     1      -2.880   4.249  -3.579  0.00  0.00    +0.174 C 
ENDBRANCH  20  67
TORSDOF 9
ENDMDL
MODEL 3
REMARK VINA RESULT:      21.6      3.463     10.265
REMARK  Name = 
REMARK  9 active torsions:
REMARK  status: ('A' for Active; 'I' for Inactive)
REMARK    1  A    between atoms: O_2  and  C_3
REMARK    2  A    between atoms: C_5  and  C_6
REMARK    3  A    between atoms: C_6  and  C_7
REMARK    4  A    between atoms: C_7  and  C_9
REMARK    5  A    between atoms: C_20  and  O_21
REMARK    6  A    between atoms: C_37  and  O_38
REMARK    7  A    between atoms: C_64  and  O_65
REMARK    8  A    between atoms: O_65  and  C_66
REMARK    9  A    between atoms: C_66  and  C_67
REMARK                            x       y       z     vdW  Elec       q    Type
REMARK                         _______ _______ _______ _____ _____    ______ ____
ROOT
ATOM      1  C   UNL     1       4.558   9.565  -0.838  0.00  0.00    +0.176 C 
ATOM      2  O   UNL     1       3.326  10.273  -0.280  0.00  0.00    -0.451 OA
ATOM      3  C   UNL     1       3.208  10.223   1.128  0.00  0.00    +0.335 C 
ATOM      4  O   UNL     1       2.551  11.185   1.542  0.00  0.00    -0.248 OA
ATOM      5  C   UNL     1       2.474   8.773   1.153  0.00  0.00    +0.175 C 
ATOM      6  N   UNL     1       1.967   8.746   2.645  0.00  0.00    -0.265 N 
ATOM      7  C   UNL     1       2.644   9.222   3.746  0.00  0.00    +0.094 C 
ATOM      8  C   UNL     1       4.084   9.606   3.627  0.00  0.00    +0.022 C 
ATOM      9  C   UNL     1       4.587   8.708   2.610  0.00  0.00    +0.004 C 
ATOM     10  C   UNL     1       1.387   7.417   2.662  0.00  0.00    +0.289 C 
ATOM     11  O   UNL     1       1.538   6.590   3.618  0.00  0.00    -0.267 OA
ATOM     12  C   UNL     1       0.520   7.117   1.491  0.00  0.00    +0.279 C 
ATOM     13  O   UNL     1      -0.170   6.050   1.690  0.00  0.00    -0.281 OA
ATOM     14  C   UNL     1      -0.219   8.207   0.950  0.00  0.00    +0.279 C 
ATOM     15  O   UNL     1      -1.067   7.645  -0.056  0.00  0.00    -0.329 OA
ATOM     16  C   UNL     1      -1.738   8.867  -0.682  0.00  0.00    +0.121 C 
ATOM     17  C   UNL     1      -2.955   8.861   0.422  0.00  0.00    +0.030 C 
ATOM     18  C   UNL     1      -2.644   8.104   1.563  0.00  0.00    +0.008 C 
ATOM     19  C   UNL     1      -2.542   8.042  -1.842  0.00  0.00    +0.063 C 
ATOM     20  C   UNL     1      -3.422   6.926  -1.021  0.00  0.00    +0.136 C 
ATOM     21  C   UNL     1      -4.148   6.580  -2.428  0.00  0.00    -0.017 C 
ATOM     22  C   UNL     1      -5.137   7.702  -2.628  0.00  0.00    +0.029 C 
ATOM     23  C   UNL     1      -4.232   5.407  -2.885  0.00  0.00    -0.006 C 
ATOM     24  C   UNL     1      -3.460   4.805  -3.984  0.00  0.00    -0.001 C 
ATOM     25  C   UNL     1      -2.219   5.172  -4.045  0.00  0.00    -0.000 C 
ATOM     26  C   UNL     1      -1.297   4.143  -4.550  0.00  0.00    -0.005 C 
ATOM     27  C   UNL     1      -1.494   3.836  -5.818  0.00  0.00    -0.026 C 
ATOM     28  C   UNL     1      -1.870   5.098  -6.735  0.00  0.00    +0.022 C 
ATOM     29  C   UNL     1      -2.969   4.243  -7.592  0.00  0.00    +0.005 C 
ATOM     30  C   UNL     1      -0.686   4.798  -7.813  0.00  0.00    +0.012 C 
ATOM     31  C   UNL     1       0.649   5.240  -6.976  0.00  0.00    +0.061 C 
ATOM     32  C   UNL     1       0.044   6.711  -6.585  0.00  0.00    +0.008 C 
ATOM     33  C   UNL     1       1.383   5.784  -8.284  0.00  0.00    +0.180 C 
ATOM     34  O   UNL     1       0.805   6.502  -9.026  0.00  0.00    -0.293 OA
ATOM     35  C   UNL     1       2.962   6.014  -8.105  0.00  0.00    +0.206 C 
ATOM     36  C   UNL     1       2.766   6.888  -6.632  0.00  0.00    +0.204 C 
ATOM     37  O   UNL     1       2.615   8.192  -7.381  0.00  0.00    -0.216 OA
ATOM     38  C   UNL     1       4.353   7.089  -6.433  0.00  0.00    -0.015 C 
ATOM     39  C   UNL     1       5.154   7.445  -7.614  0.00  0.00    +0.029 C 
ATOM     40  C   UNL     1       4.735   7.562  -5.244  0.00  0.00    -0.025 C 
ATOM     41  C   UNL     1       3.561   7.709  -4.148  0.00  0.00    +0.079 C 
ATOM     42  C   UNL     1       3.670   6.128  -3.730  0.00  0.00    +0.012 C 
ATOM     43  C   UNL     1       4.528   8.198  -2.959  0.00  0.00    +0.158 C 
ATOM     44  O   UNL     1       5.560   7.667  -2.793  0.00  0.00    -0.296 OA
ATOM     45  O   UNL     1       0.029   9.364   0.409  0.00  0.00    -0.187 OA
ATOM     46  C   UNL     1      -1.215   8.419   2.255  0.00  0.00    +0.062 C 
ATOM     47  C   UNL     1      -1.405  10.037   2.135  0.00  0.00    +0.006 C 
ATOM     48  C   UNL     1       3.898   8.068   1.579  0.00  0.00    +0.031 C 
ATOM     49  C   UNL     1       3.864   9.306  -2.294  0.00  0.00    +0.108 C 
ENDROOT
BRANCH  35  50
ATOM     50  O   UNL     1       3.187   4.720  -7.358  0.00  0.00    -0.343 OA
ATOM     51  C   UNL     1       3.020   3.736  -8.353  0.00  0.00    +0.175 C 
ENDBRANCH  35  50
BRANCH   1  52
ATOM     52  C   UNL     1       5.124  11.098  -1.375  0.00  0.00    +0.041 C 
ATOM     53  C   UNL     1       3.605  11.631  -1.578  0.00  0.00    +0.004 C 
BRANCH  52  54
ATOM     54  C   UNL     1       5.412  11.619   0.123  0.00  0.00    +0.004 C 
BRANCH  54  59
ATOM     55  C   UNL     1       5.989  15.199   0.644  0.00  0.00    +0.142 C 
ATOM     56  C   UNL     1       7.001  15.163   2.038  0.00  0.00    +0.142 C 
ATOM     57  C   UNL     1       7.000  13.558   2.305  0.00  0.00    +0.032 C 
ATOM     58  C   UNL     1       7.240  12.745   1.177  0.00  0.00    +0.003 C 
ATOM     59  C   UNL     1       6.205  13.020  -0.046  0.00  0.00    +0.003 C 
ATOM     60  C   UNL     1       5.167  13.813   0.940  0.00  0.00    +0.032 C 
BRANCH  55  62
ATOM     61  C   UNL     1       4.374  16.146   0.943  0.00  0.00    +0.174 C 
ATOM     62  O   UNL     1       4.970  16.034   1.374  0.00  0.00    -0.351 OA
ENDBRANCH  55  62
BRANCH  56  63
ATOM     63  O   UNL     1       8.222  15.112   1.155  0.00  0.00    -0.351 OA
BRANCH  63  64
ATOM     64  C   UNL     1       9.035  16.152   1.462  0.00  0.00    +0.178 C 
BRANCH  64  65
ATOM     65  C   UNL     1       9.133  17.249   0.477  0.00  0.00    +0.214 C 
ATOM     66  O   UNL     1       9.509  16.876  -0.799  0.00  0.00    -0.218 OA
ENDBRANCH  64  65
ENDBRANCH  63  64
ENDBRANCH  56  63
ENDBRANCH  54  59
ENDBRANCH  52  54
ENDBRANCH   1  52
BRANCH  20  67
ATOM     67  O   UNL     1      -2.354   5.859  -1.184  0.00  0.00    -0.349 OA
ATOM     68  C   UNL     1      -2.371   5.101  -0.037  0.00  0.00    +0.174 C 
ENDBRANCH  20  67
TORSDOF 9
ENDMDL
MODEL 4
REMARK VINA RESULT:      21.7      2.643      7.381
REMARK  Name = 
REMARK  9 active torsions:
REMARK  status: ('A' for Active; 'I' for Inactive)
REMARK    1  A    between atoms: O_2  and  C_3
REMARK    2  A    between atoms: C_5  and  C_6
REMARK    3  A    between atoms: C_6  and  C_7
REMARK    4  A    between atoms: C_7  and  C_9
REMARK    5  A    between atoms: C_20  and  O_21
REMARK    6  A    between atoms: C_37  and  O_38
REMARK    7  A    between atoms: C_64  and  O_65
REMARK    8  A    between atoms: O_65  and  C_66
REMARK    9  A    between atoms: C_66  and  C_67
REMARK                            x       y       z     vdW  Elec       q    Type
REMARK                         _______ _______ _______ _____ _____    ______ ____
ROOT
ATOM      1  C   UNL     1       2.055   5.993  -9.195  0.00  0.00    +0.176 C 
ATOM      2  O   UNL     1       3.124   6.954  -8.681  0.00  0.00    -0.451 OA
ATOM      3  C   UNL     1       4.453   6.506  -8.866  0.00  0.00    +0.335 C 
ATOM      4  O   UNL     1       5.228   7.466  -8.926  0.00  0.00    -0.248 OA
ATOM      5  C   UNL     1       4.489   5.622  -7.502  0.00  0.00    +0.175 C 
ATOM      6  N   UNL     1       6.036   5.340  -7.397  0.00  0.00    -0.265 N 
ATOM      7  C   UNL     1       6.890   5.073  -8.444  0.00  0.00    +0.094 C 
ATOM      8  C   UNL     1       6.336   4.784  -9.802  0.00  0.00    +0.022 C 
ATOM      9  C   UNL     1       5.070   4.143  -9.519  0.00  0.00    +0.004 C 
ATOM     10  C   UNL     1       6.031   4.491  -6.223  0.00  0.00    +0.289 C 
ATOM     11  O   UNL     1       6.717   3.423  -6.118  0.00  0.00    -0.267 OA
ATOM     12  C   UNL     1       5.211   5.012  -5.097  0.00  0.00    +0.279 C 
ATOM     13  O   UNL     1       5.457   4.370  -4.010  0.00  0.00    -0.281 OA
ATOM     14  C   UNL     1       5.159   6.428  -4.949  0.00  0.00    +0.279 C 
ATOM     15  O   UNL     1       4.439   6.669  -3.737  0.00  0.00    -0.329 OA
ATOM     16  C   UNL     1       4.308   8.191  -3.697  0.00  0.00    +0.121 C 
ATOM     17  C   UNL     1       5.753   8.373  -2.936  0.00  0.00    +0.030 C 
ATOM     18  C   UNL     1       6.564   7.232  -3.039  0.00  0.00    +0.008 C 
ATOM     19  C   UNL     1       3.386   8.245  -2.348  0.00  0.00    +0.063 C 
ATOM     20  C   UNL     1       4.263   7.446  -1.215  0.00  0.00    +0.136 C 
ATOM     21  C   UNL     1       3.168   7.942  -0.130  0.00  0.00    -0.017 C 
ATOM     22  C   UNL     1       3.523   9.385   0.132  0.00  0.00    +0.029 C 
ATOM     23  C   UNL     1       2.577   7.154   0.659  0.00  0.00    -0.006 C 
ATOM     24  C   UNL     1       1.192   6.664   0.584  0.00  0.00    -0.001 C 
ATOM     25  C   UNL     1       0.759   6.432  -0.615  0.00  0.00    -0.000 C 
ATOM     26  C   UNL     1      -0.207   5.326  -0.716  0.00  0.00    -0.005 C 
ATOM     27  C   UNL     1      -1.356   5.573  -0.116  0.00  0.00    -0.026 C 
ATOM     28  C   UNL     1      -1.852   7.092  -0.275  0.00  0.00    +0.022 C 
ATOM     29  C   UNL     1      -2.396   7.153   1.265  0.00  0.00    +0.005 C 
ATOM     30  C   UNL     1      -3.314   6.661  -0.852  0.00  0.00    +0.012 C 
ATOM     31  C   UNL     1      -2.941   6.156  -2.363  0.00  0.00    +0.061 C 
ATOM     32  C   UNL     1      -2.118   7.523  -2.730  0.00  0.00    +0.008 C 
ATOM     33  C   UNL     1      -4.311   6.706  -2.968  0.00  0.00    +0.180 C 
ATOM     34  O   UNL     1      -4.668   7.804  -2.712  0.00  0.00    -0.293 OA
ATOM     35  C   UNL     1      -4.667   6.128  -4.423  0.00  0.00    +0.206 C 
ATOM     36  C   UNL     1      -3.094   6.463  -5.047  0.00  0.00    +0.204 C 
ATOM     37  O   UNL     1      -3.508   7.859  -5.448  0.00  0.00    -0.216 OA
ATOM     38  C   UNL     1      -3.438   5.852  -6.498  0.00  0.00    -0.015 C 
ATOM     39  C   UNL     1      -4.748   6.173  -7.085  0.00  0.00    +0.029 C 
ATOM     40  C   UNL     1      -2.400   5.686  -7.320  0.00  0.00    -0.025 C 
ATOM     41  C   UNL     1      -0.952   5.978  -6.675  0.00  0.00    +0.079 C 
ATOM     42  C   UNL     1      -0.874   4.478  -6.019  0.00  0.00    +0.012 C 
ATOM     43  C   UNL     1      -0.118   5.562  -7.985  0.00  0.00    +0.158 C 
ATOM     44  O   UNL     1      -0.421   4.603  -8.588  0.00  0.00    -0.296 OA
ATOM     45  O   UNL     1       4.771   7.455  -5.647  0.00  0.00    -0.187 OA
ATOM     46  C   UNL     1       6.748   6.626  -4.529  0.00  0.00    +0.062 C 
ATOM     47  C   UNL     1       6.980   8.096  -5.203  0.00  0.00    +0.006 C 
ATOM     48  C   UNL     1       4.257   4.257  -8.390  0.00  0.00    +0.031 C 
ATOM     49  C   UNL     1       0.917   6.565  -8.172  0.00  0.00    +0.108 C 
ENDROOT
BRANCH  35  50
ATOM     50  O   UNL     1      -4.279   4.707  -4.086  0.00  0.00    -0.343 OA
ATOM     51  C   UNL     1      -4.682   3.981  -5.224  0.00  0.00    +0.175 C 
ENDBRANCH  35  50
BRANCH   1  52
ATOM     52  C   UNL     1       1.620   7.189 -10.353  0.00  0.00    +0.041 C 
ATOM     53  C   UNL     1       3.013   6.974 -11.156  0.00  0.00    +0.004 C 
BRANCH  52  54
ATOM     54  C   UNL     1       0.661   6.182 -11.170  0.00  0.00    +0.004 C 
BRANCH  54  59
ATOM     55  C   UNL     1       0.916   4.918 -14.598  0.00  0.00    +0.142 C 
ATOM     56  C   UNL     1       0.187   6.212 -15.474  0.00  0.00    +0.142 C 
ATOM     57  C   UNL     1      -0.237   7.154 -14.217  0.00  0.00    +0.032 C 
ATOM     58  C   UNL     1       0.761   7.369 -13.243  0.00  0.00    +0.003 C 
ATOM     59  C   UNL     1       1.358   5.993 -12.618  0.00  0.00    +0.003 C 
ATOM     60  C   UNL     1       0.097   5.123 -13.194  0.00  0.00    +0.032 C 
BRANCH  55  62
ATOM     61  C   UNL     1      -0.165   3.362 -14.674  0.00  0.00    +0.174 C 
ATOM     62  O   UNL     1      -0.110   3.950 -15.128  0.00  0.00    -0.351 OA
ENDBRANCH  55  62
BRANCH  56  63
ATOM     63  O   UNL     1       1.536   6.868 -15.634  0.00  0.00    -0.351 OA
BRANCH  63  64
ATOM     64  C   UNL     1       1.434   7.875 -16.534  0.00  0.00    +0.178 C 
BRANCH  64  65
ATOM     65  C   UNL     1       0.531   7.668 -17.685  0.00  0.00    +0.214 C 
ATOM     66  O   UNL     1       1.069   6.971 -18.750  0.00  0.00    -0.218 OA
ENDBRANCH  64  65
ENDBRANCH  63  64
ENDBRANCH  56  63
ENDBRANCH  54  59
ENDBRANCH  52  54
ENDBRANCH   1  52
BRANCH  20  67
ATOM     67  O   UNL     1       3.554   6.131  -1.491  0.00  0.00    -0.349 OA
ATOM     68  C   UNL     1       4.323   5.139  -0.928  0.00  0.00    +0.174 C 
ENDBRANCH  20  67
TORSDOF 9
ENDMDL
MODEL 5
REMARK VINA RESULT:      21.8      3.179      9.892
REMARK  Name = 
REMARK  9 active torsions:
REMARK  status: ('A' for Active; 'I' for Inactive)
REMARK    1  A    between atoms: O_2  and  C_3
REMARK    2  A    between atoms: C_5  and  C_6
REMARK    3  A    between atoms: C_6  and  C_7
REMARK    4  A    between atoms: C_7  and  C_9
REMARK    5  A    between atoms: C_20  and  O_21
REMARK    6  A    between atoms: C_37  and  O_38
REMARK    7  A    between atoms: C_64  and  O_65
REMARK    8  A    between atoms: O_65  and  C_66
REMARK    9  A    between atoms: C_66  and  C_67
REMARK                            x       y       z     vdW  Elec       q    Type
REMARK                         _______ _______ _______ _____ _____    ______ ____
ROOT
ATOM      1  C   UNL     1       1.646   8.615   1.096  0.00  0.00    +0.176 C 
ATOM      2  O   UNL     1       0.311   9.197   0.636  0.00  0.00    -0.451 OA
ATOM      3  C   UNL     1      -0.779   8.909   1.488  0.00  0.00    +0.335 C 
ATOM      4  O   UNL     1      -1.654   9.776   1.380  0.00  0.00    -0.248 OA
ATOM      5  C   UNL     1      -1.099   7.463   0.818  0.00  0.00    +0.175 C 
ATOM      6  N   UNL     1      -2.516   7.176   1.443  0.00  0.00    -0.265 N 
ATOM      7  C   UNL     1      -2.918   7.472   2.727  0.00  0.00    +0.094 C 
ATOM      8  C   UNL     1      -1.908   7.896   3.744  0.00  0.00    +0.022 C 
ATOM      9  C   UNL     1      -0.710   7.191   3.341  0.00  0.00    +0.004 C 
ATOM     10  C   UNL     1      -2.742   5.854   0.893  0.00  0.00    +0.289 C 
ATOM     11  O   UNL     1      -3.218   4.880   1.562  0.00  0.00    -0.267 OA
ATOM     12  C   UNL     1      -2.442   5.739  -0.559  0.00  0.00    +0.279 C 
ATOM     13  O   UNL     1      -2.909   4.642  -1.041  0.00  0.00    -0.281 OA
ATOM     14  C   UNL     1      -2.700   6.892  -1.355  0.00  0.00    +0.279 C 
ATOM     15  O   UNL     1      -2.472   6.492  -2.709  0.00  0.00    -0.329 OA
ATOM     16  C   UNL     1      -2.639   7.790  -3.498  0.00  0.00    +0.121 C 
ATOM     17  C   UNL     1      -4.261   7.577  -3.654  0.00  0.00    +0.030 C 
ATOM     18  C   UNL     1      -4.772   6.644  -2.737  0.00  0.00    +0.008 C 
ATOM     19  C   UNL     1      -2.234   7.158  -4.951  0.00  0.00    +0.063 C 
ATOM     20  C   UNL     1      -3.273   5.905  -5.161  0.00  0.00    +0.136 C 
ATOM     21  C   UNL     1      -2.701   5.787  -6.672  0.00  0.00    -0.017 C 
ATOM     22  C   UNL     1      -3.378   6.910  -7.420  0.00  0.00    +0.029 C 
ATOM     23  C   UNL     1      -2.268   4.707  -7.160  0.00  0.00    -0.006 C 
ATOM     24  C   UNL     1      -0.870   4.312  -7.389  0.00  0.00    -0.001 C 
ATOM     25  C   UNL     1      -0.034   4.705  -6.480  0.00  0.00    -0.000 C 
ATOM     26  C   UNL     1       1.095   3.792  -6.246  0.00  0.00    -0.005 C 
ATOM     27  C   UNL     1       1.920   3.699  -7.272  0.00  0.00    -0.026 C 
ATOM     28  C   UNL     1       2.157   5.092  -8.035  0.00  0.00    +0.022 C 
ATOM     29  C   UNL     1       2.147   4.373  -9.503  0.00  0.00    +0.005 C 
ATOM     30  C   UNL     1       3.779   4.997  -7.918  0.00  0.00    +0.012 C 
ATOM     31  C   UNL     1       4.019   5.316  -6.331  0.00  0.00    +0.061 C 
ATOM     32  C   UNL     1       3.127   6.689  -6.364  0.00  0.00    +0.008 C 
ATOM     33  C   UNL     1       5.387   6.085  -6.612  0.00  0.00    +0.180 C 
ATOM     34  O   UNL     1       5.435   6.907  -7.462  0.00  0.00    -0.293 OA
ATOM     35  C   UNL     1       6.297   6.309  -5.309  0.00  0.00    +0.206 C 
ATOM     36  C   UNL     1       4.982   6.920  -4.376  0.00  0.00    +0.204 C 
ATOM     37  O   UNL     1       5.244   8.328  -4.858  0.00  0.00    -0.216 OA
ATOM     38  C   UNL     1       5.885   7.112  -3.056  0.00  0.00    -0.015 C 
ATOM     39  C   UNL     1       7.234   7.675  -3.223  0.00  0.00    +0.029 C 
ATOM     40  C   UNL     1       5.221   7.385  -1.930  0.00  0.00    -0.025 C 
ATOM     41  C   UNL     1       3.614   7.325  -2.044  0.00  0.00    +0.079 C 
ATOM     42  C   UNL     1       3.600   5.698  -1.843  0.00  0.00    +0.012 C 
ATOM     43  C   UNL     1       3.343   7.624  -0.487  0.00  0.00    +0.158 C 
ATOM     44  O   UNL     1       3.995   7.091   0.330  0.00  0.00    -0.296 OA
ATOM     45  O   UNL     1      -2.298   8.128  -1.418  0.00  0.00    -0.187 OA
ATOM     46  C   UNL     1      -4.347   6.863  -1.191  0.00  0.00    +0.062 C 
ATOM     47  C   UNL     1      -4.608   8.475  -1.246  0.00  0.00    +0.006 C 
ATOM     48  C   UNL     1      -0.345   6.722   2.080  0.00  0.00    +0.031 C 
ATOM     49  C   UNL     1       2.263   8.592  -0.417  0.00  0.00    +0.108 C 
ENDROOT
BRANCH  35  50
ATOM     50  O   UNL     1       6.085   4.912  -4.774  0.00  0.00    -0.343 OA
ATOM     51  C   UNL     1       4.688   4.835  -4.609  0.00  0.00    +0.175 C 
ENDBRANCH  35  50
BRANCH   1  52
ATOM     52  C   UNL     1       2.210  10.226   1.307  0.00  0.00    +0.041 C 
ATOM     53  C   UNL     1       1.165  10.474   2.523  0.00  0.00    +0.004 C 
BRANCH  52  54
ATOM     54  C   UNL     1       3.510   9.760   2.138  0.00  0.00    +0.004 C 
BRANCH  54  59
ATOM     55  C   UNL     1       5.382  12.645   0.880  0.00  0.00    +0.142 C 
ATOM     56  C   UNL     1       6.324  13.049   2.266  0.00  0.00    +0.142 C 
ATOM     57  C   UNL     1       5.728  11.943   3.300  0.00  0.00    +0.032 C 
ATOM     58  C   UNL     1       5.637  10.624   2.808  0.00  0.00    +0.003 C 
ATOM     59  C   UNL     1       4.766  10.506   1.441  0.00  0.00    +0.003 C 
ATOM     60  C   UNL     1       4.107  11.987   1.671  0.00  0.00    +0.032 C 
BRANCH  55  62
ATOM     61  C   UNL     1       4.370  14.119   0.248  0.00  0.00    +0.174 C 
ATOM     62  O   UNL     1       4.754  14.015   0.877  0.00  0.00    -0.351 OA
ENDBRANCH  55  62
BRANCH  56  63
ATOM     63  O   UNL     1       7.429  12.144   1.784  0.00  0.00    -0.351 OA
BRANCH  63  64
ATOM     64  C   UNL     1       8.089  11.641   2.854  0.00  0.00    +0.178 C 
BRANCH  64  65
ATOM     65  C   UNL     1       9.007  10.508   2.615  0.00  0.00    +0.214 C 
ATOM     66  O   UNL     1       9.411   9.818   3.742  0.00  0.00    -0.218 OA
ENDBRANCH  64  65
ENDBRANCH  63  64
ENDBRANCH  56  63
ENDBRANCH  54  59
ENDBRANCH  52  54
ENDBRANCH   1  52
BRANCH  20  67
ATOM     67  O   UNL     1      -2.286   4.899  -4.593  0.00  0.00    -0.349 OA
ATOM     68  C   UNL     1      -3.015   4.011  -3.837  0.00  0.00    +0.174 C 
ENDBRANCH  20  67
TORSDOF 9
ENDMDL
MODEL 6
REMARK VINA RESULT:      23.3      1.355      1.942
REMARK  Name = 
REMARK  9 active torsions:
REMARK  status: ('A' for Active; 'I' for Inactive)
REMARK    1  A    between atoms: O_2  and  C_3
REMARK    2  A    between atoms: C_5  and  C_6
REMARK    3  A    between atoms: C_6  and  C_7
REMARK    4  A    between atoms: C_7  and  C_9
REMARK    5  A    between atoms: C_20  and  O_21
REMARK    6  A    between atoms: C_37  and  O_38
REMARK    7  A    between atoms: C_64  and  O_65
REMARK    8  A    between atoms: O_65  and  C_66
REMARK    9  A    between atoms: C_66  and  C_67
REMARK                            x       y       z     vdW  Elec       q    Type
REMARK                         _______ _______ _______ _____ _____    ______ ____
ROOT
ATOM      1  C   UNL     1       4.744   5.871  -5.655  0.00  0.00    +0.176 C 
ATOM      2  O   UNL     1       3.593   4.899  -5.905  0.00  0.00    -0.451 OA
ATOM      3  C   UNL     1       3.009   5.000  -7.189  0.00  0.00    +0.335 C 
ATOM      4  O   UNL     1       2.491   3.926  -7.514  0.00  0.00    -0.248 OA
ATOM      5  C   UNL     1       1.996   6.205  -6.784  0.00  0.00    +0.175 C 
ATOM      6  N   UNL     1       1.033   6.188  -8.031  0.00  0.00    -0.265 N 
ATOM      7  C   UNL     1       1.398   5.972  -9.341  0.00  0.00    +0.094 C 
ATOM      8  C   UNL     1       2.844   5.973  -9.722  0.00  0.00    +0.022 C 
ATOM      9  C   UNL     1       3.436   6.908  -8.791  0.00  0.00    +0.004 C 
ATOM     10  C   UNL     1       0.193   7.317  -7.683  0.00  0.00    +0.289 C 
ATOM     11  O   UNL     1      -0.174   8.210  -8.513  0.00  0.00    -0.267 OA
ATOM     12  C   UNL     1      -0.283   7.310  -6.274  0.00  0.00    +0.279 C 
ATOM     13  O   UNL     1      -1.225   8.169  -6.101  0.00  0.00    -0.281 OA
ATOM     14  C   UNL     1      -0.532   6.034  -5.692  0.00  0.00    +0.279 C 
ATOM     15  O   UNL     1      -1.105   6.293  -4.408  0.00  0.00    -0.329 OA
ATOM     16  C   UNL     1      -1.233   4.903  -3.786  0.00  0.00    +0.121 C 
ATOM     17  C   UNL     1      -2.713   4.656  -4.454  0.00  0.00    +0.030 C 
ATOM     18  C   UNL     1      -2.979   5.534  -5.517  0.00  0.00    +0.008 C 
ATOM     19  C   UNL     1      -1.775   5.418  -2.332  0.00  0.00    +0.063 C 
ATOM     20  C   UNL     1      -3.107   6.310  -2.679  0.00  0.00    +0.136 C 
ATOM     21  C   UNL     1      -3.386   6.370  -1.085  0.00  0.00    -0.017 C 
ATOM     22  C   UNL     1      -3.969   5.019  -0.753  0.00  0.00    +0.029 C 
ATOM     23  C   UNL     1      -3.580   7.451  -0.463  0.00  0.00    -0.006 C 
ATOM     24  C   UNL     1      -2.647   8.168   0.422  0.00  0.00    -0.001 C 
ATOM     25  C   UNL     1      -1.407   8.136   0.049  0.00  0.00    -0.000 C 
ATOM     26  C   UNL     1      -0.631   9.339   0.390  0.00  0.00    -0.005 C 
ATOM     27  C   UNL     1      -0.463   9.507   1.688  0.00  0.00    -0.026 C 
ATOM     28  C   UNL     1      -0.216   8.138   2.488  0.00  0.00    +0.022 C 
ATOM     29  C   UNL     1      -1.135   8.623   3.750  0.00  0.00    +0.005 C 
ATOM     30  C   UNL     1       1.156   8.674   3.185  0.00  0.00    +0.012 C 
ATOM     31  C   UNL     1       2.203   8.647   1.928  0.00  0.00    +0.061 C 
ATOM     32  C   UNL     1       1.856   7.096   1.536  0.00  0.00    +0.008 C 
ATOM     33  C   UNL     1       3.431   8.237   2.859  0.00  0.00    +0.180 C 
ATOM     34  O   UNL     1       3.311   7.350   3.633  0.00  0.00    -0.293 OA
ATOM     35  C   UNL     1       4.871   8.441   2.178  0.00  0.00    +0.206 C 
ATOM     36  C   UNL     1       4.405   7.635   0.726  0.00  0.00    +0.204 C 
ATOM     37  O   UNL     1       4.812   6.295   1.294  0.00  0.00    -0.216 OA
ATOM     38  C   UNL     1       5.838   7.868   0.027  0.00  0.00    -0.015 C 
ATOM     39  C   UNL     1       7.043   7.666   0.845  0.00  0.00    +0.029 C 
ATOM     40  C   UNL     1       5.903   7.584  -1.276  0.00  0.00    -0.025 C 
ATOM     41  C   UNL     1       4.500   7.200  -1.971  0.00  0.00    +0.079 C 
ATOM     42  C   UNL     1       4.100   8.777  -2.176  0.00  0.00    +0.012 C 
ATOM     43  C   UNL     1       5.104   7.053  -3.455  0.00  0.00    +0.158 C 
ATOM     44  O   UNL     1       5.873   7.845  -3.851  0.00  0.00    -0.296 OA
ATOM     45  O   UNL     1       0.138   4.952  -5.422  0.00  0.00    -0.187 OA
ATOM     46  C   UNL     1      -1.827   5.646  -6.648  0.00  0.00    +0.062 C 
ATOM     47  C   UNL     1      -1.591   4.031  -6.706  0.00  0.00    +0.006 C 
ATOM     48  C   UNL     1       2.999   7.283  -7.520  0.00  0.00    +0.031 C 
ATOM     49  C   UNL     1       4.530   5.852  -4.036  0.00  0.00    +0.108 C 
ENDROOT
BRANCH  35  50
ATOM     50  O   UNL     1       4.534   9.791   1.588  0.00  0.00    -0.343 OA
ATOM     51  C   UNL     1       5.165  10.696   2.465  0.00  0.00    +0.175 C 
ENDBRANCH  35  50
BRANCH   1  52
ATOM     52  C   UNL     1       5.790   4.511  -5.538  0.00  0.00    +0.041 C 
ATOM     53  C   UNL     1       4.592   3.591  -4.946  0.00  0.00    +0.004 C 
BRANCH  52  54
ATOM     54  C   UNL     1       5.666   4.164  -7.108  0.00  0.00    +0.004 C 
BRANCH  54  59
ATOM     55  C   UNL     1       8.031   5.761  -9.405  0.00  0.00    +0.142 C 
ATOM     56  C   UNL     1       7.110   5.768 -10.862  0.00  0.00    +0.142 C 
ATOM     57  C   UNL     1       5.791   4.981 -10.326  0.00  0.00    +0.032 C 
ATOM     58  C   UNL     1       5.263   5.429  -9.096  0.00  0.00    +0.003 C 
ATOM     59  C   UNL     1       6.346   5.410  -7.885  0.00  0.00    +0.003 C 
ATOM     60  C   UNL     1       7.351   4.432  -8.729  0.00  0.00    +0.032 C 
BRANCH  55  62
ATOM     61  C   UNL     1       9.471   4.537  -9.557  0.00  0.00    +0.174 C 
ATOM     62  O   UNL     1       9.114   4.948 -10.065  0.00  0.00    -0.351 OA
ENDBRANCH  55  62
BRANCH  56  63
ATOM     63  O   UNL     1       6.560   7.127 -10.511  0.00  0.00    -0.351 OA
BRANCH  63  64
ATOM     64  C   UNL     1       6.201   7.768 -11.650  0.00  0.00    +0.178 C 
BRANCH  64  65
ATOM     65  C   UNL     1       6.660   7.186 -12.929  0.00  0.00    +0.214 C 
ATOM     66  O   UNL     1       5.663   6.764 -13.786  0.00  0.00    -0.218 OA
ENDBRANCH  64  65
ENDBRANCH  63  64
ENDBRANCH  56  63
ENDBRANCH  54  59
ENDBRANCH  52  54
ENDBRANCH   1  52
BRANCH  20  67
ATOM     67  O   UNL     1      -2.319   7.609  -2.701  0.00  0.00    -0.349 OA
ATOM     68  C   UNL     1      -2.786   8.339  -3.768  0.00  0.00    +0.174 C 
ENDBRANCH  20  67
TORSDOF 9
ENDMDL
MODEL 7
REMARK VINA RESULT:      23.8      2.388     10.482
REMARK  Name = 
REMARK  9 active torsions:
REMARK  status: ('A' for Active; 'I' for Inactive)
REMARK    1  A    between atoms: O_2  and  C_3
REMARK    2  A    between atoms: C_5  and  C_6
REMARK    3  A    between atoms: C_6  and  C_7
REMARK    4  A    between atoms: C_7  and  C_9
REMARK    5  A    between atoms: C_20  and  O_21
REMARK    6  A    between atoms: C_37  and  O_38
REMARK    7  A    between atoms: C_64  and  O_65
REMARK    8  A    between atoms: O_65  and  C_66
REMARK    9  A    between atoms: C_66  and  C_67
REMARK                            x       y       z     vdW  Elec       q    Type
REMARK                         _______ _______ _______ _____ _____    ______ ____
ROOT
ATOM      1  C   UNL     1       2.642   6.241  -6.069  0.00  0.00    +0.176 C 
ATOM      2  O   UNL     1       1.586   7.155  -6.687  0.00  0.00    -0.451 OA
ATOM      3  C   UNL     1       0.254   6.716  -6.507  0.00  0.00    +0.335 C 
ATOM      4  O   UNL     1      -0.526   7.675  -6.543  0.00  0.00    -0.248 OA
ATOM      5  C   UNL     1       0.259   5.731  -7.800  0.00  0.00    +0.175 C 
ATOM      6  N   UNL     1      -1.283   5.434  -7.927  0.00  0.00    -0.265 N 
ATOM      7  C   UNL     1      -2.167   5.244  -6.888  0.00  0.00    +0.094 C 
ATOM      8  C   UNL     1      -1.652   5.062  -5.496  0.00  0.00    +0.022 C 
ATOM      9  C   UNL     1      -0.377   4.407  -5.693  0.00  0.00    +0.004 C 
ATOM     10  C   UNL     1      -1.242   4.497  -9.033  0.00  0.00    +0.289 C 
ATOM     11  O   UNL     1      -1.922   3.422  -9.075  0.00  0.00    -0.267 OA
ATOM     12  C   UNL     1      -0.390   4.935 -10.170  0.00  0.00    +0.279 C 
ATOM     13  O   UNL     1      -0.603   4.210 -11.211  0.00  0.00    -0.281 OA
ATOM     14  C   UNL     1      -0.338   6.335 -10.425  0.00  0.00    +0.279 C 
ATOM     15  O   UNL     1       0.417   6.487 -11.630  0.00  0.00    -0.329 OA
ATOM     16  C   UNL     1       0.546   8.002 -11.783  0.00  0.00    +0.121 C 
ATOM     17  C   UNL     1      -0.877   8.118 -12.597  0.00  0.00    +0.030 C 
ATOM     18  C   UNL     1      -1.688   6.984 -12.430  0.00  0.00    +0.008 C 
ATOM     19  C   UNL     1       1.507   7.957 -13.105  0.00  0.00    +0.063 C 
ATOM     20  C   UNL     1       0.665   7.069 -14.199  0.00  0.00    +0.136 C 
ATOM     21  C   UNL     1       1.791   7.486 -15.286  0.00  0.00    -0.017 C 
ATOM     22  C   UNL     1       1.439   8.904 -15.668  0.00  0.00    +0.029 C 
ATOM     23  C   UNL     1       2.405   6.643 -15.995  0.00  0.00    -0.006 C 
ATOM     24  C   UNL     1       3.790   6.167 -15.842  0.00  0.00    -0.001 C 
ATOM     25  C   UNL     1       4.188   6.028 -14.618  0.00  0.00    -0.000 C 
ATOM     26  C   UNL     1       5.153   4.939 -14.404  0.00  0.00    -0.005 C 
ATOM     27  C   UNL     1       6.318   5.144 -14.988  0.00  0.00    -0.026 C 
ATOM     28  C   UNL     1       6.806   6.673 -14.931  0.00  0.00    +0.022 C 
ATOM     29  C   UNL     1       7.394   6.619 -16.455  0.00  0.00    +0.005 C 
ATOM     30  C   UNL     1       8.251   6.294 -14.281  0.00  0.00    +0.012 C 
ATOM     31  C   UNL     1       7.835   5.905 -12.746  0.00  0.00    +0.061 C 
ATOM     32  C   UNL     1       6.998   7.292 -12.509  0.00  0.00    +0.008 C 
ATOM     33  C   UNL     1       9.186   6.505 -12.146  0.00  0.00    +0.180 C 
ATOM     34  O   UNL     1       9.547   7.583 -12.475  0.00  0.00    -0.293 OA
ATOM     35  C   UNL     1       9.500   6.042 -10.641  0.00  0.00    +0.206 C 
ATOM     36  C   UNL     1       7.910   6.416 -10.091  0.00  0.00    +0.204 C 
ATOM     37  O   UNL     1       8.308   7.841  -9.785  0.00  0.00    -0.216 OA
ATOM     38  C   UNL     1       8.212   5.920  -8.588  0.00  0.00    -0.015 C 
ATOM     39  C   UNL     1       9.504   6.291  -7.989  0.00  0.00    +0.029 C 
ATOM     40  C   UNL     1       7.151   5.812  -7.785  0.00  0.00    -0.025 C 
ATOM     41  C   UNL     1       5.722   6.048  -8.493  0.00  0.00    +0.079 C 
ATOM     42  C   UNL     1       5.667   4.501  -9.034  0.00  0.00    +0.012 C 
ATOM     43  C   UNL     1       4.850   5.729  -7.180  0.00  0.00    +0.158 C 
ATOM     44  O   UNL     1       5.138   4.820  -6.497  0.00  0.00    -0.296 OA
ATOM     45  O   UNL     1       0.028   7.415  -9.797  0.00  0.00    -0.187 OA
ATOM     46  C   UNL     1      -1.914   6.493 -10.905  0.00  0.00    +0.062 C 
ATOM     47  C   UNL     1      -2.169   8.009 -10.352  0.00  0.00    +0.006 C 
ATOM     48  C   UNL     1       0.468   4.438  -6.803  0.00  0.00    +0.031 C 
ATOM     49  C   UNL     1       3.808   6.738  -7.101  0.00  0.00    +0.108 C 
ENDROOT
BRANCH  35  50
ATOM     50  O   UNL     1       9.126   4.598 -10.879  0.00  0.00    -0.343 OA
ATOM     51  C   UNL     1       9.679   3.930  -9.769  0.00  0.00    +0.175 C 
ENDBRANCH  35  50
BRANCH   1  52
ATOM     52  C   UNL     1       3.040   7.524  -4.995  0.00  0.00    +0.041 C 
ATOM     53  C   UNL     1       1.691   7.269  -4.129  0.00  0.00    +0.004 C 
BRANCH  52  54
ATOM     54  C   UNL     1       4.088   6.625  -4.162  0.00  0.00    +0.004 C 
BRANCH  54  59
ATOM     55  C   UNL     1       3.775   5.123  -0.835  0.00  0.00    +0.142 C 
ATOM     56  C   UNL     1       4.685   6.241   0.110  0.00  0.00    +0.142 C 
ATOM     57  C   UNL     1       5.188   7.224  -1.085  0.00  0.00    +0.032 C 
ATOM     58  C   UNL     1       4.197   7.640  -1.999  0.00  0.00    +0.003 C 
ATOM     59  C   UNL     1       3.415   6.404  -2.707  0.00  0.00    +0.003 C 
ATOM     60  C   UNL     1       4.573   5.341  -2.251  0.00  0.00    +0.032 C 
BRANCH  55  62
ATOM     61  C   UNL     1       4.519   3.379  -0.806  0.00  0.00    +0.174 C 
ATOM     62  O   UNL     1       4.686   3.996  -0.424  0.00  0.00    -0.351 OA
ENDBRANCH  55  62
BRANCH  56  63
ATOM     63  O   UNL     1       3.435   7.042   0.373  0.00  0.00    -0.351 OA
BRANCH  63  64
ATOM     64  C   UNL     1       3.624   7.810   1.473  0.00  0.00    +0.178 C 
BRANCH  64  65
ATOM     65  C   UNL     1       2.999   9.148   1.481  0.00  0.00    +0.214 C 
ATOM     66  O   UNL     1       2.098   9.394   0.463  0.00  0.00    -0.218 OA
ENDBRANCH  64  65
ENDBRANCH  63  64
ENDBRANCH  56  63
ENDBRANCH  54  59
ENDBRANCH  52  54
ENDBRANCH   1  52
BRANCH  20  67
ATOM     67  O   UNL     1       1.369   5.782 -13.802  0.00  0.00    -0.349 OA
ATOM     68  C   UNL     1       0.621   4.747 -14.311  0.00  0.00    +0.174 C 
ENDBRANCH  20  67
TORSDOF 9
ENDMDL
