MODEL 1
REMARK VINA RESULT:      -7.4      0.000      0.000
REMARK  Name = 
REMARK  6 active torsions:
REMARK  status: ('A' for Active; 'I' for Inactive)
REMARK    1  A    between atoms: C_2  and  N_5
REMARK    2  A    between atoms: N_5  and  C_6
REMARK    3  A    between atoms: C_6  and  C_7
REMARK    4  A    between atoms: C_7  and  C_9
REMARK    5  A    between atoms: C_9  and  O_10
REMARK    6  A    between atoms: O_10  and  C_11
REMARK                            x       y       z     vdW  Elec       q    Type
REMARK                         _______ _______ _______ _____ _____    ______ ____
ROOT
ATOM      1  C   UNL     1       4.544   5.268  -8.884  0.00  0.00    +0.136 A 
ATOM      2  C   UNL     1       5.382   5.784  -9.870  0.00  0.00    +0.028 A 
ATOM      3  C   UNL     1       6.806   5.906  -9.488  0.00  0.00    +0.040 C 
ATOM      4  C   UNL     1       7.741   5.985 -10.654  0.00  0.00    +0.092 C 
ATOM      5  C   UNL     1       7.150   5.422 -11.885  0.00  0.00    +0.246 C 
ATOM      6  N   UNL     1       5.832   5.879 -12.215  0.00  0.00    -0.179 NA
ATOM      7  O   UNL     1       7.748   4.522 -12.519  0.00  0.00    -0.273 OA
ATOM      8  C   UNL     1       4.905   6.080 -11.140  0.00  0.00    +0.072 A 
ATOM      9  C   UNL     1       3.530   5.985 -11.321  0.00  0.00    +0.016 A 
ATOM     10  C   UNL     1       2.715   5.349 -10.390  0.00  0.00    +0.004 A 
ATOM     11  C   UNL     1       3.318   4.758  -9.281  0.00  0.00    +0.037 A 
ENDROOT
BRANCH   1  12
ATOM     12  O   UNL     1       4.847   5.564  -7.548  0.00  0.00    -0.473 OA
BRANCH  12  13
ATOM     13  C   UNL     1       3.874   5.498  -6.568  0.00  0.00    +0.239 C 
BRANCH  13  14
ATOM     14  C   UNL     1       3.076   6.941  -6.559  0.00  0.00    +0.213 C 
ATOM     15  O   UNL     1       3.883   7.461  -5.380  0.00  0.00    -0.218 OA
BRANCH  14  16
ATOM     16  C   UNL     1       1.873   6.359  -5.591  0.00  0.00    +0.125 C 
BRANCH  16  17
ATOM     17  N   UNL     1       0.648   6.665  -6.203  0.00  0.00    -0.218 NA
BRANCH  17  19
ATOM     18  C   UNL     1       0.051   5.092  -6.252  0.00  0.00    +0.017 C 
ATOM     19  C   UNL     1      -0.230   5.592  -6.555  0.00  0.00    +0.060 C 
ATOM     20  C   UNL     1      -0.180   5.456  -8.075  0.00  0.00    +0.017 C 
ATOM     21  C   UNL     1      -1.678   5.785  -6.197  0.00  0.00    +0.017 C 
ENDBRANCH  17  19
ENDBRANCH  16  17
ENDBRANCH  14  16
ENDBRANCH  13  14
ENDBRANCH  12  13
ENDBRANCH   1  12
TORSDOF 6
ENDMDL
MODEL 2
REMARK VINA RESULT:      -7.2      4.313      6.173
REMARK  Name = 
REMARK  6 active torsions:
REMARK  status: ('A' for Active; 'I' for Inactive)
REMARK    1  A    between atoms: C_2  and  N_5
REMARK    2  A    between atoms: N_5  and  C_6
REMARK    3  A    between atoms: C_6  and  C_7
REMARK    4  A    between atoms: C_7  and  C_9
REMARK    5  A    between atoms: C_9  and  O_10
REMARK    6  A    between atoms: O_10  and  C_11
REMARK                            x       y       z     vdW  Elec       q    Type
REMARK                         _______ _______ _______ _____ _____    ______ ____
ROOT
ATOM      1  C   UNL     1       2.681   6.851  -3.145  0.00  0.00    +0.136 A 
ATOM      2  C   UNL     1       2.738   6.581  -4.510  0.00  0.00    +0.028 A 
ATOM      3  C   UNL     1       1.471   6.117  -5.116  0.00  0.00    +0.040 C 
ATOM      4  C   UNL     1       1.407   6.298  -6.600  0.00  0.00    +0.092 C 
ATOM      5  C   UNL     1       2.346   7.332  -7.079  0.00  0.00    +0.246 C 
ATOM      6  N   UNL     1       3.694   7.225  -6.604  0.00  0.00    -0.179 NA
ATOM      7  O   UNL     1       1.932   8.290  -7.772  0.00  0.00    -0.273 OA
ATOM      8  C   UNL     1       3.894   6.815  -5.244  0.00  0.00    +0.072 A 
ATOM      9  C   UNL     1       5.023   7.177  -4.520  0.00  0.00    +0.016 A 
ATOM     10  C   UNL     1       4.938   7.575  -3.189  0.00  0.00    +0.004 A 
ATOM     11  C   UNL     1       3.677   7.650  -2.603  0.00  0.00    +0.037 A 
ENDROOT
BRANCH   1  12
ATOM     12  O   UNL     1       1.820   6.074  -2.359  0.00  0.00    -0.473 OA
BRANCH  12  13
ATOM     13  C   UNL     1       1.357   6.537  -1.141  0.00  0.00    +0.239 C 
BRANCH  13  14
ATOM     14  C   UNL     1      -0.028   5.715  -0.789  0.00  0.00    +0.213 C 
ATOM     15  O   UNL     1       0.429   4.477  -1.543  0.00  0.00    -0.218 OA
BRANCH  14  16
ATOM     16  C   UNL     1      -0.819   6.330  -2.100  0.00  0.00    +0.125 C 
BRANCH  16  17
ATOM     17  N   UNL     1      -1.626   5.310  -2.627  0.00  0.00    -0.218 NA
BRANCH  17  19
ATOM     18  C   UNL     1      -3.012   5.092  -3.556  0.00  0.00    +0.017 C 
ATOM     19  C   UNL     1      -2.789   5.674  -3.376  0.00  0.00    +0.060 C 
ATOM     20  C   UNL     1      -2.314   6.510  -4.561  0.00  0.00    +0.017 C 
ATOM     21  C   UNL     1      -3.802   6.514  -2.647  0.00  0.00    +0.017 C 
ENDBRANCH  17  19
ENDBRANCH  16  17
ENDBRANCH  14  16
ENDBRANCH  13  14
ENDBRANCH  12  13
ENDBRANCH   1  12
TORSDOF 6
ENDMDL
MODEL 3
REMARK VINA RESULT:      -7.1      2.910      7.747
REMARK  Name = 
REMARK  6 active torsions:
REMARK  status: ('A' for Active; 'I' for Inactive)
REMARK    1  A    between atoms: C_2  and  N_5
REMARK    2  A    between atoms: N_5  and  C_6
REMARK    3  A    between atoms: C_6  and  C_7
REMARK    4  A    between atoms: C_7  and  C_9
REMARK    5  A    between atoms: C_9  and  O_10
REMARK    6  A    between atoms: O_10  and  C_11
REMARK                            x       y       z     vdW  Elec       q    Type
REMARK                         _______ _______ _______ _____ _____    ______ ____
ROOT
ATOM      1  C   UNL     1       0.114   5.104  -6.605  0.00  0.00    +0.136 A 
ATOM      2  C   UNL     1      -0.482   5.685  -5.488  0.00  0.00    +0.028 A 
ATOM      3  C   UNL     1      -1.890   6.103  -5.670  0.00  0.00    +0.040 C 
ATOM      4  C   UNL     1      -2.646   6.260  -4.387  0.00  0.00    +0.092 C 
ATOM      5  C   UNL     1      -2.034   5.497  -3.280  0.00  0.00    +0.246 C 
ATOM      6  N   UNL     1      -0.622   5.670  -3.102  0.00  0.00    -0.179 NA
ATOM      7  O   UNL     1      -2.717   4.676  -2.625  0.00  0.00    -0.273 OA
ATOM      8  C   UNL     1       0.192   5.781  -4.278  0.00  0.00    +0.072 A 
ATOM      9  C   UNL     1       1.533   5.416  -4.287  0.00  0.00    +0.016 A 
ATOM     10  C   UNL     1       2.090   4.716  -5.353  0.00  0.00    +0.004 A 
ATOM     11  C   UNL     1       1.255   4.342  -6.403  0.00  0.00    +0.037 A 
ENDROOT
BRANCH   1  12
ATOM     12  O   UNL     1      -0.281   5.560  -7.870  0.00  0.00    -0.473 OA
BRANCH  12  13
ATOM     13  C   UNL     1       0.553   5.430  -8.964  0.00  0.00    +0.239 C 
BRANCH  13  14
ATOM     14  C   UNL     1       1.289   6.886  -9.206  0.00  0.00    +0.213 C 
ATOM     15  O   UNL     1       0.495   7.157 -10.474  0.00  0.00    -0.218 OA
BRANCH  14  16
ATOM     16  C   UNL     1       2.543   6.203 -10.033  0.00  0.00    +0.125 C 
BRANCH  16  17
ATOM     17  N   UNL     1       3.724   6.496  -9.334  0.00  0.00    -0.218 NA
BRANCH  17  19
ATOM     18  C   UNL     1       4.428   4.977  -9.502  0.00  0.00    +0.017 C 
ATOM     19  C   UNL     1       4.727   5.482  -9.227  0.00  0.00    +0.060 C 
ATOM     20  C   UNL     1       4.985   5.266  -7.737  0.00  0.00    +0.017 C 
ATOM     21  C   UNL     1       6.060   5.810  -9.841  0.00  0.00    +0.017 C 
ENDBRANCH  17  19
ENDBRANCH  16  17
ENDBRANCH  14  16
ENDBRANCH  13  14
ENDBRANCH  12  13
ENDBRANCH   1  12
TORSDOF 6
ENDMDL
MODEL 4
REMARK VINA RESULT:      -7.0      2.496      3.848
REMARK  Name = 
REMARK  6 active torsions:
REMARK  status: ('A' for Active; 'I' for Inactive)
REMARK    1  A    between atoms: C_2  and  N_5
REMARK    2  A    between atoms: N_5  and  C_6
REMARK    3  A    between atoms: C_6  and  C_7
REMARK    4  A    between atoms: C_7  and  C_9
REMARK    5  A    between atoms: C_9  and  O_10
REMARK    6  A    between atoms: O_10  and  C_11
REMARK                            x       y       z     vdW  Elec       q    Type
REMARK                         _______ _______ _______ _____ _____    ______ ____
ROOT
ATOM      1  C   UNL     1       5.513   5.645 -10.802  0.00  0.00    +0.136 A 
ATOM      2  C   UNL     1       5.778   5.584 -12.168  0.00  0.00    +0.028 A 
ATOM      3  C   UNL     1       4.592   5.683 -13.047  0.00  0.00    +0.040 C 
ATOM      4  C   UNL     1       4.910   6.100 -14.449  0.00  0.00    +0.092 C 
ATOM      5  C   UNL     1       6.203   6.807 -14.543  0.00  0.00    +0.246 C 
ATOM      6  N   UNL     1       7.316   6.172 -13.901  0.00  0.00    -0.179 NA
ATOM      7  O   UNL     1       6.265   7.944 -15.066  0.00  0.00    -0.273 OA
ATOM      8  C   UNL     1       7.080   5.515 -12.648  0.00  0.00    +0.072 A 
ATOM      9  C   UNL     1       8.081   5.351 -11.698  0.00  0.00    +0.016 A 
ATOM     10  C   UNL     1       7.836   5.545 -10.341  0.00  0.00    +0.004 A 
ATOM     11  C   UNL     1       6.564   5.960  -9.954  0.00  0.00    +0.037 A 
ENDROOT
BRANCH   1  12
ATOM     12  O   UNL     1       4.305   5.101 -10.345  0.00  0.00    -0.473 OA
BRANCH  12  13
ATOM     13  C   UNL     1       3.854   5.351  -9.062  0.00  0.00    +0.239 C 
BRANCH  13  14
ATOM     14  C   UNL     1       3.158   6.847  -9.061  0.00  0.00    +0.213 C 
ATOM     15  O   UNL     1       3.131   6.911  -7.542  0.00  0.00    -0.218 OA
BRANCH  14  16
ATOM     16  C   UNL     1       1.633   6.223  -9.149  0.00  0.00    +0.125 C 
BRANCH  16  17
ATOM     17  N   UNL     1       0.872   7.072  -9.966  0.00  0.00    -0.218 NA
BRANCH  17  19
ATOM     18  C   UNL     1      -0.305   6.838 -11.145  0.00  0.00    +0.017 C 
ATOM     19  C   UNL     1       0.265   6.530 -11.142  0.00  0.00    +0.060 C 
ATOM     20  C   UNL     1       0.116   5.028 -10.915  0.00  0.00    +0.017 C 
ATOM     21  C   UNL     1       1.049   6.687 -12.416  0.00  0.00    +0.017 C 
ENDBRANCH  17  19
ENDBRANCH  16  17
ENDBRANCH  14  16
ENDBRANCH  13  14
ENDBRANCH  12  13
ENDBRANCH   1  12
TORSDOF 6
ENDMDL
MODEL 5
REMARK VINA RESULT:      -7.0      1.693      6.598
REMARK  Name = 
REMARK  6 active torsions:
REMARK  status: ('A' for Active; 'I' for Inactive)
REMARK    1  A    between atoms: C_2  and  N_5
REMARK    2  A    between atoms: N_5  and  C_6
REMARK    3  A    between atoms: C_6  and  C_7
REMARK    4  A    between atoms: C_7  and  C_9
REMARK    5  A    between atoms: C_9  and  O_10
REMARK    6  A    between atoms: O_10  and  C_11
REMARK                            x       y       z     vdW  Elec       q    Type
REMARK                         _______ _______ _______ _____ _____    ______ ____
ROOT
ATOM      1  C   UNL     1       2.430   6.004 -10.265  0.00  0.00    +0.136 A 
ATOM      2  C   UNL     1       2.660   5.687  -8.929  0.00  0.00    +0.028 A 
ATOM      3  C   UNL     1       4.084   5.629  -8.530  0.00  0.00    +0.040 C 
ATOM      4  C   UNL     1       4.307   5.774  -7.057  0.00  0.00    +0.092 C 
ATOM      5  C   UNL     1       3.174   6.440  -6.382  0.00  0.00    +0.246 C 
ATOM      6  N   UNL     1       1.871   5.927  -6.685  0.00  0.00    -0.179 NA
ATOM      7  O   UNL     1       3.369   7.458  -5.678  0.00  0.00    -0.273 OA
ATOM      8  C   UNL     1       1.611   5.518  -8.035  0.00  0.00    +0.072 A 
ATOM      9  C   UNL     1       0.331   5.526  -8.577  0.00  0.00    +0.016 A 
ATOM     10  C   UNL     1       0.092   5.973  -9.873  0.00  0.00    +0.004 A 
ATOM     11  C   UNL     1       1.167   6.463 -10.610  0.00  0.00    +0.037 A 
ENDROOT
BRANCH   1  12
ATOM     12  O   UNL     1       3.364   5.566 -11.213  0.00  0.00    -0.473 OA
BRANCH  12  13
ATOM     13  C   UNL     1       3.248   5.925 -12.543  0.00  0.00    +0.239 C 
BRANCH  13  14
ATOM     14  C   UNL     1       4.736   5.762 -13.235  0.00  0.00    +0.213 C 
ATOM     15  O   UNL     1       4.461   4.327 -13.658  0.00  0.00    -0.218 OA
BRANCH  14  16
ATOM     16  C   UNL     1       5.434   5.301 -11.813  0.00  0.00    +0.125 C 
BRANCH  16  17
ATOM     17  N   UNL     1       6.824   5.417 -11.963  0.00  0.00    -0.218 NA
BRANCH  17  19
ATOM     18  C   UNL     1       8.120   6.325 -11.390  0.00  0.00    +0.017 C 
ATOM     19  C   UNL     1       7.531   6.329 -11.118  0.00  0.00    +0.060 C 
ATOM     20  C   UNL     1       7.533   5.726  -9.714  0.00  0.00    +0.017 C 
ATOM     21  C   UNL     1       6.931   7.701 -10.985  0.00  0.00    +0.017 C 
ENDBRANCH  17  19
ENDBRANCH  16  17
ENDBRANCH  14  16
ENDBRANCH  13  14
ENDBRANCH  12  13
ENDBRANCH   1  12
TORSDOF 6
ENDMDL
MODEL 6
REMARK VINA RESULT:      -6.9      2.077      3.198
REMARK  Name = 
REMARK  6 active torsions:
REMARK  status: ('A' for Active; 'I' for Inactive)
REMARK    1  A    between atoms: C_2  and  N_5
REMARK    2  A    between atoms: N_5  and  C_6
REMARK    3  A    between atoms: C_6  and  C_7
REMARK    4  A    between atoms: C_7  and  C_9
REMARK    5  A    between atoms: C_9  and  O_10
REMARK    6  A    between atoms: O_10  and  C_11
REMARK                            x       y       z     vdW  Elec       q    Type
REMARK                         _______ _______ _______ _____ _____    ______ ____
ROOT
ATOM      1  C   UNL     1       5.518   5.599 -10.512  0.00  0.00    +0.136 A 
ATOM      2  C   UNL     1       5.801   5.515 -11.874  0.00  0.00    +0.028 A 
ATOM      3  C   UNL     1       4.623   5.580 -12.768  0.00  0.00    +0.040 C 
ATOM      4  C   UNL     1       4.952   5.974 -14.174  0.00  0.00    +0.092 C 
ATOM      5  C   UNL     1       6.237   6.697 -14.267  0.00  0.00    +0.246 C 
ATOM      6  N   UNL     1       7.350   6.089 -13.600  0.00  0.00    -0.179 NA
ATOM      7  O   UNL     1       6.289   7.824 -14.812  0.00  0.00    -0.273 OA
ATOM      8  C   UNL     1       7.108   5.454 -12.337  0.00  0.00    +0.072 A 
ATOM      9  C   UNL     1       8.100   5.322 -11.373  0.00  0.00    +0.016 A 
ATOM     10  C   UNL     1       7.837   5.540 -10.024  0.00  0.00    +0.004 A 
ATOM     11  C   UNL     1       6.555   5.944  -9.659  0.00  0.00    +0.037 A 
ENDROOT
BRANCH   1  12
ATOM     12  O   UNL     1       4.313   5.048 -10.058  0.00  0.00    -0.473 OA
BRANCH  12  13
ATOM     13  C   UNL     1       4.194   4.565  -8.768  0.00  0.00    +0.239 C 
BRANCH  13  14
ATOM     14  C   UNL     1       2.723   3.830  -8.644  0.00  0.00    +0.213 C 
ATOM     15  O   UNL     1       2.088   4.771  -9.655  0.00  0.00    -0.218 OA
BRANCH  14  16
ATOM     16  C   UNL     1       2.276   4.766  -7.360  0.00  0.00    +0.125 C 
BRANCH  16  17
ATOM     17  N   UNL     1       0.931   5.121  -7.539  0.00  0.00    -0.218 NA
BRANCH  17  19
ATOM     18  C   UNL     1       0.290   4.860  -6.006  0.00  0.00    +0.017 C 
ATOM     19  C   UNL     1       0.125   5.361  -6.383  0.00  0.00    +0.060 C 
ATOM     20  C   UNL     1      -1.333   5.299  -6.834  0.00  0.00    +0.017 C 
ATOM     21  C   UNL     1       0.305   6.702  -5.725  0.00  0.00    +0.017 C 
ENDBRANCH  17  19
ENDBRANCH  16  17
ENDBRANCH  14  16
ENDBRANCH  13  14
ENDBRANCH  12  13
ENDBRANCH   1  12
TORSDOF 6
ENDMDL
MODEL 7
REMARK VINA RESULT:      -6.9      2.057      3.164
REMARK  Name = 
REMARK  6 active torsions:
REMARK  status: ('A' for Active; 'I' for Inactive)
REMARK    1  A    between atoms: C_2  and  N_5
REMARK    2  A    between atoms: N_5  and  C_6
REMARK    3  A    between atoms: C_6  and  C_7
REMARK    4  A    between atoms: C_7  and  C_9
REMARK    5  A    between atoms: C_9  and  O_10
REMARK    6  A    between atoms: O_10  and  C_11
REMARK                            x       y       z     vdW  Elec       q    Type
REMARK                         _______ _______ _______ _____ _____    ______ ____
ROOT
ATOM      1  C   UNL     1       4.341   5.163  -8.991  0.00  0.00    +0.136 A 
ATOM      2  C   UNL     1       5.294   5.716  -9.844  0.00  0.00    +0.028 A 
ATOM      3  C   UNL     1       6.688   5.662  -9.353  0.00  0.00    +0.040 C 
ATOM      4  C   UNL     1       7.716   5.796 -10.433  0.00  0.00    +0.092 C 
ATOM      5  C   UNL     1       7.180   5.442 -11.763  0.00  0.00    +0.246 C 
ATOM      6  N   UNL     1       5.934   6.053 -12.122  0.00  0.00    -0.179 NA
ATOM      7  O   UNL     1       7.751   4.575 -12.464  0.00  0.00    -0.273 OA
ATOM      8  C   UNL     1       4.944   6.206 -11.095  0.00  0.00    +0.072 A 
ATOM      9  C   UNL     1       3.585   6.259 -11.380  0.00  0.00    +0.016 A 
ATOM     10  C   UNL     1       2.649   5.591 -10.596  0.00  0.00    +0.004 A 
ATOM     11  C   UNL     1       3.113   4.818  -9.533  0.00  0.00    +0.037 A 
ENDROOT
BRANCH   1  12
ATOM     12  O   UNL     1       4.560   5.266  -7.610  0.00  0.00    -0.473 OA
BRANCH  12  13
ATOM     13  C   UNL     1       3.614   5.841  -6.782  0.00  0.00    +0.239 C 
BRANCH  13  14
ATOM     14  C   UNL     1       3.099   4.679  -5.732  0.00  0.00    +0.213 C 
ATOM     15  O   UNL     1       1.698   4.665  -6.323  0.00  0.00    -0.218 OA
BRANCH  14  16
ATOM     16  C   UNL     1       2.696   5.789  -4.579  0.00  0.00    +0.125 C 
BRANCH  16  17
ATOM     17  N   UNL     1       3.800   5.937  -3.726  0.00  0.00    -0.218 NA
BRANCH  17  19
ATOM     18  C   UNL     1       3.573   7.562  -3.352  0.00  0.00    +0.017 C 
ATOM     19  C   UNL     1       4.130   7.246  -3.253  0.00  0.00    +0.060 C 
ATOM     20  C   UNL     1       5.263   7.767  -4.135  0.00  0.00    +0.017 C 
ATOM     21  C   UNL     1       4.630   7.324  -1.836  0.00  0.00    +0.017 C 
ENDBRANCH  17  19
ENDBRANCH  16  17
ENDBRANCH  14  16
ENDBRANCH  13  14
ENDBRANCH  12  13
ENDBRANCH   1  12
TORSDOF 6
ENDMDL
MODEL 8
REMARK VINA RESULT:      -6.9      2.818      7.031
REMARK  Name = 
REMARK  6 active torsions:
REMARK  status: ('A' for Active; 'I' for Inactive)
REMARK    1  A    between atoms: C_2  and  N_5
REMARK    2  A    between atoms: N_5  and  C_6
REMARK    3  A    between atoms: C_6  and  C_7
REMARK    4  A    between atoms: C_7  and  C_9
REMARK    5  A    between atoms: C_9  and  O_10
REMARK    6  A    between atoms: O_10  and  C_11
REMARK                            x       y       z     vdW  Elec       q    Type
REMARK                         _______ _______ _______ _____ _____    ______ ____
ROOT
ATOM      1  C   UNL     1       1.279   4.927  -6.349  0.00  0.00    +0.136 A 
ATOM      2  C   UNL     1       0.143   5.637  -5.966  0.00  0.00    +0.028 A 
ATOM      3  C   UNL     1      -1.027   5.483  -6.858  0.00  0.00    +0.040 C 
ATOM      4  C   UNL     1      -2.332   5.828  -6.209  0.00  0.00    +0.092 C 
ATOM      5  C   UNL     1      -2.262   5.748  -4.736  0.00  0.00    +0.246 C 
ATOM      6  N   UNL     1      -1.157   6.421  -4.120  0.00  0.00    -0.179 NA
ATOM      7  O   UNL     1      -3.077   5.037  -4.103  0.00  0.00    -0.273 OA
ATOM      8  C   UNL     1       0.113   6.367  -4.786  0.00  0.00    +0.072 A 
ATOM      9  C   UNL     1       1.315   6.479  -4.097  0.00  0.00    +0.016 A 
ATOM     10  C   UNL     1       2.405   5.669  -4.399  0.00  0.00    +0.004 A 
ATOM     11  C   UNL     1       2.252   4.699  -5.387  0.00  0.00    +0.037 A 
ENDROOT
BRANCH   1  12
ATOM     12  O   UNL     1       1.511   4.752  -7.720  0.00  0.00    -0.473 OA
BRANCH  12  13
ATOM     13  C   UNL     1       2.519   3.919  -8.169  0.00  0.00    +0.239 C 
BRANCH  13  14
ATOM     14  C   UNL     1       3.362   4.735  -9.328  0.00  0.00    +0.213 C 
ATOM     15  O   UNL     1       4.203   5.471  -8.298  0.00  0.00    -0.218 OA
BRANCH  14  16
ATOM     16  C   UNL     1       2.240   5.943  -9.404  0.00  0.00    +0.125 C 
BRANCH  16  17
ATOM     17  N   UNL     1       1.820   6.051 -10.738  0.00  0.00    -0.218 NA
BRANCH  17  19
ATOM     18  C   UNL     1       0.201   6.387 -10.426  0.00  0.00    +0.017 C 
ATOM     19  C   UNL     1       0.424   6.209 -11.008  0.00  0.00    +0.060 C 
ATOM     20  C   UNL     1      -0.103   4.843 -11.443  0.00  0.00    +0.017 C 
ATOM     21  C   UNL     1       0.075   7.166 -12.114  0.00  0.00    +0.017 C 
ENDBRANCH  17  19
ENDBRANCH  16  17
ENDBRANCH  14  16
ENDBRANCH  13  14
ENDBRANCH  12  13
ENDBRANCH   1  12
TORSDOF 6
ENDMDL
MODEL 9
REMARK VINA RESULT:      -6.9      1.920      7.042
REMARK  Name = 
REMARK  6 active torsions:
REMARK  status: ('A' for Active; 'I' for Inactive)
REMARK    1  A    between atoms: C_2  and  N_5
REMARK    2  A    between atoms: N_5  and  C_6
REMARK    3  A    between atoms: C_6  and  C_7
REMARK    4  A    between atoms: C_7  and  C_9
REMARK    5  A    between atoms: C_9  and  O_10
REMARK    6  A    between atoms: O_10  and  C_11
REMARK                            x       y       z     vdW  Elec       q    Type
REMARK                         _______ _______ _______ _____ _____    ______ ____
ROOT
ATOM      1  C   UNL     1       2.776   4.937  -7.462  0.00  0.00    +0.136 A 
ATOM      2  C   UNL     1       1.609   5.631  -7.154  0.00  0.00    +0.028 A 
ATOM      3  C   UNL     1       0.365   5.055  -7.711  0.00  0.00    +0.040 C 
ATOM      4  C   UNL     1      -0.877   5.494  -7.001  0.00  0.00    +0.092 C 
ATOM      5  C   UNL     1      -0.600   5.967  -5.630  0.00  0.00    +0.246 C 
ATOM      6  N   UNL     1       0.465   6.917  -5.495  0.00  0.00    -0.179 NA
ATOM      7  O   UNL     1      -1.207   5.468  -4.654  0.00  0.00    -0.273 OA
ATOM      8  C   UNL     1       1.627   6.738  -6.316  0.00  0.00    +0.072 A 
ATOM      9  C   UNL     1       2.881   7.204  -5.935  0.00  0.00    +0.016 A 
ATOM     10  C   UNL     1       4.030   6.443  -6.127  0.00  0.00    +0.004 A 
ATOM     11  C   UNL     1       3.892   5.168  -6.672  0.00  0.00    +0.037 A 
ENDROOT
BRANCH   1  12
ATOM     12  O   UNL     1       2.846   4.292  -8.704  0.00  0.00    -0.473 OA
BRANCH  12  13
ATOM     13  C   UNL     1       3.816   4.633  -9.628  0.00  0.00    +0.239 C 
BRANCH  13  14
ATOM     14  C   UNL     1       3.327   6.019 -10.376  0.00  0.00    +0.213 C 
ATOM     15  O   UNL     1       3.713   5.498 -11.751  0.00  0.00    -0.218 OA
BRANCH  14  16
ATOM     16  C   UNL     1       4.788   6.752 -10.147  0.00  0.00    +0.125 C 
BRANCH  16  17
ATOM     17  N   UNL     1       5.773   5.754 -10.170  0.00  0.00    -0.218 NA
BRANCH  17  19
ATOM     18  C   UNL     1       7.376   6.091  -9.785  0.00  0.00    +0.017 C 
ATOM     19  C   UNL     1       7.134   6.138 -10.384  0.00  0.00    +0.060 C 
ATOM     20  C   UNL     1       7.116   7.577 -10.896  0.00  0.00    +0.017 C 
ATOM     21  C   UNL     1       7.888   5.337 -11.410  0.00  0.00    +0.017 C 
ENDBRANCH  17  19
ENDBRANCH  16  17
ENDBRANCH  14  16
ENDBRANCH  13  14
ENDBRANCH  12  13
ENDBRANCH   1  12
TORSDOF 6
ENDMDL
