MODEL 1
REMARK VINA RESULT:      -6.7      0.000      0.000
REMARK  Name = 
REMARK  7 active torsions:
REMARK  status: ('A' for Active; 'I' for Inactive)
REMARK    1  A    between atoms: C_2  and  C_3
REMARK    2  A    between atoms: C_3  and  N_4
REMARK    3  A    between atoms: N_4  and  C_5
REMARK    4  A    between atoms: N_4  and  S_8
REMARK    5  A    between atoms: C_5  and  C_6
REMARK    6  A    between atoms: S_8  and  C_11
REMARK    7  A    between atoms: C_14  and  C_15
REMARK                            x       y       z     vdW  Elec       q    Type
REMARK                         _______ _______ _______ _____ _____    ______ ____
ROOT
ATOM      1  S   UNL     1       1.606   5.776  -6.923  0.00  0.00    +0.063 S 
ATOM      2  O   UNL     1       2.335   7.088  -7.114  0.00  0.00    -0.153 OA
ATOM      3  O   UNL     1       2.411   4.992  -5.914  0.00  0.00    -0.153 OA
ENDROOT
BRANCH   1   4
ATOM      4  C   UNL     1       0.017   6.153  -6.323  0.00  0.00    +0.122 A 
ATOM      5  C   UNL     1      -1.119   5.462  -6.660  0.00  0.00    +0.020 A 
ATOM      6  C   UNL     1      -2.232   5.446  -5.828  0.00  0.00    +0.008 A 
ATOM      7  C   UNL     1      -2.130   5.922  -4.544  0.00  0.00    +0.080 A 
ATOM      8  C   UNL     1      -1.092   6.784  -4.256  0.00  0.00    +0.008 A 
ATOM      9  C   UNL     1      -0.046   6.877  -5.138  0.00  0.00    +0.020 A 
BRANCH   7  10
ATOM     10  C   UNL     1      -3.106   5.623  -3.492  0.00  0.00    +0.388 C 
ATOM     11  O   UNL     1      -2.736   4.599  -2.613  0.00  0.00    -0.241 OA
ATOM     12  O   UNL     1      -3.728   6.587  -2.950  0.00  0.00    -0.241 OA
ENDBRANCH   7  10
ENDBRANCH   1   4
BRANCH   1  13
ATOM     13  N   UNL     1       1.579   4.907  -8.395  0.00  0.00    -0.156 NA
BRANCH  13  14
ATOM     14  C   UNL     1       1.552   5.778  -9.549  0.00  0.00    +0.096 C 
BRANCH  14  16
ATOM     15  C   UNL     1      -0.040   4.633 -11.067  0.00  0.00    +0.002 C 
ATOM     16  C   UNL     1       0.171   5.814 -10.157  0.00  0.00    +0.019 C 
ENDBRANCH  14  16
ENDBRANCH  13  14
BRANCH  13  17
ATOM     17  C   UNL     1       2.745   4.043  -8.557  0.00  0.00    +0.096 C 
BRANCH  17  18
ATOM     18  C   UNL     1       3.726   4.847  -9.404  0.00  0.00    +0.019 C 
ATOM     19  C   UNL     1       4.983   4.994  -8.556  0.00  0.00    +0.002 C 
ENDBRANCH  17  18
ENDBRANCH  13  17
ENDBRANCH   1  13
TORSDOF 7
ENDMDL
MODEL 2
REMARK VINA RESULT:      -6.6      3.385      7.670
REMARK  Name = 
REMARK  7 active torsions:
REMARK  status: ('A' for Active; 'I' for Inactive)
REMARK    1  A    between atoms: C_2  and  C_3
REMARK    2  A    between atoms: C_3  and  N_4
REMARK    3  A    between atoms: N_4  and  C_5
REMARK    4  A    between atoms: N_4  and  S_8
REMARK    5  A    between atoms: C_5  and  C_6
REMARK    6  A    between atoms: S_8  and  C_11
REMARK    7  A    between atoms: C_14  and  C_15
REMARK                            x       y       z     vdW  Elec       q    Type
REMARK                         _______ _______ _______ _____ _____    ______ ____
ROOT
ATOM      1  S   UNL     1       2.453   5.172  -8.832  0.00  0.00    +0.063 S 
ATOM      2  O   UNL     1       1.781   4.863 -10.151  0.00  0.00    -0.153 OA
ATOM      3  O   UNL     1       2.518   3.865  -8.078  0.00  0.00    -0.153 OA
ENDROOT
BRANCH   1   4
ATOM      4  C   UNL     1       4.041   5.784  -9.195  0.00  0.00    +0.122 A 
ATOM      5  C   UNL     1       5.188   5.376  -8.562  0.00  0.00    +0.020 A 
ATOM      6  C   UNL     1       6.431   5.484  -9.173  0.00  0.00    +0.008 A 
ATOM      7  C   UNL     1       6.509   5.775 -10.513  0.00  0.00    +0.080 A 
ATOM      8  C   UNL     1       5.418   6.374 -11.107  0.00  0.00    +0.008 A 
ATOM      9  C   UNL     1       4.215   6.361 -10.447  0.00  0.00    +0.020 A 
BRANCH   7  10
ATOM     10  C   UNL     1       7.713   5.554 -11.318  0.00  0.00    +0.388 C 
ATOM     11  O   UNL     1       7.569   4.631 -12.360  0.00  0.00    -0.241 OA
ATOM     12  O   UNL     1       8.451   6.549 -11.592  0.00  0.00    -0.241 OA
ENDBRANCH   7  10
ENDBRANCH   1   4
BRANCH   1  13
ATOM     13  N   UNL     1       1.497   6.273  -7.938  0.00  0.00    -0.156 NA
BRANCH  13  14
ATOM     14  C   UNL     1       0.700   5.616  -6.927  0.00  0.00    +0.096 C 
BRANCH  14  16
ATOM     15  C   UNL     1      -1.720   5.712  -6.393  0.00  0.00    +0.002 C 
ATOM     16  C   UNL     1      -0.696   5.353  -7.437  0.00  0.00    +0.019 C 
ENDBRANCH  14  16
ENDBRANCH  13  14
BRANCH  13  17
ATOM     17  C   UNL     1       2.299   7.276  -7.244  0.00  0.00    +0.096 C 
BRANCH  17  18
ATOM     18  C   UNL     1       2.476   6.739  -5.828  0.00  0.00    +0.019 C 
ATOM     19  C   UNL     1       3.903   7.089  -5.425  0.00  0.00    +0.002 C 
ENDBRANCH  17  18
ENDBRANCH  13  17
ENDBRANCH   1  13
TORSDOF 7
ENDMDL
MODEL 3
REMARK VINA RESULT:      -6.6      1.914      3.020
REMARK  Name = 
REMARK  7 active torsions:
REMARK  status: ('A' for Active; 'I' for Inactive)
REMARK    1  A    between atoms: C_2  and  C_3
REMARK    2  A    between atoms: C_3  and  N_4
REMARK    3  A    between atoms: N_4  and  C_5
REMARK    4  A    between atoms: N_4  and  S_8
REMARK    5  A    between atoms: C_5  and  C_6
REMARK    6  A    between atoms: S_8  and  C_11
REMARK    7  A    between atoms: C_14  and  C_15
REMARK                            x       y       z     vdW  Elec       q    Type
REMARK                         _______ _______ _______ _____ _____    ______ ____
ROOT
ATOM      1  S   UNL     1       1.797   4.960  -7.261  0.00  0.00    +0.063 S 
ATOM      2  O   UNL     1       1.985   3.652  -6.526  0.00  0.00    -0.153 OA
ATOM      3  O   UNL     1       1.679   4.606  -8.724  0.00  0.00    -0.153 OA
ENDROOT
BRANCH   1   4
ATOM      4  C   UNL     1       0.334   5.683  -6.657  0.00  0.00    +0.122 A 
ATOM      5  C   UNL     1      -0.928   5.245  -6.966  0.00  0.00    +0.020 A 
ATOM      6  C   UNL     1      -2.007   5.488  -6.125  0.00  0.00    +0.008 A 
ATOM      7  C   UNL     1      -1.787   5.959  -4.853  0.00  0.00    +0.080 A 
ATOM      8  C   UNL     1      -0.584   6.584  -4.597  0.00  0.00    +0.008 A 
ATOM      9  C   UNL     1       0.445   6.430  -5.490  0.00  0.00    +0.020 A 
BRANCH   7  10
ATOM     10  C   UNL     1      -2.790   5.901  -3.786  0.00  0.00    +0.388 C 
ATOM     11  O   UNL     1      -2.800   4.713  -3.046  0.00  0.00    -0.241 OA
ATOM     12  O   UNL     1      -3.016   6.949  -3.108  0.00  0.00    -0.241 OA
ENDBRANCH   7  10
ENDBRANCH   1   4
BRANCH   1  13
ATOM     13  N   UNL     1       3.174   5.949  -7.046  0.00  0.00    -0.156 NA
BRANCH  13  14
ATOM     14  C   UNL     1       4.116   5.387  -6.104  0.00  0.00    +0.096 C 
BRANCH  14  16
ATOM     15  C   UNL     1       4.556   7.391  -4.711  0.00  0.00    +0.002 C 
ATOM     16  C   UNL     1       3.946   6.015  -4.742  0.00  0.00    +0.019 C 
ENDBRANCH  14  16
ENDBRANCH  13  14
BRANCH  13  17
ATOM     17  C   UNL     1       3.911   6.162  -8.289  0.00  0.00    +0.096 C 
BRANCH  17  18
ATOM     18  C   UNL     1       5.128   5.249  -8.196  0.00  0.00    +0.019 C 
ATOM     19  C   UNL     1       6.060   5.681  -9.320  0.00  0.00    +0.002 C 
ENDBRANCH  17  18
ENDBRANCH  13  17
ENDBRANCH   1  13
TORSDOF 7
ENDMDL
MODEL 4
REMARK VINA RESULT:      -6.6      2.987      7.547
REMARK  Name = 
REMARK  7 active torsions:
REMARK  status: ('A' for Active; 'I' for Inactive)
REMARK    1  A    between atoms: C_2  and  C_3
REMARK    2  A    between atoms: C_3  and  N_4
REMARK    3  A    between atoms: N_4  and  C_5
REMARK    4  A    between atoms: N_4  and  S_8
REMARK    5  A    between atoms: C_5  and  C_6
REMARK    6  A    between atoms: S_8  and  C_11
REMARK    7  A    between atoms: C_14  and  C_15
REMARK                            x       y       z     vdW  Elec       q    Type
REMARK                         _______ _______ _______ _____ _____    ______ ____
ROOT
ATOM      1  S   UNL     1       2.761   4.918  -8.098  0.00  0.00    +0.063 S 
ATOM      2  O   UNL     1       2.671   3.543  -8.720  0.00  0.00    -0.153 OA
ATOM      3  O   UNL     1       2.843   4.699  -6.606  0.00  0.00    -0.153 OA
ENDROOT
BRANCH   1   4
ATOM      4  C   UNL     1       4.204   5.669  -8.717  0.00  0.00    +0.122 A 
ATOM      5  C   UNL     1       5.477   5.246  -8.431  0.00  0.00    +0.020 A 
ATOM      6  C   UNL     1       6.539   5.513  -9.286  0.00  0.00    +0.008 A 
ATOM      7  C   UNL     1       6.293   5.994 -10.549  0.00  0.00    +0.080 A 
ATOM      8  C   UNL     1       5.078   6.604 -10.781  0.00  0.00    +0.008 A 
ATOM      9  C   UNL     1       4.065   6.426  -9.873  0.00  0.00    +0.020 A 
BRANCH   7  10
ATOM     10  C   UNL     1       7.280   5.962 -11.632  0.00  0.00    +0.388 C 
ATOM     11  O   UNL     1       7.493   4.702 -12.203  0.00  0.00    -0.241 OA
ATOM     12  O   UNL     1       7.310   6.927 -12.455  0.00  0.00    -0.241 OA
ENDBRANCH   7  10
ENDBRANCH   1   4
BRANCH   1  13
ATOM     13  N   UNL     1       1.341   5.806  -8.443  0.00  0.00    -0.156 NA
BRANCH  13  14
ATOM     14  C   UNL     1       0.459   5.104  -9.349  0.00  0.00    +0.096 C 
BRANCH  14  16
ATOM     15  C   UNL     1       0.115   6.979 -10.935  0.00  0.00    +0.002 C 
ATOM     16  C   UNL     1       0.657   5.585 -10.766  0.00  0.00    +0.019 C 
ENDBRANCH  14  16
ENDBRANCH  13  14
BRANCH  13  17
ATOM     17  C   UNL     1       0.557   6.097  -7.247  0.00  0.00    +0.096 C 
BRANCH  17  18
ATOM     18  C   UNL     1      -0.756   5.347  -7.434  0.00  0.00    +0.019 C 
ATOM     19  C   UNL     1      -1.622   5.715  -6.236  0.00  0.00    +0.002 C 
ENDBRANCH  17  18
ENDBRANCH  13  17
ENDBRANCH   1  13
TORSDOF 7
ENDMDL
MODEL 5
REMARK VINA RESULT:      -6.6      0.788      2.405
REMARK  Name = 
REMARK  7 active torsions:
REMARK  status: ('A' for Active; 'I' for Inactive)
REMARK    1  A    between atoms: C_2  and  C_3
REMARK    2  A    between atoms: C_3  and  N_4
REMARK    3  A    between atoms: N_4  and  C_5
REMARK    4  A    between atoms: N_4  and  S_8
REMARK    5  A    between atoms: C_5  and  C_6
REMARK    6  A    between atoms: S_8  and  C_11
REMARK    7  A    between atoms: C_14  and  C_15
REMARK                            x       y       z     vdW  Elec       q    Type
REMARK                         _______ _______ _______ _____ _____    ______ ____
ROOT
ATOM      1  S   UNL     1       1.646   5.523  -7.078  0.00  0.00    +0.063 S 
ATOM      2  O   UNL     1       2.672   6.162  -6.170  0.00  0.00    -0.153 OA
ATOM      3  O   UNL     1       1.857   4.032  -6.966  0.00  0.00    -0.153 OA
ENDROOT
BRANCH   1   4
ATOM      4  C   UNL     1       0.077   5.995  -6.494  0.00  0.00    +0.122 A 
ATOM      5  C   UNL     1      -1.083   5.312  -6.761  0.00  0.00    +0.020 A 
ATOM      6  C   UNL     1      -2.185   5.397  -5.919  0.00  0.00    +0.008 A 
ATOM      7  C   UNL     1      -2.052   5.973  -4.679  0.00  0.00    +0.080 A 
ATOM      8  C   UNL     1      -0.987   6.824  -4.474  0.00  0.00    +0.008 A 
ATOM      9  C   UNL     1       0.050   6.813  -5.372  0.00  0.00    +0.020 A 
BRANCH   7  10
ATOM     10  C   UNL     1      -3.023   5.789  -3.596  0.00  0.00    +0.388 C 
ATOM     11  O   UNL     1      -2.877   4.606  -2.862  0.00  0.00    -0.241 OA
ATOM     12  O   UNL     1      -3.363   6.799  -2.909  0.00  0.00    -0.241 OA
ENDBRANCH   7  10
ENDBRANCH   1   4
BRANCH   1  13
ATOM     13  N   UNL     1       1.930   5.996  -8.697  0.00  0.00    -0.156 NA
BRANCH  13  14
ATOM     14  C   UNL     1       3.283   6.460  -8.907  0.00  0.00    +0.096 C 
BRANCH  14  16
ATOM     15  C   UNL     1       5.455   5.325  -8.521  0.00  0.00    +0.002 C 
ATOM     16  C   UNL     1       4.179   5.318  -9.322  0.00  0.00    +0.019 C 
ENDBRANCH  14  16
ENDBRANCH  13  14
BRANCH  13  17
ATOM     17  C   UNL     1       1.715   4.907  -9.645  0.00  0.00    +0.096 C 
BRANCH  17  18
ATOM     18  C   UNL     1       0.259   5.032 -10.078  0.00  0.00    +0.019 C 
ATOM     19  C   UNL     1       0.100   6.455 -10.597  0.00  0.00    +0.002 C 
ENDBRANCH  17  18
ENDBRANCH  13  17
ENDBRANCH   1  13
TORSDOF 7
ENDMDL
MODEL 6
REMARK VINA RESULT:      -6.6      2.720      7.153
REMARK  Name = 
REMARK  7 active torsions:
REMARK  status: ('A' for Active; 'I' for Inactive)
REMARK    1  A    between atoms: C_2  and  C_3
REMARK    2  A    between atoms: C_3  and  N_4
REMARK    3  A    between atoms: N_4  and  C_5
REMARK    4  A    between atoms: N_4  and  S_8
REMARK    5  A    between atoms: C_5  and  C_6
REMARK    6  A    between atoms: S_8  and  C_11
REMARK    7  A    between atoms: C_14  and  C_15
REMARK                            x       y       z     vdW  Elec       q    Type
REMARK                         _______ _______ _______ _____ _____    ______ ____
ROOT
ATOM      1  S   UNL     1       2.250   6.920  -7.611  0.00  0.00    +0.063 S 
ATOM      2  O   UNL     1       2.772   6.775  -6.199  0.00  0.00    -0.153 OA
ATOM      3  O   UNL     1       2.080   8.401  -7.846  0.00  0.00    -0.153 OA
ENDROOT
BRANCH   1   4
ATOM      4  C   UNL     1       3.445   6.234  -8.674  0.00  0.00    +0.122 A 
ATOM      5  C   UNL     1       3.767   6.746  -9.905  0.00  0.00    +0.020 A 
ATOM      6  C   UNL     1       5.006   6.510 -10.487  0.00  0.00    +0.008 A 
ATOM      7  C   UNL     1       6.019   5.963  -9.737  0.00  0.00    +0.080 A 
ATOM      8  C   UNL     1       5.674   5.270  -8.596  0.00  0.00    +0.008 A 
ATOM      9  C   UNL     1       4.409   5.423  -8.087  0.00  0.00    +0.020 A 
BRANCH   7  10
ATOM     10  C   UNL     1       7.431   6.012 -10.129  0.00  0.00    +0.388 C 
ATOM     11  O   UNL     1       7.774   5.194 -11.211  0.00  0.00    -0.241 OA
ATOM     12  O   UNL     1       8.030   7.129 -10.100  0.00  0.00    -0.241 OA
ENDBRANCH   7  10
ENDBRANCH   1   4
BRANCH   1  13
ATOM     13  N   UNL     1       0.721   6.165  -7.745  0.00  0.00    -0.156 NA
BRANCH  13  14
ATOM     14  C   UNL     1       0.641   5.281  -8.885  0.00  0.00    +0.096 C 
BRANCH  14  16
ATOM     15  C   UNL     1       0.292   5.212 -11.339  0.00  0.00    +0.002 C 
ATOM     16  C   UNL     1       0.059   6.000 -10.078  0.00  0.00    +0.019 C 
ENDBRANCH  14  16
ENDBRANCH  13  14
BRANCH  13  17
ATOM     17  C   UNL     1       0.390   5.360  -6.573  0.00  0.00    +0.096 C 
BRANCH  17  18
ATOM     18  C   UNL     1      -0.748   6.104  -5.884  0.00  0.00    +0.019 C 
ATOM     19  C   UNL     1      -2.034   5.472  -6.402  0.00  0.00    +0.002 C 
ENDBRANCH  17  18
ENDBRANCH  13  17
ENDBRANCH   1  13
TORSDOF 7
ENDMDL
MODEL 7
REMARK VINA RESULT:      -6.5      3.612      8.101
REMARK  Name = 
REMARK  7 active torsions:
REMARK  status: ('A' for Active; 'I' for Inactive)
REMARK    1  A    between atoms: C_2  and  C_3
REMARK    2  A    between atoms: C_3  and  N_4
REMARK    3  A    between atoms: N_4  and  C_5
REMARK    4  A    between atoms: N_4  and  S_8
REMARK    5  A    between atoms: C_5  and  C_6
REMARK    6  A    between atoms: S_8  and  C_11
REMARK    7  A    between atoms: C_14  and  C_15
REMARK                            x       y       z     vdW  Elec       q    Type
REMARK                         _______ _______ _______ _____ _____    ______ ____
ROOT
ATOM      1  S   UNL     1       2.841   5.257  -8.400  0.00  0.00    +0.063 S 
ATOM      2  O   UNL     1       1.815   5.709  -9.416  0.00  0.00    -0.153 OA
ATOM      3  O   UNL     1       2.795   3.748  -8.399  0.00  0.00    -0.153 OA
ENDROOT
BRANCH   1   4
ATOM      4  C   UNL     1       4.387   5.852  -8.930  0.00  0.00    +0.122 A 
ATOM      5  C   UNL     1       5.589   5.285  -8.591  0.00  0.00    +0.020 A 
ATOM      6  C   UNL     1       6.717   5.446  -9.387  0.00  0.00    +0.008 A 
ATOM      7  C   UNL     1       6.591   5.971 -10.650  0.00  0.00    +0.080 A 
ATOM      8  C   UNL     1       5.464   6.717 -10.929  0.00  0.00    +0.008 A 
ATOM      9  C   UNL     1       4.392   6.638 -10.076  0.00  0.00    +0.020 A 
BRANCH   7  10
ATOM     10  C   UNL     1       7.623   5.846 -11.684  0.00  0.00    +0.388 C 
ATOM     11  O   UNL     1       7.720   4.581 -12.274  0.00  0.00    -0.241 OA
ATOM     12  O   UNL     1       7.805   6.816 -12.480  0.00  0.00    -0.241 OA
ENDBRANCH   7  10
ENDBRANCH   1   4
BRANCH   1  13
ATOM     13  N   UNL     1       2.403   5.819  -6.845  0.00  0.00    -0.156 NA
BRANCH  13  14
ATOM     14  C   UNL     1       3.255   6.893  -6.386  0.00  0.00    +0.096 C 
BRANCH  14  16
ATOM     15  C   UNL     1       4.691   7.534  -4.469  0.00  0.00    +0.002 C 
ATOM     16  C   UNL     1       4.218   6.397  -5.335  0.00  0.00    +0.019 C 
ENDBRANCH  14  16
ENDBRANCH  13  14
BRANCH  13  17
ATOM     17  C   UNL     1       1.035   6.328  -6.798  0.00  0.00    +0.096 C 
BRANCH  17  18
ATOM     18  C   UNL     1       0.193   5.169  -6.280  0.00  0.00    +0.019 C 
ATOM     19  C   UNL     1      -1.154   5.285  -6.982  0.00  0.00    +0.002 C 
ENDBRANCH  17  18
ENDBRANCH  13  17
ENDBRANCH   1  13
TORSDOF 7
ENDMDL
MODEL 8
REMARK VINA RESULT:      -6.4      3.174      7.574
REMARK  Name = 
REMARK  7 active torsions:
REMARK  status: ('A' for Active; 'I' for Inactive)
REMARK    1  A    between atoms: C_2  and  C_3
REMARK    2  A    between atoms: C_3  and  N_4
REMARK    3  A    between atoms: N_4  and  C_5
REMARK    4  A    between atoms: N_4  and  S_8
REMARK    5  A    between atoms: C_5  and  C_6
REMARK    6  A    between atoms: S_8  and  C_11
REMARK    7  A    between atoms: C_14  and  C_15
REMARK                            x       y       z     vdW  Elec       q    Type
REMARK                         _______ _______ _______ _____ _____    ______ ____
ROOT
ATOM      1  S   UNL     1       2.574   6.931  -7.054  0.00  0.00    +0.063 S 
ATOM      2  O   UNL     1       3.506   7.418  -5.967  0.00  0.00    -0.153 OA
ATOM      3  O   UNL     1       1.840   8.151  -7.556  0.00  0.00    -0.153 OA
ENDROOT
BRANCH   1   4
ATOM      4  C   UNL     1       3.563   6.220  -8.297  0.00  0.00    +0.122 A 
ATOM      5  C   UNL     1       3.692   6.729  -9.565  0.00  0.00    +0.020 A 
ATOM      6  C   UNL     1       4.813   6.465 -10.342  0.00  0.00    +0.008 A 
ATOM      7  C   UNL     1       5.921   5.891  -9.767  0.00  0.00    +0.080 A 
ATOM      8  C   UNL     1       5.750   5.203  -8.584  0.00  0.00    +0.008 A 
ATOM      9  C   UNL     1       4.589   5.385  -7.875  0.00  0.00    +0.020 A 
BRANCH   7  10
ATOM     10  C   UNL     1       7.250   5.907 -10.384  0.00  0.00    +0.388 C 
ATOM     11  O   UNL     1       7.351   5.213 -11.595  0.00  0.00    -0.241 OA
ATOM     12  O   UNL     1       7.932   6.976 -10.329  0.00  0.00    -0.241 OA
ENDBRANCH   7  10
ENDBRANCH   1   4
BRANCH   1  13
ATOM     13  N   UNL     1       1.435   5.838  -6.396  0.00  0.00    -0.156 NA
BRANCH  13  14
ATOM     14  C   UNL     1       1.766   5.445  -5.044  0.00  0.00    +0.096 C 
BRANCH  14  16
ATOM     15  C   UNL     1       0.585   5.297  -2.868  0.00  0.00    +0.002 C 
ATOM     16  C   UNL     1       0.898   6.177  -4.049  0.00  0.00    +0.019 C 
ENDBRANCH  14  16
ENDBRANCH  13  14
BRANCH  13  17
ATOM     17  C   UNL     1       0.087   6.397  -6.345  0.00  0.00    +0.096 C 
BRANCH  17  18
ATOM     18  C   UNL     1      -0.803   5.360  -7.020  0.00  0.00    +0.019 C 
ATOM     19  C   UNL     1      -2.187   5.538  -6.410  0.00  0.00    +0.002 C 
ENDBRANCH  17  18
ENDBRANCH  13  17
ENDBRANCH   1  13
TORSDOF 7
ENDMDL
MODEL 9
REMARK VINA RESULT:      -6.4      2.750      7.261
REMARK  Name = 
REMARK  7 active torsions:
REMARK  status: ('A' for Active; 'I' for Inactive)
REMARK    1  A    between atoms: C_2  and  C_3
REMARK    2  A    between atoms: C_3  and  N_4
REMARK    3  A    between atoms: N_4  and  C_5
REMARK    4  A    between atoms: N_4  and  S_8
REMARK    5  A    between atoms: C_5  and  C_6
REMARK    6  A    between atoms: S_8  and  C_11
REMARK    7  A    between atoms: C_14  and  C_15
REMARK                            x       y       z     vdW  Elec       q    Type
REMARK                         _______ _______ _______ _____ _____    ______ ____
ROOT
ATOM      1  S   UNL     1       2.347   6.640  -7.647  0.00  0.00    +0.063 S 
ATOM      2  O   UNL     1       2.904   6.540  -6.244  0.00  0.00    -0.153 OA
ATOM      3  O   UNL     1       2.017   8.097  -7.864  0.00  0.00    -0.153 OA
ENDROOT
BRANCH   1   4
ATOM      4  C   UNL     1       3.591   6.095  -8.734  0.00  0.00    +0.122 A 
ATOM      5  C   UNL     1       3.892   6.702  -9.928  0.00  0.00    +0.020 A 
ATOM      6  C   UNL     1       5.149   6.577 -10.508  0.00  0.00    +0.008 A 
ATOM      7  C   UNL     1       6.186   6.047  -9.780  0.00  0.00    +0.080 A 
ATOM      8  C   UNL     1       5.874   5.265  -8.688  0.00  0.00    +0.008 A 
ATOM      9  C   UNL     1       4.597   5.309  -8.186  0.00  0.00    +0.020 A 
BRANCH   7  10
ATOM     10  C   UNL     1       7.596   6.205 -10.150  0.00  0.00    +0.388 C 
ATOM     11  O   UNL     1       8.061   5.303 -11.114  0.00  0.00    -0.241 OA
ATOM     12  O   UNL     1       8.068   7.378 -10.251  0.00  0.00    -0.241 OA
ENDBRANCH   7  10
ENDBRANCH   1   4
BRANCH   1  13
ATOM     13  N   UNL     1       0.906   5.728  -7.765  0.00  0.00    -0.156 NA
BRANCH  13  14
ATOM     14  C   UNL     1      -0.033   6.041  -6.711  0.00  0.00    +0.096 C 
BRANCH  14  16
ATOM     15  C   UNL     1      -2.466   5.885  -6.260  0.00  0.00    +0.002 C 
ATOM     16  C   UNL     1      -1.263   5.173  -6.817  0.00  0.00    +0.019 C 
ENDBRANCH  14  16
ENDBRANCH  13  14
BRANCH  13  17
ATOM     17  C   UNL     1       0.202   5.954  -9.024  0.00  0.00    +0.096 C 
BRANCH  17  18
ATOM     18  C   UNL     1       0.633   4.810  -9.935  0.00  0.00    +0.019 C 
ATOM     19  C   UNL     1      -0.074   5.047 -11.264  0.00  0.00    +0.002 C 
ENDBRANCH  17  18
ENDBRANCH  13  17
ENDBRANCH   1  13
TORSDOF 7
ENDMDL
