MODEL 1
REMARK VINA RESULT:      -6.3      0.000      0.000
REMARK  Name = 
REMARK  5 active torsions:
REMARK  status: ('A' for Active; 'I' for Inactive)
REMARK    1  A    between atoms: C_2  and  C_3
REMARK    2  A    between atoms: C_3  and  N_4
REMARK    3  A    between atoms: N_4  and  C_5
REMARK    4  A    between atoms: C_5  and  C_7
REMARK    5  A    between atoms: N_9  and  C_10
REMARK                            x       y       z     vdW  Elec       q    Type
REMARK                         _______ _______ _______ _____ _____    ______ ____
ROOT
ATOM      1  C   UNL     1       3.987   6.197 -10.982  0.00  0.00    +0.261 C 
ATOM      2  N   UNL     1       4.998   7.128 -10.752  0.00  0.00    -0.178 NA
ATOM      3  O   UNL     1       4.329   5.193 -11.687  0.00  0.00    -0.271 OA
ENDROOT
BRANCH   2   4
ATOM      4  C   UNL     1       6.330   7.111 -11.269  0.00  0.00    +0.069 A 
ATOM      5  C   UNL     1       7.344   6.377 -10.654  0.00  0.00    -0.007 A 
ATOM      6  C   UNL     1       7.085   5.691  -9.348  0.00  0.00    +0.032 C 
ATOM      7  C   UNL     1       8.452   6.026 -11.417  0.00  0.00    -0.003 A 
ATOM      8  C   UNL     1       8.344   5.912 -12.799  0.00  0.00    -0.000 A 
ATOM      9  C   UNL     1       7.227   6.386 -13.418  0.00  0.00    +0.001 A 
ATOM     10  C   UNL     1       6.387   7.189 -12.657  0.00  0.00    +0.016 A 
ENDBRANCH   2   4
BRANCH   1  11
ATOM     11  C   UNL     1       3.303   5.538  -9.639  0.00  0.00    +0.151 C 
ATOM     12  C   UNL     1       2.917   7.025  -8.967  0.00  0.00    +0.029 C 
BRANCH  11  13
ATOM     13  N   UNL     1       1.867   5.462 -10.352  0.00  0.00    -0.210 NA
BRANCH  13  14
ATOM     14  C   UNL     1       1.236   6.721  -9.966  0.00  0.00    +0.089 C 
BRANCH  14  16
ATOM     15  C   UNL     1      -0.235   6.968 -11.252  0.00  0.00    +0.002 C 
ATOM     16  C   UNL     1       0.040   6.859 -10.903  0.00  0.00    +0.019 C 
ENDBRANCH  14  16
ENDBRANCH  13  14
ENDBRANCH  11  13
ENDBRANCH   1  11
TORSDOF 5
ENDMDL
MODEL 2
REMARK VINA RESULT:      -6.3      4.063      7.765
REMARK  Name = 
REMARK  5 active torsions:
REMARK  status: ('A' for Active; 'I' for Inactive)
REMARK    1  A    between atoms: C_2  and  C_3
REMARK    2  A    between atoms: C_3  and  N_4
REMARK    3  A    between atoms: N_4  and  C_5
REMARK    4  A    between atoms: C_5  and  C_7
REMARK    5  A    between atoms: N_9  and  C_10
REMARK                            x       y       z     vdW  Elec       q    Type
REMARK                         _______ _______ _______ _____ _____    ______ ____
ROOT
ATOM      1  C   UNL     1       2.219   4.452  -7.126  0.00  0.00    +0.261 C 
ATOM      2  N   UNL     1       1.141   5.327  -7.021  0.00  0.00    -0.178 NA
ATOM      3  O   UNL     1       2.127   3.396  -6.419  0.00  0.00    -0.271 OA
ENDROOT
BRANCH   2   4
ATOM      4  C   UNL     1      -0.002   5.204  -6.171  0.00  0.00    +0.069 A 
ATOM      5  C   UNL     1      -0.051   5.814  -4.919  0.00  0.00    -0.007 A 
ATOM      6  C   UNL     1       1.159   6.510  -4.376  0.00  0.00    +0.032 C 
ATOM      7  C   UNL     1      -1.300   6.050  -4.355  0.00  0.00    -0.003 A 
ATOM      8  C   UNL     1      -2.420   6.191  -5.166  0.00  0.00    -0.000 A 
ATOM      9  C   UNL     1      -2.332   5.850  -6.483  0.00  0.00    +0.001 A 
ATOM     10  C   UNL     1      -1.204   5.136  -6.867  0.00  0.00    +0.016 A 
ENDBRANCH   2   4
BRANCH   1  11
ATOM     11  C   UNL     1       2.547   3.900  -8.641  0.00  0.00    +0.151 C 
ATOM     12  C   UNL     1       1.950   5.275  -9.393  0.00  0.00    +0.029 C 
BRANCH  11  13
ATOM     13  N   UNL     1       4.021   4.534  -8.601  0.00  0.00    -0.210 NA
BRANCH  13  14
ATOM     14  C   UNL     1       4.187   5.076  -9.947  0.00  0.00    +0.089 C 
BRANCH  14  16
ATOM     15  C   UNL     1       5.989   5.863  -9.820  0.00  0.00    +0.002 C 
ATOM     16  C   UNL     1       5.578   5.704  -9.944  0.00  0.00    +0.019 C 
ENDBRANCH  14  16
ENDBRANCH  13  14
ENDBRANCH  11  13
ENDBRANCH   1  11
TORSDOF 5
ENDMDL
MODEL 3
REMARK VINA RESULT:      -6.2      2.383      3.074
REMARK  Name = 
REMARK  5 active torsions:
REMARK  status: ('A' for Active; 'I' for Inactive)
REMARK    1  A    between atoms: C_2  and  C_3
REMARK    2  A    between atoms: C_3  and  N_4
REMARK    3  A    between atoms: N_4  and  C_5
REMARK    4  A    between atoms: C_5  and  C_7
REMARK    5  A    between atoms: N_9  and  C_10
REMARK                            x       y       z     vdW  Elec       q    Type
REMARK                         _______ _______ _______ _____ _____    ______ ____
ROOT
ATOM      1  C   UNL     1       2.975   5.151  -9.103  0.00  0.00    +0.261 C 
ATOM      2  N   UNL     1       3.957   5.898  -9.748  0.00  0.00    -0.178 NA
ATOM      3  O   UNL     1       3.286   3.937  -8.870  0.00  0.00    -0.271 OA
ENDROOT
BRANCH   2   4
ATOM      4  C   UNL     1       5.223   5.441 -10.229  0.00  0.00    +0.069 A 
ATOM      5  C   UNL     1       5.537   5.453 -11.587  0.00  0.00    -0.007 A 
ATOM      6  C   UNL     1       4.493   5.824 -12.594  0.00  0.00    +0.032 C 
ATOM      7  C   UNL     1       6.880   5.447 -11.948  0.00  0.00    -0.003 A 
ATOM      8  C   UNL     1       7.842   5.945 -11.077  0.00  0.00    -0.000 A 
ATOM      9  C   UNL     1       7.497   6.203  -9.784  0.00  0.00    +0.001 A 
ATOM     10  C   UNL     1       6.274   5.703  -9.356  0.00  0.00    +0.016 A 
ENDBRANCH   2   4
BRANCH   1  11
ATOM     11  C   UNL     1       2.478   5.730  -7.645  0.00  0.00    +0.151 C 
ATOM     12  C   UNL     1       2.257   7.291  -8.214  0.00  0.00    +0.029 C 
BRANCH  11  13
ATOM     13  N   UNL     1       0.949   5.370  -7.972  0.00  0.00    -0.210 NA
BRANCH  13  14
ATOM     14  C   UNL     1       0.381   5.096  -6.654  0.00  0.00    +0.089 C 
BRANCH  14  16
ATOM     15  C   UNL     1      -1.562   5.396  -6.764  0.00  0.00    +0.002 C 
ATOM     16  C   UNL     1      -1.106   5.402  -6.801  0.00  0.00    +0.019 C 
ENDBRANCH  14  16
ENDBRANCH  13  14
ENDBRANCH  11  13
ENDBRANCH   1  11
TORSDOF 5
ENDMDL
MODEL 4
REMARK VINA RESULT:      -6.2      5.019      8.251
REMARK  Name = 
REMARK  5 active torsions:
REMARK  status: ('A' for Active; 'I' for Inactive)
REMARK    1  A    between atoms: C_2  and  C_3
REMARK    2  A    between atoms: C_3  and  N_4
REMARK    3  A    between atoms: N_4  and  C_5
REMARK    4  A    between atoms: C_5  and  C_7
REMARK    5  A    between atoms: N_9  and  C_10
REMARK                            x       y       z     vdW  Elec       q    Type
REMARK                         _______ _______ _______ _____ _____    ______ ____
ROOT
ATOM      1  C   UNL     1       2.037   6.707  -3.975  0.00  0.00    +0.261 C 
ATOM      2  N   UNL     1       0.971   7.046  -4.805  0.00  0.00    -0.178 NA
ATOM      3  O   UNL     1       1.963   5.548  -3.450  0.00  0.00    -0.271 OA
ENDROOT
BRANCH   2   4
ATOM      4  C   UNL     1      -0.204   6.277  -5.072  0.00  0.00    +0.069 A 
ATOM      5  C   UNL     1      -1.480   6.805  -4.889  0.00  0.00    -0.007 A 
ATOM      6  C   UNL     1      -1.650   8.160  -4.274  0.00  0.00    +0.032 C 
ATOM      7  C   UNL     1      -2.537   6.216  -5.576  0.00  0.00    -0.003 A 
ATOM      8  C   UNL     1      -2.306   5.531  -6.763  0.00  0.00    -0.000 A 
ATOM      9  C   UNL     1      -1.024   5.226  -7.114  0.00  0.00    +0.001 A 
ATOM     10  C   UNL     1      -0.055   5.389  -6.133  0.00  0.00    +0.016 A 
ENDBRANCH   2   4
BRANCH   1  11
ATOM     11  C   UNL     1       3.527   6.745  -4.671  0.00  0.00    +0.151 C 
ATOM     12  C   UNL     1       3.408   5.187  -5.277  0.00  0.00    +0.029 C 
BRANCH  11  13
ATOM     13  N   UNL     1       2.926   7.346  -6.032  0.00  0.00    -0.210 NA
BRANCH  13  14
ATOM     14  C   UNL     1       3.446   6.441  -7.054  0.00  0.00    +0.089 C 
BRANCH  14  16
ATOM     15  C   UNL     1       2.518   7.103  -8.661  0.00  0.00    +0.002 C 
ATOM     16  C   UNL     1       2.751   6.870  -8.343  0.00  0.00    +0.019 C 
ENDBRANCH  14  16
ENDBRANCH  13  14
ENDBRANCH  11  13
ENDBRANCH   1  11
TORSDOF 5
ENDMDL
MODEL 5
REMARK VINA RESULT:      -6.1      1.939      2.206
REMARK  Name = 
REMARK  5 active torsions:
REMARK  status: ('A' for Active; 'I' for Inactive)
REMARK    1  A    between atoms: C_2  and  C_3
REMARK    2  A    between atoms: C_3  and  N_4
REMARK    3  A    between atoms: N_4  and  C_5
REMARK    4  A    between atoms: C_5  and  C_7
REMARK    5  A    between atoms: N_9  and  C_10
REMARK                            x       y       z     vdW  Elec       q    Type
REMARK                         _______ _______ _______ _____ _____    ______ ____
ROOT
ATOM      1  C   UNL     1       3.747   5.662  -9.397  0.00  0.00    +0.261 C 
ATOM      2  N   UNL     1       4.795   5.153 -10.160  0.00  0.00    -0.178 NA
ATOM      3  O   UNL     1       3.486   6.893  -9.592  0.00  0.00    -0.271 OA
ENDROOT
BRANCH   2   4
ATOM      4  C   UNL     1       5.635   5.866 -11.070  0.00  0.00    +0.069 A 
ATOM      5  C   UNL     1       6.954   6.185 -10.750  0.00  0.00    -0.007 A 
ATOM      6  C   UNL     1       7.482   5.900  -9.378  0.00  0.00    +0.032 C 
ATOM      7  C   UNL     1       7.835   6.447 -11.794  0.00  0.00    -0.003 A 
ATOM      8  C   UNL     1       7.607   5.908 -13.055  0.00  0.00    -0.000 A 
ATOM      9  C   UNL     1       6.399   5.338 -13.325  0.00  0.00    +0.001 A 
ATOM     10  C   UNL     1       5.384   5.567 -12.405  0.00  0.00    +0.016 A 
ENDBRANCH   2   4
BRANCH   1  11
ATOM     11  C   UNL     1       2.297   4.904  -9.577  0.00  0.00    +0.151 C 
ATOM     12  C   UNL     1       2.649   3.717  -8.446  0.00  0.00    +0.029 C 
BRANCH  11  13
ATOM     13  N   UNL     1       1.627   5.819  -8.441  0.00  0.00    -0.210 NA
BRANCH  13  14
ATOM     14  C   UNL     1       0.209   5.800  -8.792  0.00  0.00    +0.089 C 
BRANCH  14  16
ATOM     15  C   UNL     1      -0.811   5.295  -7.184  0.00  0.00    +0.002 C 
ATOM     16  C   UNL     1      -0.507   5.443  -7.493  0.00  0.00    +0.019 C 
ENDBRANCH  14  16
ENDBRANCH  13  14
ENDBRANCH  11  13
ENDBRANCH   1  11
TORSDOF 5
ENDMDL
MODEL 6
REMARK VINA RESULT:      -6.0      5.690      9.346
REMARK  Name = 
REMARK  5 active torsions:
REMARK  status: ('A' for Active; 'I' for Inactive)
REMARK    1  A    between atoms: C_2  and  C_3
REMARK    2  A    between atoms: C_3  and  N_4
REMARK    3  A    between atoms: N_4  and  C_5
REMARK    4  A    between atoms: C_5  and  C_7
REMARK    5  A    between atoms: N_9  and  C_10
REMARK                            x       y       z     vdW  Elec       q    Type
REMARK                         _______ _______ _______ _____ _____    ______ ____
ROOT
ATOM      1  C   UNL     1       1.216   5.573  -6.388  0.00  0.00    +0.261 C 
ATOM      2  N   UNL     1       0.247   5.075  -5.521  0.00  0.00    -0.178 NA
ATOM      3  O   UNL     1       1.361   6.839  -6.365  0.00  0.00    -0.271 OA
ENDROOT
BRANCH   2   4
ATOM      4  C   UNL     1      -0.632   5.822  -4.676  0.00  0.00    +0.069 A 
ATOM      5  C   UNL     1      -1.956   6.069  -5.035  0.00  0.00    -0.007 A 
ATOM      6  C   UNL     1      -2.453   5.667  -6.389  0.00  0.00    +0.032 C 
ATOM      7  C   UNL     1      -2.862   6.374  -4.025  0.00  0.00    -0.003 A 
ATOM      8  C   UNL     1      -2.635   5.937  -2.724  0.00  0.00    -0.000 A 
ATOM      9  C   UNL     1      -1.412   5.432  -2.399  0.00  0.00    +0.001 A 
ATOM     10  C   UNL     1      -0.391   5.630  -3.320  0.00  0.00    +0.016 A 
ENDBRANCH   2   4
BRANCH   1  11
ATOM     11  C   UNL     1       2.738   4.985  -6.173  0.00  0.00    +0.151 C 
ATOM     12  C   UNL     1       3.388   5.896  -7.421  0.00  0.00    +0.029 C 
BRANCH  11  13
ATOM     13  N   UNL     1       3.085   6.143  -5.117  0.00  0.00    -0.210 NA
BRANCH  13  14
ATOM     14  C   UNL     1       4.544   6.194  -5.146  0.00  0.00    +0.089 C 
BRANCH  14  16
ATOM     15  C   UNL     1       5.088   7.813  -4.165  0.00  0.00    +0.002 C 
ATOM     16  C   UNL     1       4.901   7.498  -4.440  0.00  0.00    +0.019 C 
ENDBRANCH  14  16
ENDBRANCH  13  14
ENDBRANCH  11  13
ENDBRANCH   1  11
TORSDOF 5
ENDMDL
MODEL 7
REMARK VINA RESULT:      -6.0      3.887      7.298
REMARK  Name = 
REMARK  5 active torsions:
REMARK  status: ('A' for Active; 'I' for Inactive)
REMARK    1  A    between atoms: C_2  and  C_3
REMARK    2  A    between atoms: C_3  and  N_4
REMARK    3  A    between atoms: N_4  and  C_5
REMARK    4  A    between atoms: C_5  and  C_7
REMARK    5  A    between atoms: N_9  and  C_10
REMARK                            x       y       z     vdW  Elec       q    Type
REMARK                         _______ _______ _______ _____ _____    ______ ____
ROOT
ATOM      1  C   UNL     1       2.447   5.268  -7.327  0.00  0.00    +0.261 C 
ATOM      2  N   UNL     1       1.372   5.980  -6.802  0.00  0.00    -0.178 NA
ATOM      3  O   UNL     1       2.334   4.000  -7.272  0.00  0.00    -0.271 OA
ENDROOT
BRANCH   2   4
ATOM      4  C   UNL     1       0.209   5.451  -6.159  0.00  0.00    +0.069 A 
ATOM      5  C   UNL     1      -0.051   5.686  -4.810  0.00  0.00    -0.007 A 
ATOM      6  C   UNL     1       0.963   6.393  -3.964  0.00  0.00    +0.032 C 
ATOM      7  C   UNL     1      -1.363   5.560  -4.365  0.00  0.00    -0.003 A 
ATOM      8  C   UNL     1      -2.422   5.735  -5.248  0.00  0.00    -0.000 A 
ATOM      9  C   UNL     1      -2.169   5.779  -6.587  0.00  0.00    +0.001 A 
ATOM     10  C   UNL     1      -0.902   5.384  -6.994  0.00  0.00    +0.016 A 
ENDBRANCH   2   4
BRANCH   1  11
ATOM     11  C   UNL     1       2.808   5.577  -8.902  0.00  0.00    +0.151 C 
ATOM     12  C   UNL     1       3.817   4.246  -9.050  0.00  0.00    +0.029 C 
BRANCH  11  13
ATOM     13  N   UNL     1       1.555   4.711  -9.407  0.00  0.00    -0.210 NA
BRANCH  13  14
ATOM     14  C   UNL     1       1.315   5.226 -10.753  0.00  0.00    +0.089 C 
BRANCH  14  16
ATOM     15  C   UNL     1      -0.208   6.462 -10.570  0.00  0.00    +0.002 C 
ATOM     16  C   UNL     1       0.198   6.252 -10.583  0.00  0.00    +0.019 C 
ENDBRANCH  14  16
ENDBRANCH  13  14
ENDBRANCH  11  13
ENDBRANCH   1  11
TORSDOF 5
ENDMDL
MODEL 8
REMARK VINA RESULT:      -5.9      2.547      6.364
REMARK  Name = 
REMARK  5 active torsions:
REMARK  status: ('A' for Active; 'I' for Inactive)
REMARK    1  A    between atoms: C_2  and  C_3
REMARK    2  A    between atoms: C_3  and  N_4
REMARK    3  A    between atoms: N_4  and  C_5
REMARK    4  A    between atoms: C_5  and  C_7
REMARK    5  A    between atoms: N_9  and  C_10
REMARK                            x       y       z     vdW  Elec       q    Type
REMARK                         _______ _______ _______ _____ _____    ______ ____
ROOT
ATOM      1  C   UNL     1       4.964   5.827  -9.915  0.00  0.00    +0.261 C 
ATOM      2  N   UNL     1       4.941   5.208  -8.668  0.00  0.00    -0.178 NA
ATOM      3  O   UNL     1       4.071   6.719 -10.091  0.00  0.00    -0.271 OA
ENDROOT
BRANCH   2   4
ATOM      4  C   UNL     1       4.000   5.414  -7.611  0.00  0.00    +0.069 A 
ATOM      5  C   UNL     1       2.849   4.637  -7.496  0.00  0.00    -0.007 A 
ATOM      6  C   UNL     1       2.502   3.647  -8.565  0.00  0.00    +0.032 C 
ATOM      7  C   UNL     1       2.234   4.558  -6.250  0.00  0.00    -0.003 A 
ATOM      8  C   UNL     1       2.973   4.762  -5.090  0.00  0.00    -0.000 A 
ATOM      9  C   UNL     1       4.230   5.281  -5.187  0.00  0.00    +0.001 A 
ATOM     10  C   UNL     1       4.589   5.817  -6.417  0.00  0.00    +0.016 A 
ENDBRANCH   2   4
BRANCH   1  11
ATOM     11  C   UNL     1       6.373   6.576 -10.316  0.00  0.00    +0.151 C 
ATOM     12  C   UNL     1       7.286   5.689  -9.225  0.00  0.00    +0.029 C 
BRANCH  11  13
ATOM     13  N   UNL     1       6.668   5.502 -11.471  0.00  0.00    -0.210 NA
BRANCH  13  14
ATOM     14  C   UNL     1       7.347   6.291 -12.495  0.00  0.00    +0.089 C 
BRANCH  14  16
ATOM     15  C   UNL     1       9.267   5.859 -12.414  0.00  0.00    +0.002 C 
ATOM     16  C   UNL     1       8.825   5.945 -12.336  0.00  0.00    +0.019 C 
ENDBRANCH  14  16
ENDBRANCH  13  14
ENDBRANCH  11  13
ENDBRANCH   1  11
TORSDOF 5
ENDMDL
MODEL 9
REMARK VINA RESULT:      -5.9      3.361      6.018
REMARK  Name = 
REMARK  5 active torsions:
REMARK  status: ('A' for Active; 'I' for Inactive)
REMARK    1  A    between atoms: C_2  and  C_3
REMARK    2  A    between atoms: C_3  and  N_4
REMARK    3  A    between atoms: N_4  and  C_5
REMARK    4  A    between atoms: C_5  and  C_7
REMARK    5  A    between atoms: N_9  and  C_10
REMARK                            x       y       z     vdW  Elec       q    Type
REMARK                         _______ _______ _______ _____ _____    ______ ____
ROOT
ATOM      1  C   UNL     1       2.576   7.093  -7.608  0.00  0.00    +0.261 C 
ATOM      2  N   UNL     1       2.321   6.098  -8.549  0.00  0.00    -0.178 NA
ATOM      3  O   UNL     1       2.116   8.244  -7.902  0.00  0.00    -0.271 OA
ENDROOT
BRANCH   2   4
ATOM      4  C   UNL     1       1.672   6.243  -9.815  0.00  0.00    +0.069 A 
ATOM      5  C   UNL     1       2.390   6.233 -11.010  0.00  0.00    -0.007 A 
ATOM      6  C   UNL     1       3.887   6.203 -10.984  0.00  0.00    +0.032 C 
ATOM      7  C   UNL     1       1.708   5.917 -12.180  0.00  0.00    -0.003 A 
ATOM      8  C   UNL     1       0.558   5.137 -12.132  0.00  0.00    -0.000 A 
ATOM      9  C   UNL     1      -0.032   4.899 -10.926  0.00  0.00    +0.001 A 
ATOM     10  C   UNL     1       0.406   5.669  -9.856  0.00  0.00    +0.016 A 
ENDBRANCH   2   4
BRANCH   1  11
ATOM     11  C   UNL     1       2.009   6.803  -6.091  0.00  0.00    +0.151 C 
ATOM     12  C   UNL     1       1.749   5.172  -6.377  0.00  0.00    +0.029 C 
BRANCH  11  13
ATOM     13  N   UNL     1       3.488   6.495  -5.548  0.00  0.00    -0.210 NA
BRANCH  13  14
ATOM     14  C   UNL     1       3.558   7.269  -4.311  0.00  0.00    +0.089 C 
BRANCH  14  16
ATOM     15  C   UNL     1       5.488   7.640  -4.189  0.00  0.00    +0.002 C 
ATOM     16  C   UNL     1       5.043   7.561  -4.120  0.00  0.00    +0.019 C 
ENDBRANCH  14  16
ENDBRANCH  13  14
ENDBRANCH  11  13
ENDBRANCH   1  11
TORSDOF 5
ENDMDL
