MODEL 1
REMARK VINA RESULT:      -8.6      0.000      0.000
REMARK  Name = 
REMARK  9 active torsions:
REMARK  status: ('A' for Active; 'I' for Inactive)
REMARK    1  A    between atoms: C_12  and  C_13
REMARK    2  A    between atoms: C_13  and  N_14
REMARK    3  A    between atoms: N_14  and  C_15
REMARK    4  A    between atoms: C_18  and  C_19
REMARK    5  A    between atoms: N_21  and  CA_22
REMARK    6  A    between atoms: CA_22  and  CB_23
REMARK    7  A    between atoms: CA_22  and  C_28
REMARK    8  A    between atoms: CB_23  and  CG_24
REMARK    9  A    between atoms: CG_24  and  CD_25
REMARK                            x       y       z     vdW  Elec       q    Type
REMARK                         _______ _______ _______ _____ _____    ______ ____
ROOT
ATOM      1  C   UNK A   0       4.372   5.950  -5.584  0.00  0.00    +0.065 A 
ATOM      2  C   UNK A   0       4.356   5.016  -4.562  0.00  0.00    +0.016 A 
ATOM      3  C   UNK A   0       3.225   4.908  -3.758  0.00  0.00    +0.006 A 
ATOM      4  C   UNK A   0       2.217   5.837  -3.816  0.00  0.00    +0.055 A 
ATOM      5  C   UNK A   0       2.537   7.045  -4.413  0.00  0.00    +0.006 A 
ATOM      6  C   UNK A   0       3.577   7.066  -5.336  0.00  0.00    +0.016 A 
ENDROOT
BRANCH   4   7
ATOM      7  C   UNK A   0       0.847   5.612  -3.420  0.00  0.00    +0.265 C 
ATOM      8  N   GLU A   1      -0.197   5.950  -4.279  0.00  0.00    -0.192 NA
ATOM      9  O   UNK A   0       0.587   4.928  -2.394  0.00  0.00    -0.268 OA
BRANCH   8  10
ATOM     10  CA  GLU A   1      -1.675   5.590  -3.822  0.00  0.00    +0.199 C 
BRANCH  10  11
ATOM     11  C   GLU A   1      -2.305   5.912  -5.293  0.00  0.00    +0.384 C 
ATOM     12  OXT GLU A   1      -2.518   7.296  -5.341  0.00  0.00    -0.244 OA
ATOM     13  O   GLU A   1      -1.581   5.470  -6.237  0.00  0.00    -0.244 OA
ENDBRANCH  10  11
BRANCH  10  14
ATOM     14  CB  GLU A   1      -1.971   7.131  -3.273  0.00  0.00    +0.045 C 
BRANCH  14  15
ATOM     15  CG  GLU A   1      -2.739   6.940  -1.987  0.00  0.00    +0.116 C 
BRANCH  15  16
ATOM     16  CD  GLU A   1      -1.821   7.194  -0.852  0.00  0.00    +0.365 C 
ATOM     17  OE2 GLU A   1      -1.464   6.159   0.005  0.00  0.00    -0.246 OA
ATOM     18  OE1 GLU A   1      -1.541   8.371  -0.516  0.00  0.00    -0.246 OA
ENDBRANCH  15  16
ENDBRANCH  14  15
ENDBRANCH  10  14
ENDBRANCH   8  10
ENDBRANCH   4   7
BRANCH   1  19
ATOM     19  N   UNK A   0       4.773   5.751  -6.893  0.00  0.00    -0.236 NA
BRANCH  19  20
ATOM     20  C   UNK A   0       4.147   5.842  -8.136  0.00  0.00    +0.134 C 
BRANCH  20  28
ATOM     21  N   UNK A   0      -1.086   7.169 -11.482  0.00  0.00    -0.086 NA
ATOM     22  C   UNK A   0       0.223   6.903 -11.088  0.00  0.00    +0.260 A 
ATOM     23  N   UNK A   0       1.257   6.792 -11.946  0.00  0.00    -0.171 NA
ATOM     24  C   UNK A   0       2.384   6.127 -11.679  0.00  0.00    +0.298 A 
ATOM     25  O   UNK A   0       3.353   6.214 -12.481  0.00  0.00    -0.264 OA
ATOM     26  C   UNK A   0       2.589   5.625 -10.399  0.00  0.00    +0.146 A 
ATOM     27  N   UNK A   0       3.715   4.846 -10.212  0.00  0.00    -0.243 N 
ATOM     28  C   UNK A   0       4.079   4.310  -8.765  0.00  0.00    +0.124 C 
ATOM     29  C   UNK A   0       2.510   4.030  -8.316  0.00  0.00    +0.136 C 
ATOM     30  N   UNK A   0       1.825   5.263  -8.233  0.00  0.00    -0.217 NA
ATOM     31  C   UNK A   0       4.916   5.289 -10.866  0.00  0.00    +0.307 C 
ATOM     32  O   UNK A   0       5.958   5.610 -10.263  0.00  0.00    -0.265 OA
ATOM     33  C   UNK A   0       1.652   5.987  -9.456  0.00  0.00    +0.169 A 
ATOM     34  N   UNK A   0       0.502   6.605  -9.794  0.00  0.00    -0.193 NA
ENDBRANCH  20  28
ENDBRANCH  19  20
ENDBRANCH   1  19
TORSDOF 9
ENDMDL
MODEL 2
REMARK VINA RESULT:      -8.3      2.757      9.840
REMARK  Name = 
REMARK  9 active torsions:
REMARK  status: ('A' for Active; 'I' for Inactive)
REMARK    1  A    between atoms: C_12  and  C_13
REMARK    2  A    between atoms: C_13  and  N_14
REMARK    3  A    between atoms: N_14  and  C_15
REMARK    4  A    between atoms: C_18  and  C_19
REMARK    5  A    between atoms: N_21  and  CA_22
REMARK    6  A    between atoms: CA_22  and  CB_23
REMARK    7  A    between atoms: CA_22  and  C_28
REMARK    8  A    between atoms: CB_23  and  CG_24
REMARK    9  A    between atoms: CG_24  and  CD_25
REMARK                            x       y       z     vdW  Elec       q    Type
REMARK                         _______ _______ _______ _____ _____    ______ ____
ROOT
ATOM      1  C   UNK A   0       2.375   5.795  -8.834  0.00  0.00    +0.065 A 
ATOM      2  C   UNK A   0       1.529   5.572  -9.907  0.00  0.00    +0.016 A 
ATOM      3  C   UNK A   0       2.043   5.621 -11.200  0.00  0.00    +0.006 A 
ATOM      4  C   UNK A   0       3.310   6.086 -11.447  0.00  0.00    +0.055 A 
ATOM      5  C   UNK A   0       3.892   6.833 -10.435  0.00  0.00    +0.006 A 
ATOM      6  C   UNK A   0       3.451   6.628  -9.133  0.00  0.00    +0.016 A 
ENDROOT
BRANCH   4   7
ATOM      7  C   UNK A   0       4.110   5.763 -12.605  0.00  0.00    +0.265 C 
ATOM      8  N   GLU A   1       5.485   5.989 -12.593  0.00  0.00    -0.192 NA
ATOM      9  O   UNK A   0       3.617   5.092 -13.550  0.00  0.00    -0.268 OA
BRANCH   8  10
ATOM     10  CA  GLU A   1       6.320   5.524 -13.862  0.00  0.00    +0.199 C 
BRANCH  10  11
ATOM     11  C   GLU A   1       7.737   5.549 -13.052  0.00  0.00    +0.384 C 
ATOM     12  OXT GLU A   1       7.713   6.693 -12.244  0.00  0.00    -0.244 OA
ATOM     13  O   GLU A   1       7.948   4.473 -12.415  0.00  0.00    -0.244 OA
ENDBRANCH  10  11
BRANCH  10  14
ATOM     14  CB  GLU A   1       6.516   7.082 -14.408  0.00  0.00    +0.045 C 
BRANCH  14  15
ATOM     15  CG  GLU A   1       6.356   6.987 -15.907  0.00  0.00    +0.116 C 
BRANCH  15  16
ATOM     16  CD  GLU A   1       5.107   7.688 -16.288  0.00  0.00    +0.365 C 
ATOM     17  OE2 GLU A   1       5.091   9.074 -16.403  0.00  0.00    -0.246 OA
ATOM     18  OE1 GLU A   1       4.012   7.076 -16.286  0.00  0.00    -0.246 OA
ENDBRANCH  15  16
ENDBRANCH  14  15
ENDBRANCH  10  14
ENDBRANCH   8  10
ENDBRANCH   4   7
BRANCH   1  19
ATOM     19  N   UNK A   0       2.471   5.046  -7.675  0.00  0.00    -0.236 NA
BRANCH  19  20
ATOM     20  C   UNK A   0       1.968   5.173  -6.381  0.00  0.00    +0.134 C 
BRANCH  20  28
ATOM     21  N   UNK A   0      -2.674   5.272  -2.047  0.00  0.00    -0.086 NA
ATOM     22  C   UNK A   0      -1.444   5.179  -2.694  0.00  0.00    +0.260 A 
ATOM     23  N   UNK A   0      -0.272   4.999  -2.053  0.00  0.00    -0.171 NA
ATOM     24  C   UNK A   0       0.917   5.339  -2.558  0.00  0.00    +0.298 A 
ATOM     25  O   UNK A   0       1.965   4.986  -1.951  0.00  0.00    -0.264 OA
ATOM     26  C   UNK A   0       0.995   5.779  -3.874  0.00  0.00    +0.146 A 
ATOM     27  N   UNK A   0       2.229   6.228  -4.305  0.00  0.00    -0.243 N 
ATOM     28  C   UNK A   0       2.434   6.661  -5.816  0.00  0.00    +0.124 C 
ATOM     29  C   UNK A   0       0.940   7.357  -5.970  0.00  0.00    +0.136 C 
ATOM     30  N   UNK A   0      -0.051   6.355  -5.869  0.00  0.00    -0.217 NA
ATOM     31  C   UNK A   0       3.372   5.472  -3.873  0.00  0.00    +0.307 C 
ATOM     32  O   UNK A   0       4.153   4.888  -4.649  0.00  0.00    -0.265 OA
ATOM     33  C   UNK A   0      -0.169   5.692  -4.605  0.00  0.00    +0.169 A 
ATOM     34  N   UNK A   0      -1.354   5.404  -4.029  0.00  0.00    -0.193 NA
ENDBRANCH  20  28
ENDBRANCH  19  20
ENDBRANCH   1  19
TORSDOF 9
ENDMDL
MODEL 3
REMARK VINA RESULT:      -8.3      2.585      9.709
REMARK  Name = 
REMARK  9 active torsions:
REMARK  status: ('A' for Active; 'I' for Inactive)
REMARK    1  A    between atoms: C_12  and  C_13
REMARK    2  A    between atoms: C_13  and  N_14
REMARK    3  A    between atoms: N_14  and  C_15
REMARK    4  A    between atoms: C_18  and  C_19
REMARK    5  A    between atoms: N_21  and  CA_22
REMARK    6  A    between atoms: CA_22  and  CB_23
REMARK    7  A    between atoms: CA_22  and  C_28
REMARK    8  A    between atoms: CB_23  and  CG_24
REMARK    9  A    between atoms: CG_24  and  CD_25
REMARK                            x       y       z     vdW  Elec       q    Type
REMARK                         _______ _______ _______ _____ _____    ______ ____
ROOT
ATOM      1  C   UNK A   0       0.239   5.652 -10.168  0.00  0.00    +0.065 A 
ATOM      2  C   UNK A   0      -0.112   4.981 -11.327  0.00  0.00    +0.016 A 
ATOM      3  C   UNK A   0       0.782   4.954 -12.394  0.00  0.00    +0.006 A 
ATOM      4  C   UNK A   0       1.903   5.744 -12.405  0.00  0.00    +0.055 A 
ATOM      5  C   UNK A   0       1.907   6.808 -11.518  0.00  0.00    +0.006 A 
ATOM      6  C   UNK A   0       1.114   6.714 -10.379  0.00  0.00    +0.016 A 
ENDROOT
BRANCH   4   7
ATOM      7  C   UNK A   0       3.102   5.487 -13.168  0.00  0.00    +0.265 C 
ATOM      8  N   GLU A   1       4.354   5.773 -12.627  0.00  0.00    -0.192 NA
ATOM      9  O   UNK A   0       3.044   4.820 -14.236  0.00  0.00    -0.268 OA
BRANCH   8  10
ATOM     10  CA  GLU A   1       5.634   5.379 -13.481  0.00  0.00    +0.199 C 
BRANCH  10  11
ATOM     11  C   GLU A   1       6.580   5.227 -12.159  0.00  0.00    +0.384 C 
ATOM     12  OXT GLU A   1       7.747   4.575 -12.577  0.00  0.00    -0.244 OA
ATOM     13  O   GLU A   1       6.788   6.338 -11.583  0.00  0.00    -0.244 OA
ENDBRANCH  10  11
BRANCH  10  14
ATOM     14  CB  GLU A   1       6.075   6.965 -13.709  0.00  0.00    +0.045 C 
BRANCH  14  15
ATOM     15  CG  GLU A   1       6.529   7.035 -15.148  0.00  0.00    +0.116 C 
BRANCH  15  16
ATOM     16  CD  GLU A   1       5.471   7.705 -15.939  0.00  0.00    +0.365 C 
ATOM     17  OE2 GLU A   1       4.395   6.973 -16.429  0.00  0.00    -0.246 OA
ATOM     18  OE1 GLU A   1       5.645   8.872 -16.369  0.00  0.00    -0.246 OA
ENDBRANCH  15  16
ENDBRANCH  14  15
ENDBRANCH  10  14
ENDBRANCH   8  10
ENDBRANCH   4   7
BRANCH   1  19
ATOM     19  N   UNK A   0       0.115   5.197  -8.868  0.00  0.00    -0.236 NA
BRANCH  19  20
ATOM     20  C   UNK A   0       0.704   5.534  -7.650  0.00  0.00    +0.134 C 
BRANCH  20  28
ATOM     21  N   UNK A   0       5.485   7.751  -4.105  0.00  0.00    -0.086 NA
ATOM     22  C   UNK A   0       4.238   7.347  -4.573  0.00  0.00    +0.260 A 
ATOM     23  N   UNK A   0       3.118   7.350  -3.822  0.00  0.00    -0.171 NA
ATOM     24  C   UNK A   0       2.049   6.587  -4.068  0.00  0.00    +0.298 A 
ATOM     25  O   UNK A   0       0.994   6.777  -3.404  0.00  0.00    -0.264 OA
ATOM     26  C   UNK A   0       2.004   5.839  -5.239  0.00  0.00    +0.146 A 
ATOM     27  N   UNK A   0       0.931   4.981  -5.385  0.00  0.00    -0.243 N 
ATOM     28  C   UNK A   0       0.748   4.158  -6.727  0.00  0.00    +0.124 C 
ATOM     29  C   UNK A   0       2.365   3.879  -6.946  0.00  0.00    +0.136 C 
ATOM     30  N   UNK A   0       3.017   5.106  -7.199  0.00  0.00    -0.217 NA
ATOM     31  C   UNK A   0      -0.348   5.478  -4.960  0.00  0.00    +0.307 C 
ATOM     32  O   UNK A   0      -1.326   5.622  -5.719  0.00  0.00    -0.265 OA
ATOM     33  C   UNK A   0       3.030   6.061  -6.132  0.00  0.00    +0.169 A 
ATOM     34  N   UNK A   0       4.115   6.791  -5.804  0.00  0.00    -0.193 NA
ENDBRANCH  20  28
ENDBRANCH  19  20
ENDBRANCH   1  19
TORSDOF 9
ENDMDL
MODEL 4
REMARK VINA RESULT:      -8.3      2.374      3.866
REMARK  Name = 
REMARK  9 active torsions:
REMARK  status: ('A' for Active; 'I' for Inactive)
REMARK    1  A    between atoms: C_12  and  C_13
REMARK    2  A    between atoms: C_13  and  N_14
REMARK    3  A    between atoms: N_14  and  C_15
REMARK    4  A    between atoms: C_18  and  C_19
REMARK    5  A    between atoms: N_21  and  CA_22
REMARK    6  A    between atoms: CA_22  and  CB_23
REMARK    7  A    between atoms: CA_22  and  C_28
REMARK    8  A    between atoms: CB_23  and  CG_24
REMARK    9  A    between atoms: CG_24  and  CD_25
REMARK                            x       y       z     vdW  Elec       q    Type
REMARK                         _______ _______ _______ _____ _____    ______ ____
ROOT
ATOM      1  C   UNK A   0       0.925   5.846  -7.976  0.00  0.00    +0.065 A 
ATOM      2  C   UNK A   0       1.477   6.876  -7.234  0.00  0.00    +0.016 A 
ATOM      3  C   UNK A   0       1.115   7.020  -5.897  0.00  0.00    +0.006 A 
ATOM      4  C   UNK A   0       0.076   6.304  -5.358  0.00  0.00    +0.055 A 
ATOM      5  C   UNK A   0      -0.805   5.736  -6.264  0.00  0.00    +0.006 A 
ATOM      6  C   UNK A   0      -0.342   5.462  -7.546  0.00  0.00    +0.016 A 
ENDROOT
BRANCH   4   7
ATOM      7  C   UNK A   0      -0.096   6.003  -3.957  0.00  0.00    +0.265 C 
ATOM      8  N   GLU A   1      -1.091   6.641  -3.219  0.00  0.00    -0.192 NA
ATOM      9  O   UNK A   0       0.506   5.026  -3.439  0.00  0.00    -0.268 OA
BRANCH   8  10
ATOM     10  CA  GLU A   1      -1.288   6.197  -1.706  0.00  0.00    +0.199 C 
BRANCH  10  11
ATOM     11  C   GLU A   1      -2.798   5.636  -1.974  0.00  0.00    +0.384 C 
ATOM     12  OXT GLU A   1      -3.530   6.704  -2.507  0.00  0.00    -0.244 OA
ATOM     13  O   GLU A   1      -2.806   4.594  -2.696  0.00  0.00    -0.244 OA
ENDBRANCH  10  11
BRANCH  10  14
ATOM     14  CB  GLU A   1      -1.842   7.696  -1.250  0.00  0.00    +0.045 C 
BRANCH  14  15
ATOM     15  CG  GLU A   1      -1.750   7.697   0.258  0.00  0.00    +0.116 C 
BRANCH  15  16
ATOM     16  CD  GLU A   1      -0.410   8.195   0.644  0.00  0.00    +0.365 C 
ATOM     17  OE2 GLU A   1       0.540   7.320   1.161  0.00  0.00    -0.246 OA
ATOM     18  OE1 GLU A   1      -0.193   9.428   0.727  0.00  0.00    -0.246 OA
ENDBRANCH  15  16
ENDBRANCH  14  15
ENDBRANCH  10  14
ENDBRANCH   8  10
ENDBRANCH   4   7
BRANCH   1  19
ATOM     19  N   UNK A   0       1.591   4.968  -8.813  0.00  0.00    -0.236 NA
BRANCH  19  20
ATOM     20  C   UNK A   0       2.423   5.110  -9.923  0.00  0.00    +0.134 C 
BRANCH  20  28
ATOM     21  N   UNK A   0       7.909   5.110 -13.123  0.00  0.00    -0.086 NA
ATOM     22  C   UNK A   0       6.565   5.041 -12.764  0.00  0.00    +0.260 A 
ATOM     23  N   UNK A   0       5.561   4.879 -13.648  0.00  0.00    -0.171 NA
ATOM     24  C   UNK A   0       4.296   5.243 -13.418  0.00  0.00    +0.298 A 
ATOM     25  O   UNK A   0       3.401   4.906 -14.242  0.00  0.00    -0.264 OA
ATOM     26  C   UNK A   0       3.937   5.689 -12.152  0.00  0.00    +0.146 A 
ATOM     27  N   UNK A   0       2.646   6.162 -12.004  0.00  0.00    -0.243 N 
ATOM     28  C   UNK A   0       2.121   6.604 -10.576  0.00  0.00    +0.124 C 
ATOM     29  C   UNK A   0       3.556   7.274 -10.095  0.00  0.00    +0.136 C 
ATOM     30  N   UNK A   0       4.526   6.254  -9.975  0.00  0.00    -0.217 NA
ATOM     31  C   UNK A   0       1.614   5.424 -12.679  0.00  0.00    +0.307 C 
ATOM     32  O   UNK A   0       0.670   4.858 -12.095  0.00  0.00    -0.265 OA
ATOM     33  C   UNK A   0       4.909   5.584 -11.182  0.00  0.00    +0.169 A 
ATOM     34  N   UNK A   0       6.186   5.273 -11.482  0.00  0.00    -0.193 NA
ENDBRANCH  20  28
ENDBRANCH  19  20
ENDBRANCH   1  19
TORSDOF 9
ENDMDL
MODEL 5
REMARK VINA RESULT:      -8.3      3.089      9.904
REMARK  Name = 
REMARK  9 active torsions:
REMARK  status: ('A' for Active; 'I' for Inactive)
REMARK    1  A    between atoms: C_12  and  C_13
REMARK    2  A    between atoms: C_13  and  N_14
REMARK    3  A    between atoms: N_14  and  C_15
REMARK    4  A    between atoms: C_18  and  C_19
REMARK    5  A    between atoms: N_21  and  CA_22
REMARK    6  A    between atoms: CA_22  and  CB_23
REMARK    7  A    between atoms: CA_22  and  C_28
REMARK    8  A    between atoms: CB_23  and  CG_24
REMARK    9  A    between atoms: CG_24  and  CD_25
REMARK                            x       y       z     vdW  Elec       q    Type
REMARK                         _______ _______ _______ _____ _____    ______ ____
ROOT
ATOM      1  C   UNK A   0       3.549   6.287  -7.034  0.00  0.00    +0.065 A 
ATOM      2  C   UNK A   0       4.632   5.507  -7.400  0.00  0.00    +0.016 A 
ATOM      3  C   UNK A   0       5.063   5.520  -8.723  0.00  0.00    +0.006 A 
ATOM      4  C   UNK A   0       4.319   6.117  -9.710  0.00  0.00    +0.055 A 
ATOM      5  C   UNK A   0       2.991   6.364  -9.405  0.00  0.00    +0.006 A 
ATOM      6  C   UNK A   0       2.640   6.504  -8.067  0.00  0.00    +0.016 A 
ENDROOT
BRANCH   4   7
ATOM      7  C   UNK A   0       4.834   6.606 -10.967  0.00  0.00    +0.265 C 
ATOM      8  N   GLU A   1       4.402   6.047 -12.168  0.00  0.00    -0.192 NA
ATOM      9  O   UNK A   0       5.516   7.665 -11.005  0.00  0.00    -0.268 OA
BRANCH   8  10
ATOM     10  CA  GLU A   1       4.936   6.693 -13.517  0.00  0.00    +0.199 C 
BRANCH  10  11
ATOM     11  C   GLU A   1       3.692   6.106 -14.396  0.00  0.00    +0.384 C 
ATOM     12  OXT GLU A   1       3.905   6.524 -15.716  0.00  0.00    -0.244 OA
ATOM     13  O   GLU A   1       3.559   4.851 -14.268  0.00  0.00    -0.244 OA
ENDBRANCH  10  11
BRANCH  10  14
ATOM     14  CB  GLU A   1       5.898   5.383 -13.862  0.00  0.00    +0.045 C 
BRANCH  14  15
ATOM     15  CG  GLU A   1       7.296   5.947 -13.961  0.00  0.00    +0.116 C 
BRANCH  15  16
ATOM     16  CD  GLU A   1       8.050   5.540 -12.752  0.00  0.00    +0.365 C 
ATOM     17  OE2 GLU A   1       9.293   6.101 -12.482  0.00  0.00    -0.246 OA
ATOM     18  OE1 GLU A   1       7.692   4.534 -12.092  0.00  0.00    -0.246 OA
ENDBRANCH  15  16
ENDBRANCH  14  15
ENDBRANCH  10  14
ENDBRANCH   8  10
ENDBRANCH   4   7
BRANCH   1  19
ATOM     19  N   UNK A   0       3.452   7.122  -5.935  0.00  0.00    -0.236 NA
BRANCH  19  20
ATOM     20  C   UNK A   0       3.088   6.949  -4.600  0.00  0.00    +0.134 C 
BRANCH  20  28
ATOM     21  N   UNK A   0       4.637   6.965   1.559  0.00  0.00    -0.086 NA
ATOM     22  C   UNK A   0       3.948   6.973   0.349  0.00  0.00    +0.260 A 
ATOM     23  N   UNK A   0       2.604   6.936   0.252  0.00  0.00    -0.171 NA
ATOM     24  C   UNK A   0       1.943   6.506  -0.826  0.00  0.00    +0.298 A 
ATOM     25  O   UNK A   0       0.692   6.659  -0.881  0.00  0.00    -0.264 OA
ATOM     26  C   UNK A   0       2.653   6.203  -1.982  0.00  0.00    +0.146 A 
ATOM     27  N   UNK A   0       1.934   5.653  -3.026  0.00  0.00    -0.243 N 
ATOM     28  C   UNK A   0       2.642   5.363  -4.413  0.00  0.00    +0.124 C 
ATOM     29  C   UNK A   0       4.077   4.878  -3.745  0.00  0.00    +0.136 C 
ATOM     30  N   UNK A   0       4.681   5.979  -3.097  0.00  0.00    -0.217 NA
ATOM     31  C   UNK A   0       0.632   6.210  -3.269  0.00  0.00    +0.307 C 
ATOM     32  O   UNK A   0       0.304   6.772  -4.332  0.00  0.00    -0.265 OA
ATOM     33  C   UNK A   0       3.996   6.512  -1.959  0.00  0.00    +0.169 A 
ATOM     34  N   UNK A   0       4.623   6.882  -0.824  0.00  0.00    -0.193 NA
ENDBRANCH  20  28
ENDBRANCH  19  20
ENDBRANCH   1  19
TORSDOF 9
ENDMDL
MODEL 6
REMARK VINA RESULT:      -7.9      1.109      2.465
REMARK  Name = 
REMARK  9 active torsions:
REMARK  status: ('A' for Active; 'I' for Inactive)
REMARK    1  A    between atoms: C_12  and  C_13
REMARK    2  A    between atoms: C_13  and  N_14
REMARK    3  A    between atoms: N_14  and  C_15
REMARK    4  A    between atoms: C_18  and  C_19
REMARK    5  A    between atoms: N_21  and  CA_22
REMARK    6  A    between atoms: CA_22  and  CB_23
REMARK    7  A    between atoms: CA_22  and  C_28
REMARK    8  A    between atoms: CB_23  and  CG_24
REMARK    9  A    between atoms: CG_24  and  CD_25
REMARK                            x       y       z     vdW  Elec       q    Type
REMARK                         _______ _______ _______ _____ _____    ______ ____
ROOT
ATOM      1  C   UNK A   0       4.191   5.602  -5.333  0.00  0.00    +0.065 A 
ATOM      2  C   UNK A   0       3.442   4.518  -4.906  0.00  0.00    +0.016 A 
ATOM      3  C   UNK A   0       2.378   4.729  -4.034  0.00  0.00    +0.006 A 
ATOM      4  C   UNK A   0       2.183   5.944  -3.427  0.00  0.00    +0.055 A 
ATOM      5  C   UNK A   0       3.270   6.804  -3.424  0.00  0.00    +0.006 A 
ATOM      6  C   UNK A   0       4.228   6.653  -4.420  0.00  0.00    +0.016 A 
ENDROOT
BRANCH   4   7
ATOM      7  C   UNK A   0       0.926   6.430  -2.909  0.00  0.00    +0.265 C 
ATOM      8  N   GLU A   1      -0.233   6.337  -3.677  0.00  0.00    -0.192 NA
ATOM      9  O   UNK A   0       0.821   6.751  -1.695  0.00  0.00    -0.268 OA
BRANCH   8  10
ATOM     10  CA  GLU A   1      -1.598   6.803  -3.013  0.00  0.00    +0.199 C 
BRANCH  10  11
ATOM     11  C   GLU A   1      -2.129   5.272  -2.816  0.00  0.00    +0.384 C 
ATOM     12  OXT GLU A   1      -2.116   5.020  -1.438  0.00  0.00    -0.244 OA
ATOM     13  O   GLU A   1      -3.256   5.076  -3.365  0.00  0.00    -0.244 OA
ENDBRANCH  10  11
BRANCH  10  14
ATOM     14  CB  GLU A   1      -2.358   6.959  -4.482  0.00  0.00    +0.045 C 
BRANCH  14  15
ATOM     15  CG  GLU A   1      -1.295   6.628  -5.503  0.00  0.00    +0.116 C 
BRANCH  15  16
ATOM     16  CD  GLU A   1      -1.883   5.715  -6.510  0.00  0.00    +0.365 C 
ATOM     17  OE2 GLU A   1      -3.257   5.700  -6.723  0.00  0.00    -0.246 OA
ATOM     18  OE1 GLU A   1      -1.191   4.795  -7.012  0.00  0.00    -0.246 OA
ENDBRANCH  15  16
ENDBRANCH  14  15
ENDBRANCH  10  14
ENDBRANCH   8  10
ENDBRANCH   4   7
BRANCH   1  19
ATOM     19  N   UNK A   0       4.583   5.889  -6.628  0.00  0.00    -0.236 NA
BRANCH  19  20
ATOM     20  C   UNK A   0       3.935   5.935  -7.862  0.00  0.00    +0.134 C 
BRANCH  20  28
ATOM     21  N   UNK A   0      -0.965   7.068 -11.741  0.00  0.00    -0.086 NA
ATOM     22  C   UNK A   0       0.305   6.859 -11.211  0.00  0.00    +0.260 A 
ATOM     23  N   UNK A   0       1.430   6.811 -11.953  0.00  0.00    -0.171 NA
ATOM     24  C   UNK A   0       2.552   6.195 -11.573  0.00  0.00    +0.298 A 
ATOM     25  O   UNK A   0       3.598   6.342 -12.264  0.00  0.00    -0.264 OA
ATOM     26  C   UNK A   0       2.642   5.683 -10.284  0.00  0.00    +0.146 A 
ATOM     27  N   UNK A   0       3.779   4.955  -9.984  0.00  0.00    -0.243 N 
ATOM     28  C   UNK A   0       4.010   4.412  -8.513  0.00  0.00    +0.124 C 
ATOM     29  C   UNK A   0       2.417   4.051  -8.241  0.00  0.00    +0.136 C 
ATOM     30  N   UNK A   0       1.668   5.248  -8.218  0.00  0.00    -0.217 NA
ATOM     31  C   UNK A   0       5.020   5.465 -10.499  0.00  0.00    +0.307 C 
ATOM     32  O   UNK A   0       5.973   5.825  -9.782  0.00  0.00    -0.265 OA
ATOM     33  C   UNK A   0       1.593   5.984  -9.444  0.00  0.00    +0.169 A 
ATOM     34  N   UNK A   0       0.457   6.552  -9.898  0.00  0.00    -0.193 NA
ENDBRANCH  20  28
ENDBRANCH  19  20
ENDBRANCH   1  19
TORSDOF 9
ENDMDL
MODEL 7
REMARK VINA RESULT:      -7.8      2.345      4.484
REMARK  Name = 
REMARK  9 active torsions:
REMARK  status: ('A' for Active; 'I' for Inactive)
REMARK    1  A    between atoms: C_12  and  C_13
REMARK    2  A    between atoms: C_13  and  N_14
REMARK    3  A    between atoms: N_14  and  C_15
REMARK    4  A    between atoms: C_18  and  C_19
REMARK    5  A    between atoms: N_21  and  CA_22
REMARK    6  A    between atoms: CA_22  and  CB_23
REMARK    7  A    between atoms: CA_22  and  C_28
REMARK    8  A    between atoms: CB_23  and  CG_24
REMARK    9  A    between atoms: CG_24  and  CD_25
REMARK                            x       y       z     vdW  Elec       q    Type
REMARK                         _______ _______ _______ _____ _____    ______ ____
ROOT
ATOM      1  C   UNK A   0      -0.529   5.853  -6.885  0.00  0.00    +0.065 A 
ATOM      2  C   UNK A   0      -0.118   6.894  -6.069  0.00  0.00    +0.016 A 
ATOM      3  C   UNK A   0      -0.533   6.921  -4.740  0.00  0.00    +0.006 A 
ATOM      4  C   UNK A   0      -1.501   6.065  -4.278  0.00  0.00    +0.055 A 
ATOM      5  C   UNK A   0      -2.286   5.456  -5.243  0.00  0.00    +0.006 A 
ATOM      6  C   UNK A   0      -1.758   5.308  -6.520  0.00  0.00    +0.016 A 
ENDROOT
BRANCH   4   7
ATOM      7  C   UNK A   0      -1.679   5.668  -2.901  0.00  0.00    +0.265 C 
ATOM      8  N   GLU A   1      -1.141   6.439  -1.872  0.00  0.00    -0.192 NA
ATOM      9  O   UNK A   0      -2.485   4.746  -2.605  0.00  0.00    -0.268 OA
BRANCH   8  10
ATOM     10  CA  GLU A   1      -1.452   5.998  -0.379  0.00  0.00    +0.199 C 
BRANCH  10  11
ATOM     11  C   GLU A   1      -2.130   7.435  -0.001  0.00  0.00    +0.384 C 
ATOM     12  OXT GLU A   1      -1.882   7.645   1.361  0.00  0.00    -0.244 OA
ATOM     13  O   GLU A   1      -1.721   8.374  -0.750  0.00  0.00    -0.244 OA
ENDBRANCH  10  11
BRANCH  10  14
ATOM     14  CB  GLU A   1       0.044   6.473   0.164  0.00  0.00    +0.045 C 
BRANCH  14  15
ATOM     15  CG  GLU A   1       1.008   5.990  -0.894  0.00  0.00    +0.116 C 
BRANCH  15  16
ATOM     16  CD  GLU A   1       2.377   6.398  -0.499  0.00  0.00    +0.365 C 
ATOM     17  OE2 GLU A   1       3.483   5.776  -1.068  0.00  0.00    -0.246 OA
ATOM     18  OE1 GLU A   1       2.554   7.132   0.504  0.00  0.00    -0.246 OA
ENDBRANCH  15  16
ENDBRANCH  14  15
ENDBRANCH  10  14
ENDBRANCH   8  10
ENDBRANCH   4   7
BRANCH   1  19
ATOM     19  N   UNK A   0       0.254   5.103  -7.743  0.00  0.00    -0.236 NA
BRANCH  19  20
ATOM     20  C   UNK A   0       1.434   5.334  -8.449  0.00  0.00    +0.134 C 
BRANCH  20  28
ATOM     21  N   UNK A   0       7.681   5.654  -9.545  0.00  0.00    -0.086 NA
ATOM     22  C   UNK A   0       6.302   5.519  -9.676  0.00  0.00    +0.260 A 
ATOM     23  N   UNK A   0       5.675   5.343 -10.856  0.00  0.00    -0.171 NA
ATOM     24  C   UNK A   0       4.392   5.647 -11.075  0.00  0.00    +0.298 A 
ATOM     25  O   UNK A   0       3.856   5.299 -12.162  0.00  0.00    -0.264 OA
ATOM     26  C   UNK A   0       3.596   6.041 -10.006  0.00  0.00    +0.146 A 
ATOM     27  N   UNK A   0       2.312   6.455 -10.309  0.00  0.00    -0.243 N 
ATOM     28  C   UNK A   0       1.304   6.833  -9.146  0.00  0.00    +0.124 C 
ATOM     29  C   UNK A   0       2.450   7.547  -8.188  0.00  0.00    +0.136 C 
ATOM     30  N   UNK A   0       3.367   6.565  -7.753  0.00  0.00    -0.217 NA
ATOM     31  C   UNK A   0       1.614   5.697 -11.310  0.00  0.00    +0.307 C 
ATOM     32  O   UNK A   0       0.556   5.074 -11.098  0.00  0.00    -0.265 OA
ATOM     33  C   UNK A   0       4.176   5.947  -8.760  0.00  0.00    +0.169 A 
ATOM     34  N   UNK A   0       5.491   5.697  -8.603  0.00  0.00    -0.193 NA
ENDBRANCH  20  28
ENDBRANCH  19  20
ENDBRANCH   1  19
TORSDOF 9
ENDMDL
MODEL 8
REMARK VINA RESULT:      -7.7      2.523      4.348
REMARK  Name = 
REMARK  9 active torsions:
REMARK  status: ('A' for Active; 'I' for Inactive)
REMARK    1  A    between atoms: C_12  and  C_13
REMARK    2  A    between atoms: C_13  and  N_14
REMARK    3  A    between atoms: N_14  and  C_15
REMARK    4  A    between atoms: C_18  and  C_19
REMARK    5  A    between atoms: N_21  and  CA_22
REMARK    6  A    between atoms: CA_22  and  CB_23
REMARK    7  A    between atoms: CA_22  and  C_28
REMARK    8  A    between atoms: CB_23  and  CG_24
REMARK    9  A    between atoms: CG_24  and  CD_25
REMARK                            x       y       z     vdW  Elec       q    Type
REMARK                         _______ _______ _______ _____ _____    ______ ____
ROOT
ATOM      1  C   UNK A   0       2.076   4.547  -7.100  0.00  0.00    +0.065 A 
ATOM      2  C   UNK A   0       1.187   4.220  -6.089  0.00  0.00    +0.016 A 
ATOM      3  C   UNK A   0       1.347   4.794  -4.831  0.00  0.00    +0.006 A 
ATOM      4  C   UNK A   0       2.475   5.507  -4.510  0.00  0.00    +0.055 A 
ATOM      5  C   UNK A   0       3.571   5.313  -5.335  0.00  0.00    +0.006 A 
ATOM      6  C   UNK A   0       3.344   4.892  -6.640  0.00  0.00    +0.016 A 
ENDROOT
BRANCH   4   7
ATOM      7  C   UNK A   0       2.566   6.509  -3.476  0.00  0.00    +0.265 C 
ATOM      8  N   GLU A   1       2.225   6.195  -2.161  0.00  0.00    -0.192 NA
ATOM      9  O   UNK A   0       3.141   7.607  -3.704  0.00  0.00    -0.268 OA
BRANCH   8  10
ATOM     10  CA  GLU A   1       2.437   7.316  -1.056  0.00  0.00    +0.199 C 
BRANCH  10  11
ATOM     11  C   GLU A   1       3.675   6.516  -0.354  0.00  0.00    +0.384 C 
ATOM     12  OXT GLU A   1       3.389   5.151  -0.480  0.00  0.00    -0.244 OA
ATOM     13  O   GLU A   1       4.801   6.853  -0.831  0.00  0.00    -0.244 OA
ENDBRANCH  10  11
BRANCH  10  14
ATOM     14  CB  GLU A   1       1.317   6.638  -0.033  0.00  0.00    +0.045 C 
BRANCH  14  15
ATOM     15  CG  GLU A   1       0.046   6.566  -0.845  0.00  0.00    +0.116 C 
BRANCH  15  16
ATOM     16  CD  GLU A   1      -1.039   7.214  -0.073  0.00  0.00    +0.365 C 
ATOM     17  OE2 GLU A   1      -1.791   6.475   0.833  0.00  0.00    -0.246 OA
ATOM     18  OE1 GLU A   1      -1.441   8.361  -0.387  0.00  0.00    -0.246 OA
ENDBRANCH  15  16
ENDBRANCH  14  15
ENDBRANCH  10  14
ENDBRANCH   8  10
ENDBRANCH   4   7
BRANCH   1  19
ATOM     19  N   UNK A   0       1.770   4.898  -8.402  0.00  0.00    -0.236 NA
BRANCH  19  20
ATOM     20  C   UNK A   0       2.508   5.061  -9.574  0.00  0.00    +0.134 C 
BRANCH  20  28
ATOM     21  N   UNK A   0       7.758   5.153 -13.146  0.00  0.00    -0.086 NA
ATOM     22  C   UNK A   0       6.443   5.071 -12.697  0.00  0.00    +0.260 A 
ATOM     23  N   UNK A   0       5.379   4.926 -13.512  0.00  0.00    -0.171 NA
ATOM     24  C   UNK A   0       4.133   5.279 -13.187  0.00  0.00    +0.298 A 
ATOM     25  O   UNK A   0       3.184   4.958 -13.954  0.00  0.00    -0.264 OA
ATOM     26  C   UNK A   0       3.862   5.696 -11.889  0.00  0.00    +0.146 A 
ATOM     27  N   UNK A   0       2.584   6.160 -11.641  0.00  0.00    -0.243 N 
ATOM     28  C   UNK A   0       2.158   6.568 -10.170  0.00  0.00    +0.124 C 
ATOM     29  C   UNK A   0       3.622   7.232  -9.775  0.00  0.00    +0.136 C 
ATOM     30  N   UNK A   0       4.600   6.214  -9.746  0.00  0.00    -0.217 NA
ATOM     31  C   UNK A   0       1.508   5.435 -12.259  0.00  0.00    +0.307 C 
ATOM     32  O   UNK A   0       0.609   4.851 -11.624  0.00  0.00    -0.265 OA
ATOM     33  C   UNK A   0       4.899   5.572 -10.991  0.00  0.00    +0.169 A 
ATOM     34  N   UNK A   0       6.153   5.272 -11.387  0.00  0.00    -0.193 NA
ENDBRANCH  20  28
ENDBRANCH  19  20
ENDBRANCH   1  19
TORSDOF 9
ENDMDL
MODEL 9
REMARK VINA RESULT:      -7.7      2.747      9.206
REMARK  Name = 
REMARK  9 active torsions:
REMARK  status: ('A' for Active; 'I' for Inactive)
REMARK    1  A    between atoms: C_12  and  C_13
REMARK    2  A    between atoms: C_13  and  N_14
REMARK    3  A    between atoms: N_14  and  C_15
REMARK    4  A    between atoms: C_18  and  C_19
REMARK    5  A    between atoms: N_21  and  CA_22
REMARK    6  A    between atoms: CA_22  and  CB_23
REMARK    7  A    between atoms: CA_22  and  C_28
REMARK    8  A    between atoms: CB_23  and  CG_24
REMARK    9  A    between atoms: CG_24  and  CD_25
REMARK                            x       y       z     vdW  Elec       q    Type
REMARK                         _______ _______ _______ _____ _____    ______ ____
ROOT
ATOM      1  C   UNK A   0       3.805   5.755  -7.745  0.00  0.00    +0.065 A 
ATOM      2  C   UNK A   0       3.474   6.747  -8.653  0.00  0.00    +0.016 A 
ATOM      3  C   UNK A   0       4.146   6.805  -9.871  0.00  0.00    +0.006 A 
ATOM      4  C   UNK A   0       5.262   6.042 -10.107  0.00  0.00    +0.055 A 
ATOM      5  C   UNK A   0       5.887   5.516  -8.988  0.00  0.00    +0.006 A 
ATOM      6  C   UNK A   0       5.126   5.326  -7.840  0.00  0.00    +0.016 A 
ENDROOT
BRANCH   4   7
ATOM      7  C   UNK A   0       5.751   5.655 -11.409  0.00  0.00    +0.265 C 
ATOM      8  N   GLU A   1       5.154   6.161 -12.562  0.00  0.00    -0.192 NA
ATOM      9  O   UNK A   0       6.838   5.027 -11.518  0.00  0.00    -0.268 OA
BRANCH   8  10
ATOM     10  CA  GLU A   1       5.800   5.770 -13.960  0.00  0.00    +0.199 C 
BRANCH  10  11
ATOM     11  C   GLU A   1       6.507   7.230 -14.143  0.00  0.00    +0.384 C 
ATOM     12  OXT GLU A   1       5.935   7.808 -15.284  0.00  0.00    -0.244 OA
ATOM     13  O   GLU A   1       6.415   7.947 -13.101  0.00  0.00    -0.244 OA
ENDBRANCH  10  11
BRANCH  10  14
ATOM     14  CB  GLU A   1       4.449   6.231 -14.810  0.00  0.00    +0.045 C 
BRANCH  14  15
ATOM     15  CG  GLU A   1       3.286   5.794 -13.951  0.00  0.00    +0.116 C 
BRANCH  15  16
ATOM     16  CD  GLU A   1       2.035   6.287 -14.572  0.00  0.00    +0.365 C 
ATOM     17  OE2 GLU A   1       2.087   7.115 -15.688  0.00  0.00    -0.246 OA
ATOM     18  OE1 GLU A   1       0.938   6.158 -13.974  0.00  0.00    -0.246 OA
ENDBRANCH  15  16
ENDBRANCH  14  15
ENDBRANCH  10  14
ENDBRANCH   8  10
ENDBRANCH   4   7
BRANCH   1  19
ATOM     19  N   UNK A   0       2.935   4.939  -7.044  0.00  0.00    -0.236 NA
BRANCH  19  20
ATOM     20  C   UNK A   0       2.105   5.111  -5.937  0.00  0.00    +0.134 C 
BRANCH  20  28
ATOM     21  N   UNK A   0      -3.482   5.400  -2.930  0.00  0.00    -0.086 NA
ATOM     22  C   UNK A   0      -2.131   5.265  -3.241  0.00  0.00    +0.260 A 
ATOM     23  N   UNK A   0      -1.166   5.065  -2.321  0.00  0.00    -0.171 NA
ATOM     24  C   UNK A   0       0.121   5.367  -2.510  0.00  0.00    +0.298 A 
ATOM     25  O   UNK A   0       0.971   4.997  -1.653  0.00  0.00    -0.264 OA
ATOM     26  C   UNK A   0       0.544   5.783  -3.766  0.00  0.00    +0.146 A 
ATOM     27  N   UNK A   0       1.860   6.193  -3.874  0.00  0.00    -0.243 N 
ATOM     28  C   UNK A   0       2.454   6.596  -5.286  0.00  0.00    +0.124 C 
ATOM     29  C   UNK A   0       1.070   7.327  -5.823  0.00  0.00    +0.136 C 
ATOM     30  N   UNK A   0       0.057   6.353  -5.967  0.00  0.00    -0.217 NA
ATOM     31  C   UNK A   0       2.833   5.415  -3.157  0.00  0.00    +0.307 C 
ATOM     32  O   UNK A   0       3.769   4.799  -3.703  0.00  0.00    -0.265 OA
ATOM     33  C   UNK A   0      -0.398   5.714  -4.769  0.00  0.00    +0.169 A 
ATOM     34  N   UNK A   0      -1.698   5.465  -4.511  0.00  0.00    -0.193 NA
ENDBRANCH  20  28
ENDBRANCH  19  20
ENDBRANCH   1  19
TORSDOF 9
ENDMDL
