MODEL 1
REMARK VINA RESULT:      -7.5      0.000      0.000
REMARK  Name = 
REMARK  3 active torsions:
REMARK  status: ('A' for Active; 'I' for Inactive)
REMARK    1  A    between atoms: C_6  and  C_7
REMARK    2  A    between atoms: N_9  and  C_10
REMARK    3  A    between atoms: C_13  and  C_14
REMARK                            x       y       z     vdW  Elec       q    Type
REMARK                         _______ _______ _______ _____ _____    ______ ____
ROOT
ATOM      1  C   UNL     1       2.988   6.218  -9.874  0.00  0.00    +0.074 A 
ATOM      2  C   UNL     1       1.629   6.373 -10.123  0.00  0.00    +0.017 A 
ATOM      3  C   UNL     1       0.665   5.813  -9.298  0.00  0.00    +0.005 A 
ATOM      4  C   UNL     1       1.029   5.348  -8.040  0.00  0.00    +0.072 A 
ATOM      5  C   UNL     1       2.363   5.267  -7.750  0.00  0.00    +0.005 A 
ATOM      6  C   UNL     1       3.314   5.859  -8.571  0.00  0.00    +0.017 A 
ENDROOT
BRANCH   4   7
ATOM      7  C   UNL     1       0.034   5.368  -6.936  0.00  0.00    +0.419 C 
ATOM      8  F   UNL     1       0.131   6.552  -6.255  0.00  0.00    -0.166 F 
ATOM      9  F   UNL     1       0.352   4.358  -6.036  0.00  0.00    -0.166 F 
ATOM     10  F   UNL     1      -1.220   5.124  -7.442  0.00  0.00    -0.166 F 
ENDBRANCH   4   7
BRANCH   1  12
ATOM     11  C   UNL     1       5.123   6.555 -11.032  0.00  0.00    +0.273 C 
ATOM     12  N   UNL     1       3.875   5.901 -10.952  0.00  0.00    -0.175 NA
ATOM     13  O   UNL     1       5.143   7.789 -10.815  0.00  0.00    -0.268 OA
BRANCH  11  16
ATOM     14  C   UNL     1       7.936   5.535 -10.163  0.00  0.00    +0.076 C 
ATOM     15  C   UNL     1       7.278   5.284 -11.482  0.00  0.00    +0.159 A 
ATOM     16  C   UNL     1       6.146   5.971 -11.890  0.00  0.00    +0.111 A 
ATOM     17  C   UNL     1       6.098   5.783 -13.265  0.00  0.00    +0.148 A 
ATOM     18  N   UNL     1       7.109   4.958 -13.553  0.00  0.00    -0.076 NA
ATOM     19  O   UNL     1       7.731   4.563 -12.493  0.00  0.00    -0.358 OA
ENDBRANCH  11  16
ENDBRANCH   1  12
TORSDOF 3
ENDMDL
MODEL 2
REMARK VINA RESULT:      -7.3      5.258      8.234
REMARK  Name = 
REMARK  3 active torsions:
REMARK  status: ('A' for Active; 'I' for Inactive)
REMARK    1  A    between atoms: C_6  and  C_7
REMARK    2  A    between atoms: N_9  and  C_10
REMARK    3  A    between atoms: C_13  and  C_14
REMARK                            x       y       z     vdW  Elec       q    Type
REMARK                         _______ _______ _______ _____ _____    ______ ____
ROOT
ATOM      1  C   UNL     1       2.483   7.000  -6.228  0.00  0.00    +0.074 A 
ATOM      2  C   UNL     1       3.699   6.381  -5.963  0.00  0.00    +0.017 A 
ATOM      3  C   UNL     1       4.385   5.665  -6.934  0.00  0.00    +0.005 A 
ATOM      4  C   UNL     1       4.025   5.810  -8.269  0.00  0.00    +0.072 A 
ATOM      5  C   UNL     1       2.872   6.488  -8.551  0.00  0.00    +0.005 A 
ATOM      6  C   UNL     1       2.214   7.224  -7.573  0.00  0.00    +0.017 A 
ENDROOT
BRANCH   4   7
ATOM      7  C   UNL     1       5.054   5.632  -9.327  0.00  0.00    +0.419 C 
ATOM      8  F   UNL     1       6.241   5.263  -8.752  0.00  0.00    -0.166 F 
ATOM      9  F   UNL     1       5.269   6.859  -9.944  0.00  0.00    -0.166 F 
ATOM     10  F   UNL     1       4.596   4.743 -10.269  0.00  0.00    -0.166 F 
ENDBRANCH   4   7
BRANCH   1  12
ATOM     11  C   UNL     1       0.997   5.604  -4.865  0.00  0.00    +0.273 C 
ATOM     12  N   UNL     1       1.409   6.886  -5.287  0.00  0.00    -0.175 NA
ATOM     13  O   UNL     1       0.891   4.713  -5.740  0.00  0.00    -0.268 OA
BRANCH  11  16
ATOM     14  C   UNL     1      -2.048   6.217  -4.613  0.00  0.00    +0.076 C 
ATOM     15  C   UNL     1      -1.201   5.528  -3.590  0.00  0.00    +0.159 A 
ATOM     16  C   UNL     1       0.183   5.512  -3.660  0.00  0.00    +0.111 A 
ATOM     17  C   UNL     1       0.595   5.175  -2.377  0.00  0.00    +0.148 A 
ATOM     18  N   UNL     1      -0.525   4.933  -1.690  0.00  0.00    -0.076 NA
ATOM     19  O   UNL     1      -1.579   5.019  -2.430  0.00  0.00    -0.358 OA
ENDBRANCH  11  16
ENDBRANCH   1  12
TORSDOF 3
ENDMDL
MODEL 3
REMARK VINA RESULT:      -7.3      5.077      7.328
REMARK  Name = 
REMARK  3 active torsions:
REMARK  status: ('A' for Active; 'I' for Inactive)
REMARK    1  A    between atoms: C_6  and  C_7
REMARK    2  A    between atoms: N_9  and  C_10
REMARK    3  A    between atoms: C_13  and  C_14
REMARK                            x       y       z     vdW  Elec       q    Type
REMARK                         _______ _______ _______ _____ _____    ______ ____
ROOT
ATOM      1  C   UNL     1       4.201   5.612  -8.660  0.00  0.00    +0.074 A 
ATOM      2  C   UNL     1       3.894   6.335  -9.807  0.00  0.00    +0.017 A 
ATOM      3  C   UNL     1       4.880   6.919 -10.591  0.00  0.00    +0.005 A 
ATOM      4  C   UNL     1       6.205   6.535 -10.420  0.00  0.00    +0.072 A 
ATOM      5  C   UNL     1       6.510   5.754  -9.339  0.00  0.00    +0.005 A 
ATOM      6  C   UNL     1       5.511   5.153  -8.583  0.00  0.00    +0.017 A 
ENDROOT
BRANCH   4   7
ATOM      7  C   UNL     1       7.138   6.594 -11.574  0.00  0.00    +0.419 C 
ATOM      8  F   UNL     1       6.822   7.669 -12.362  0.00  0.00    -0.166 F 
ATOM      9  F   UNL     1       6.952   5.456 -12.351  0.00  0.00    -0.166 F 
ATOM     10  F   UNL     1       8.434   6.606 -11.118  0.00  0.00    -0.166 F 
ENDBRANCH   4   7
BRANCH   1  12
ATOM     11  C   UNL     1       2.871   4.703  -6.811  0.00  0.00    +0.273 C 
ATOM     12  N   UNL     1       3.438   5.818  -7.466  0.00  0.00    -0.175 NA
ATOM     13  O   UNL     1       2.318   3.834  -7.524  0.00  0.00    -0.268 OA
BRANCH  11  16
ATOM     14  C   UNL     1       4.669   4.797  -4.267  0.00  0.00    +0.076 C 
ATOM     15  C   UNL     1       3.223   5.176  -4.338  0.00  0.00    +0.159 A 
ATOM     16  C   UNL     1       2.429   4.875  -5.433  0.00  0.00    +0.111 A 
ATOM     17  C   UNL     1       1.127   4.992  -4.965  0.00  0.00    +0.148 A 
ATOM     18  N   UNL     1       1.234   5.426  -3.706  0.00  0.00    -0.076 NA
ATOM     19  O   UNL     1       2.459   5.653  -3.371  0.00  0.00    -0.358 OA
ENDBRANCH  11  16
ENDBRANCH   1  12
TORSDOF 3
ENDMDL
MODEL 4
REMARK VINA RESULT:      -7.3      2.754      4.218
REMARK  Name = 
REMARK  3 active torsions:
REMARK  status: ('A' for Active; 'I' for Inactive)
REMARK    1  A    between atoms: C_6  and  C_7
REMARK    2  A    between atoms: N_9  and  C_10
REMARK    3  A    between atoms: C_13  and  C_14
REMARK                            x       y       z     vdW  Elec       q    Type
REMARK                         _______ _______ _______ _____ _____    ______ ____
ROOT
ATOM      1  C   UNL     1       0.640   5.132  -6.851  0.00  0.00    +0.074 A 
ATOM      2  C   UNL     1       0.863   5.022  -5.483  0.00  0.00    +0.017 A 
ATOM      3  C   UNL     1      -0.063   5.468  -4.551  0.00  0.00    +0.005 A 
ATOM      4  C   UNL     1      -1.361   5.750  -4.960  0.00  0.00    +0.072 A 
ATOM      5  C   UNL     1      -1.616   5.780  -6.303  0.00  0.00    +0.005 A 
ATOM      6  C   UNL     1      -0.689   5.302  -7.222  0.00  0.00    +0.017 A 
ENDROOT
BRANCH   4   7
ATOM      7  C   UNL     1      -2.483   5.582  -4.000  0.00  0.00    +0.419 C 
ATOM      8  F   UNL     1      -3.474   4.837  -4.581  0.00  0.00    -0.166 F 
ATOM      9  F   UNL     1      -3.025   6.834  -3.731  0.00  0.00    -0.166 F 
ATOM     10  F   UNL     1      -2.008   5.050  -2.826  0.00  0.00    -0.166 F 
ENDBRANCH   4   7
BRANCH   1  12
ATOM     11  C   UNL     1       2.238   4.706  -8.661  0.00  0.00    +0.273 C 
ATOM     12  N   UNL     1       1.691   5.591  -7.708  0.00  0.00    -0.175 NA
ATOM     13  O   UNL     1       2.474   3.532  -8.292  0.00  0.00    -0.268 OA
BRANCH  11  16
ATOM     14  C   UNL     1       5.301   5.276  -8.664  0.00  0.00    +0.076 C 
ATOM     15  C   UNL     1       4.402   5.291  -9.860  0.00  0.00    +0.159 A 
ATOM     16  C   UNL     1       3.021   5.276  -9.750  0.00  0.00    +0.111 A 
ATOM     17  C   UNL     1       2.566   5.716 -10.986  0.00  0.00    +0.148 A 
ATOM     18  N   UNL     1       3.659   5.867 -11.741  0.00  0.00    -0.076 NA
ATOM     19  O   UNL     1       4.731   5.501 -11.123  0.00  0.00    -0.358 OA
ENDBRANCH  11  16
ENDBRANCH   1  12
TORSDOF 3
ENDMDL
MODEL 5
REMARK VINA RESULT:      -7.3      3.277      4.994
REMARK  Name = 
REMARK  3 active torsions:
REMARK  status: ('A' for Active; 'I' for Inactive)
REMARK    1  A    between atoms: C_6  and  C_7
REMARK    2  A    between atoms: N_9  and  C_10
REMARK    3  A    between atoms: C_13  and  C_14
REMARK                            x       y       z     vdW  Elec       q    Type
REMARK                         _______ _______ _______ _____ _____    ______ ____
ROOT
ATOM      1  C   UNL     1       0.046   5.315  -6.754  0.00  0.00    +0.074 A 
ATOM      2  C   UNL     1       0.475   5.446  -5.439  0.00  0.00    +0.017 A 
ATOM      3  C   UNL     1      -0.374   5.880  -4.431  0.00  0.00    +0.005 A 
ATOM      4  C   UNL     1      -1.746   5.897  -4.654  0.00  0.00    +0.072 A 
ATOM      5  C   UNL     1      -2.188   5.688  -5.931  0.00  0.00    +0.005 A 
ATOM      6  C   UNL     1      -1.331   5.225  -6.922  0.00  0.00    +0.017 A 
ENDROOT
BRANCH   4   7
ATOM      7  C   UNL     1      -2.676   5.707  -3.511  0.00  0.00    +0.419 C 
ATOM      8  F   UNL     1      -3.141   6.925  -3.092  0.00  0.00    -0.166 F 
ATOM      9  F   UNL     1      -1.964   5.161  -2.449  0.00  0.00    -0.166 F 
ATOM     10  F   UNL     1      -3.671   4.829  -3.868  0.00  0.00    -0.166 F 
ENDBRANCH   4   7
BRANCH   1  12
ATOM     11  C   UNL     1       1.647   4.875  -8.559  0.00  0.00    +0.273 C 
ATOM     12  N   UNL     1       0.871   5.795  -7.821  0.00  0.00    -0.175 NA
ATOM     13  O   UNL     1       2.256   3.988  -7.918  0.00  0.00    -0.268 OA
BRANCH  11  16
ATOM     14  C   UNL     1       0.177   4.809 -11.306  0.00  0.00    +0.076 C 
ATOM     15  C   UNL     1       1.456   5.525 -11.009  0.00  0.00    +0.159 A 
ATOM     16  C   UNL     1       2.176   5.308  -9.846  0.00  0.00    +0.111 A 
ATOM     17  C   UNL     1       3.446   5.800 -10.123  0.00  0.00    +0.148 A 
ATOM     18  N   UNL     1       3.368   6.335 -11.344  0.00  0.00    -0.076 NA
ATOM     19  O   UNL     1       2.170   6.286 -11.821  0.00  0.00    -0.358 OA
ENDBRANCH  11  16
ENDBRANCH   1  12
TORSDOF 3
ENDMDL
MODEL 6
REMARK VINA RESULT:      -7.2      1.661      2.176
REMARK  Name = 
REMARK  3 active torsions:
REMARK  status: ('A' for Active; 'I' for Inactive)
REMARK    1  A    between atoms: C_6  and  C_7
REMARK    2  A    between atoms: N_9  and  C_10
REMARK    3  A    between atoms: C_13  and  C_14
REMARK                            x       y       z     vdW  Elec       q    Type
REMARK                         _______ _______ _______ _____ _____    ______ ____
ROOT
ATOM      1  C   UNL     1       3.553   5.219  -8.985  0.00  0.00    +0.074 A 
ATOM      2  C   UNL     1       2.574   4.324  -8.573  0.00  0.00    +0.017 A 
ATOM      3  C   UNL     1       2.315   4.088  -7.230  0.00  0.00    +0.005 A 
ATOM      4  C   UNL     1       2.814   4.965  -6.274  0.00  0.00    +0.072 A 
ATOM      5  C   UNL     1       3.719   5.906  -6.681  0.00  0.00    +0.005 A 
ATOM      6  C   UNL     1       3.944   6.151  -8.030  0.00  0.00    +0.017 A 
ENDROOT
BRANCH   4   7
ATOM      7  C   UNL     1       2.076   5.154  -4.998  0.00  0.00    +0.419 C 
ATOM      8  F   UNL     1       0.933   4.399  -5.016  0.00  0.00    -0.166 F 
ATOM      9  F   UNL     1       1.680   6.484  -4.910  0.00  0.00    -0.166 F 
ATOM     10  F   UNL     1       2.907   4.874  -3.940  0.00  0.00    -0.166 F 
ENDBRANCH   4   7
BRANCH   1  12
ATOM     11  C   UNL     1       4.714   5.790 -11.069  0.00  0.00    +0.273 C 
ATOM     12  N   UNL     1       4.445   4.857 -10.045  0.00  0.00    -0.175 NA
ATOM     13  O   UNL     1       3.744   6.434 -11.532  0.00  0.00    -0.268 OA
BRANCH  11  16
ATOM     14  C   UNL     1       7.703   5.854 -10.192  0.00  0.00    +0.076 C 
ATOM     15  C   UNL     1       7.178   5.330 -11.491  0.00  0.00    +0.159 A 
ATOM     16  C   UNL     1       5.879   5.560 -11.913  0.00  0.00    +0.111 A 
ATOM     17  C   UNL     1       5.904   5.305 -13.279  0.00  0.00    +0.148 A 
ATOM     18  N   UNL     1       7.139   4.871 -13.543  0.00  0.00    -0.076 NA
ATOM     19  O   UNL     1       7.857   4.766 -12.475  0.00  0.00    -0.358 OA
ENDBRANCH  11  16
ENDBRANCH   1  12
TORSDOF 3
ENDMDL
MODEL 7
REMARK VINA RESULT:      -7.0      4.646      7.113
REMARK  Name = 
REMARK  3 active torsions:
REMARK  status: ('A' for Active; 'I' for Inactive)
REMARK    1  A    between atoms: C_6  and  C_7
REMARK    2  A    between atoms: N_9  and  C_10
REMARK    3  A    between atoms: C_13  and  C_14
REMARK                            x       y       z     vdW  Elec       q    Type
REMARK                         _______ _______ _______ _____ _____    ______ ____
ROOT
ATOM      1  C   UNL     1       3.938   4.781  -9.147  0.00  0.00    +0.074 A 
ATOM      2  C   UNL     1       3.740   5.474 -10.335  0.00  0.00    +0.017 A 
ATOM      3  C   UNL     1       4.613   6.467 -10.757  0.00  0.00    +0.005 A 
ATOM      4  C   UNL     1       5.863   6.577 -10.161  0.00  0.00    +0.072 A 
ATOM      5  C   UNL     1       6.101   5.838  -9.035  0.00  0.00    +0.005 A 
ATOM      6  C   UNL     1       5.233   4.826  -8.643  0.00  0.00    +0.017 A 
ENDROOT
BRANCH   4   7
ATOM      7  C   UNL     1       7.004   7.112 -10.947  0.00  0.00    +0.419 C 
ATOM      8  F   UNL     1       6.595   8.208 -11.659  0.00  0.00    -0.166 F 
ATOM      9  F   UNL     1       7.391   6.151 -11.874  0.00  0.00    -0.166 F 
ATOM     10  F   UNL     1       8.064   7.363 -10.109  0.00  0.00    -0.166 F 
ENDBRANCH   4   7
BRANCH   1  12
ATOM     11  C   UNL     1       2.074   5.646  -7.809  0.00  0.00    +0.273 C 
ATOM     12  N   UNL     1       2.831   4.547  -8.269  0.00  0.00    -0.175 NA
ATOM     13  O   UNL     1       2.701   6.665  -7.439  0.00  0.00    -0.268 OA
BRANCH  11  16
ATOM     14  C   UNL     1       1.441   4.863  -4.860  0.00  0.00    +0.076 C 
ATOM     15  C   UNL     1       0.444   5.286  -5.892  0.00  0.00    +0.159 A 
ATOM     16  C   UNL     1       0.761   5.377  -7.237  0.00  0.00    +0.111 A 
ATOM     17  C   UNL     1      -0.467   5.374  -7.888  0.00  0.00    +0.148 A 
ATOM     18  N   UNL     1      -1.388   5.376  -6.920  0.00  0.00    -0.076 NA
ATOM     19  O   UNL     1      -0.860   5.448  -5.745  0.00  0.00    -0.358 OA
ENDBRANCH  11  16
ENDBRANCH   1  12
TORSDOF 3
ENDMDL
MODEL 8
REMARK VINA RESULT:      -7.0      5.343      8.493
REMARK  Name = 
REMARK  3 active torsions:
REMARK  status: ('A' for Active; 'I' for Inactive)
REMARK    1  A    between atoms: C_6  and  C_7
REMARK    2  A    between atoms: N_9  and  C_10
REMARK    3  A    between atoms: C_13  and  C_14
REMARK                            x       y       z     vdW  Elec       q    Type
REMARK                         _______ _______ _______ _____ _____    ______ ____
ROOT
ATOM      1  C   UNL     1       1.796   5.735  -6.027  0.00  0.00    +0.074 A 
ATOM      2  C   UNL     1       2.844   4.867  -6.312  0.00  0.00    +0.017 A 
ATOM      3  C   UNL     1       3.415   4.796  -7.575  0.00  0.00    +0.005 A 
ATOM      4  C   UNL     1       3.160   5.805  -8.496  0.00  0.00    +0.072 A 
ATOM      5  C   UNL     1       2.187   6.717  -8.193  0.00  0.00    +0.005 A 
ATOM      6  C   UNL     1       1.647   6.794  -6.915  0.00  0.00    +0.017 A 
ENDROOT
BRANCH   4   7
ATOM      7  C   UNL     1       4.182   6.131  -9.525  0.00  0.00    +0.419 C 
ATOM      8  F   UNL     1       4.065   5.260 -10.576  0.00  0.00    -0.166 F 
ATOM      9  F   UNL     1       5.443   5.931  -8.974  0.00  0.00    -0.166 F 
ATOM     10  F   UNL     1       4.067   7.451  -9.886  0.00  0.00    -0.166 F 
ENDBRANCH   4   7
BRANCH   1  12
ATOM     11  C   UNL     1       0.254   6.010  -4.141  0.00  0.00    +0.273 C 
ATOM     12  N   UNL     1       0.676   5.270  -5.266  0.00  0.00    -0.175 NA
ATOM     13  O   UNL     1       1.141   6.444  -3.369  0.00  0.00    -0.268 OA
BRANCH  11  16
ATOM     14  C   UNL     1      -2.451   6.256  -5.668  0.00  0.00    +0.076 C 
ATOM     15  C   UNL     1      -2.247   5.599  -4.340  0.00  0.00    +0.159 A 
ATOM     16  C   UNL     1      -1.078   5.745  -3.611  0.00  0.00    +0.111 A 
ATOM     17  C   UNL     1      -1.421   5.370  -2.319  0.00  0.00    +0.148 A 
ATOM     18  N   UNL     1      -2.690   4.957  -2.387  0.00  0.00    -0.076 NA
ATOM     19  O   UNL     1      -3.142   4.974  -3.595  0.00  0.00    -0.358 OA
ENDBRANCH  11  16
ENDBRANCH   1  12
TORSDOF 3
ENDMDL
MODEL 9
REMARK VINA RESULT:      -6.9      2.921      4.264
REMARK  Name = 
REMARK  3 active torsions:
REMARK  status: ('A' for Active; 'I' for Inactive)
REMARK    1  A    between atoms: C_6  and  C_7
REMARK    2  A    between atoms: N_9  and  C_10
REMARK    3  A    between atoms: C_13  and  C_14
REMARK                            x       y       z     vdW  Elec       q    Type
REMARK                         _______ _______ _______ _____ _____    ______ ____
ROOT
ATOM      1  C   UNL     1       0.396   5.361  -6.849  0.00  0.00    +0.074 A 
ATOM      2  C   UNL     1       0.974   6.006  -5.763  0.00  0.00    +0.017 A 
ATOM      3  C   UNL     1       0.269   6.921  -4.994  0.00  0.00    +0.005 A 
ATOM      4  C   UNL     1      -1.116   6.981  -5.103  0.00  0.00    +0.072 A 
ATOM      5  C   UNL     1      -1.707   6.284  -6.120  0.00  0.00    +0.005 A 
ATOM      6  C   UNL     1      -0.994   5.349  -6.861  0.00  0.00    +0.017 A 
ENDROOT
BRANCH   4   7
ATOM      7  C   UNL     1      -1.924   7.405  -3.931  0.00  0.00    +0.419 C 
ATOM      8  F   UNL     1      -3.190   6.891  -4.039  0.00  0.00    -0.166 F 
ATOM      9  F   UNL     1      -2.048   8.789  -3.956  0.00  0.00    -0.166 F 
ATOM     10  F   UNL     1      -1.279   7.044  -2.772  0.00  0.00    -0.166 F 
ENDBRANCH   4   7
BRANCH   1  12
ATOM     11  C   UNL     1       1.917   6.324  -8.514  0.00  0.00    +0.273 C 
ATOM     12  N   UNL     1       1.128   5.240  -8.074  0.00  0.00    -0.175 NA
ATOM     13  O   UNL     1       1.422   7.472  -8.427  0.00  0.00    -0.268 OA
BRANCH  11  16
ATOM     14  C   UNL     1       4.839   5.347  -8.052  0.00  0.00    +0.076 C 
ATOM     15  C   UNL     1       4.123   5.391  -9.364  0.00  0.00    +0.159 A 
ATOM     16  C   UNL     1       2.924   6.064  -9.535  0.00  0.00    +0.111 A 
ATOM     17  C   UNL     1       2.808   6.232 -10.908  0.00  0.00    +0.148 A 
ATOM     18  N   UNL     1       3.854   5.593 -11.440  0.00  0.00    -0.076 NA
ATOM     19  O   UNL     1       4.564   4.992 -10.545  0.00  0.00    -0.358 OA
ENDBRANCH  11  16
ENDBRANCH   1  12
TORSDOF 3
ENDMDL
