MODEL 1
REMARK VINA RESULT:      -5.5      0.000      0.000
REMARK  Name = 
REMARK  5 active torsions:
REMARK  status: ('A' for Active; 'I' for Inactive)
REMARK    1  A    between atoms: C_2  and  C_3
REMARK    2  A    between atoms: C_3  and  C_4
REMARK    3  A    between atoms: N_8  and  C_9
REMARK    4  A    between atoms: C_9  and  C_10
REMARK    5  A    between atoms: C_9  and  C_12
REMARK                            x       y       z     vdW  Elec       q    Type
REMARK                         _______ _______ _______ _____ _____    ______ ____
ROOT
ATOM      1  C   UNL     1       4.076   6.176  -9.129  0.00  0.00    +0.029 C 
ATOM      2  C   UNL     1       5.503   5.601  -9.734  0.00  0.00    +0.094 C 
ATOM      3  N   UNL     1       5.276   5.788 -11.084  0.00  0.00    -0.273 N 
ATOM      4  C   UNL     1       3.889   5.831 -11.442  0.00  0.00    +0.226 C 
ATOM      5  O   UNL     1       3.374   5.758 -12.582  0.00  0.00    -0.275 OA
ATOM      6  C   UNL     1       3.195   5.303 -10.224  0.00  0.00    +0.087 C 
ENDROOT
BRANCH   1   7
ATOM      7  C   UNL     1       4.005   4.958  -8.009  0.00  0.00    +0.002 C 
BRANCH   7   9
ATOM      8  C   UNL     1       3.424   6.723  -6.443  0.00  0.00    +0.000 C 
ATOM      9  C   UNL     1       4.405   5.733  -6.785  0.00  0.00    +0.000 C 
ENDBRANCH   7   9
ENDBRANCH   1   7
BRANCH   3  10
ATOM     10  C   UNL     1       6.258   6.419 -12.180  0.00  0.00    +0.155 C 
BRANCH  10  11
ATOM     11  C   UNL     1       7.363   5.204 -12.081  0.00  0.00    +0.279 C 
ATOM     12  O   UNL     1       7.561   4.550 -13.100  0.00  0.00    -0.270 OA
ATOM     13  N   UNL     1       8.533   5.787 -11.483  0.00  0.00    -0.086 NA
ENDBRANCH  10  11
BRANCH  10  14
ATOM     14  C   UNL     1       7.116   7.321 -11.052  0.00  0.00    +0.029 C 
ATOM     15  C   UNL     1       6.523   8.679 -11.287  0.00  0.00    +0.002 C 
ENDBRANCH  10  14
ENDBRANCH   3  10
TORSDOF 5
ENDMDL
MODEL 2
REMARK VINA RESULT:      -5.4      4.261      6.763
REMARK  Name = 
REMARK  5 active torsions:
REMARK  status: ('A' for Active; 'I' for Inactive)
REMARK    1  A    between atoms: C_2  and  C_3
REMARK    2  A    between atoms: C_3  and  C_4
REMARK    3  A    between atoms: N_8  and  C_9
REMARK    4  A    between atoms: C_9  and  C_10
REMARK    5  A    between atoms: C_9  and  C_12
REMARK                            x       y       z     vdW  Elec       q    Type
REMARK                         _______ _______ _______ _____ _____    ______ ____
ROOT
ATOM      1  C   UNL     1       2.930   5.250  -8.830  0.00  0.00    +0.029 C 
ATOM      2  C   UNL     1       2.749   5.112  -7.192  0.00  0.00    +0.094 C 
ATOM      3  N   UNL     1       2.084   6.295  -6.931  0.00  0.00    -0.273 N 
ATOM      4  C   UNL     1       2.302   7.317  -7.913  0.00  0.00    +0.226 C 
ATOM      5  O   UNL     1       2.033   8.538  -7.841  0.00  0.00    -0.275 OA
ATOM      6  C   UNL     1       3.473   6.807  -8.696  0.00  0.00    +0.087 C 
ENDROOT
BRANCH   1   7
ATOM      7  C   UNL     1       4.469   4.643  -8.759  0.00  0.00    +0.002 C 
BRANCH   7   9
ATOM      8  C   UNL     1       6.618   5.595  -9.376  0.00  0.00    +0.000 C 
ATOM      9  C   UNL     1       5.195   5.745  -9.478  0.00  0.00    +0.000 C 
ENDBRANCH   7   9
ENDBRANCH   1   7
BRANCH   3  10
ATOM     10  C   UNL     1       0.792   6.528  -6.014  0.00  0.00    +0.155 C 
BRANCH  10  11
ATOM     11  C   UNL     1       1.519   6.017  -4.631  0.00  0.00    +0.279 C 
ATOM     12  O   UNL     1       2.216   6.834  -4.036  0.00  0.00    -0.270 OA
ATOM     13  N   UNL     1       0.482   5.403  -3.847  0.00  0.00    -0.086 NA
ENDBRANCH  10  11
BRANCH  10  14
ATOM     14  C   UNL     1       0.183   4.987  -6.290  0.00  0.00    +0.029 C 
ATOM     15  C   UNL     1      -1.015   5.317  -7.130  0.00  0.00    +0.002 C 
ENDBRANCH  10  14
ENDBRANCH   3  10
TORSDOF 5
ENDMDL
MODEL 3
REMARK VINA RESULT:      -5.4      2.765      5.287
REMARK  Name = 
REMARK  5 active torsions:
REMARK  status: ('A' for Active; 'I' for Inactive)
REMARK    1  A    between atoms: C_2  and  C_3
REMARK    2  A    between atoms: C_3  and  C_4
REMARK    3  A    between atoms: N_8  and  C_9
REMARK    4  A    between atoms: C_9  and  C_10
REMARK    5  A    between atoms: C_9  and  C_12
REMARK                            x       y       z     vdW  Elec       q    Type
REMARK                         _______ _______ _______ _____ _____    ______ ____
ROOT
ATOM      1  C   UNL     1       5.566   6.429 -10.305  0.00  0.00    +0.029 C 
ATOM      2  C   UNL     1       4.249   5.458 -10.540  0.00  0.00    +0.094 C 
ATOM      3  N   UNL     1       3.811   5.340  -9.235  0.00  0.00    -0.273 N 
ATOM      4  C   UNL     1       4.834   5.557  -8.254  0.00  0.00    +0.226 C 
ATOM      5  O   UNL     1       4.807   5.300  -7.028  0.00  0.00    -0.275 OA
ATOM      6  C   UNL     1       6.102   5.495  -9.049  0.00  0.00    +0.087 C 
ENDROOT
BRANCH   1   7
ATOM      7  C   UNL     1       6.457   5.568 -11.405  0.00  0.00    +0.002 C 
BRANCH   7   9
ATOM      8  C   UNL     1       8.733   5.848 -12.210  0.00  0.00    +0.000 C 
ATOM      9  C   UNL     1       7.797   6.212 -11.184  0.00  0.00    +0.000 C 
ENDBRANCH   7   9
ENDBRANCH   1   7
BRANCH   3  10
ATOM     10  C   UNL     1       2.319   5.475  -8.670  0.00  0.00    +0.155 C 
BRANCH  10  11
ATOM     11  C   UNL     1       1.608   5.345 -10.148  0.00  0.00    +0.279 C 
ATOM     12  O   UNL     1       0.916   4.350 -10.345  0.00  0.00    -0.270 OA
ATOM     13  N   UNL     1       0.957   6.606 -10.381  0.00  0.00    -0.086 NA
ENDBRANCH  10  11
BRANCH  10  14
ATOM     14  C   UNL     1       2.309   7.150  -8.788  0.00  0.00    +0.029 C 
ATOM     15  C   UNL     1       1.984   7.518  -7.370  0.00  0.00    +0.002 C 
ENDBRANCH  10  14
ENDBRANCH   3  10
TORSDOF 5
ENDMDL
MODEL 4
REMARK VINA RESULT:      -5.3      2.371      5.190
REMARK  Name = 
REMARK  5 active torsions:
REMARK  status: ('A' for Active; 'I' for Inactive)
REMARK    1  A    between atoms: C_2  and  C_3
REMARK    2  A    between atoms: C_3  and  C_4
REMARK    3  A    between atoms: N_8  and  C_9
REMARK    4  A    between atoms: C_9  and  C_10
REMARK    5  A    between atoms: C_9  and  C_12
REMARK                            x       y       z     vdW  Elec       q    Type
REMARK                         _______ _______ _______ _____ _____    ______ ____
ROOT
ATOM      1  C   UNL     1       5.568   5.681 -10.868  0.00  0.00    +0.029 C 
ATOM      2  C   UNL     1       4.840   6.709  -9.798  0.00  0.00    +0.094 C 
ATOM      3  N   UNL     1       3.516   6.396 -10.038  0.00  0.00    -0.273 N 
ATOM      4  C   UNL     1       3.274   5.836 -11.335  0.00  0.00    +0.226 C 
ATOM      5  O   UNL     1       2.180   5.669 -11.922  0.00  0.00    -0.275 OA
ATOM      6  C   UNL     1       4.539   6.127 -12.084  0.00  0.00    +0.087 C 
ENDROOT
BRANCH   1   7
ATOM      7  C   UNL     1       6.675   6.836 -11.300  0.00  0.00    +0.002 C 
BRANCH   7   9
ATOM      8  C   UNL     1       8.614   5.816 -12.349  0.00  0.00    +0.000 C 
ATOM      9  C   UNL     1       7.937   6.044 -11.105  0.00  0.00    +0.000 C 
ENDBRANCH   7   9
ENDBRANCH   1   7
BRANCH   3  10
ATOM     10  C   UNL     1       2.351   6.120  -8.975  0.00  0.00    +0.155 C 
BRANCH  10  11
ATOM     11  C   UNL     1       2.795   7.346  -7.973  0.00  0.00    +0.279 C 
ATOM     12  O   UNL     1       2.098   8.356  -7.990  0.00  0.00    -0.270 OA
ATOM     13  N   UNL     1       2.982   6.746  -6.680  0.00  0.00    -0.086 NA
ENDBRANCH  10  11
BRANCH  10  14
ATOM     14  C   UNL     1       3.271   5.031  -8.086  0.00  0.00    +0.029 C 
ATOM     15  C   UNL     1       2.682   3.734  -8.557  0.00  0.00    +0.002 C 
ENDBRANCH  10  14
ENDBRANCH   3  10
TORSDOF 5
ENDMDL
MODEL 5
REMARK VINA RESULT:      -5.3      5.259      7.086
REMARK  Name = 
REMARK  5 active torsions:
REMARK  status: ('A' for Active; 'I' for Inactive)
REMARK    1  A    between atoms: C_2  and  C_3
REMARK    2  A    between atoms: C_3  and  C_4
REMARK    3  A    between atoms: N_8  and  C_9
REMARK    4  A    between atoms: C_9  and  C_10
REMARK    5  A    between atoms: C_9  and  C_12
REMARK                            x       y       z     vdW  Elec       q    Type
REMARK                         _______ _______ _______ _____ _____    ______ ____
ROOT
ATOM      1  C   UNL     1      -1.271   6.501  -5.505  0.00  0.00    +0.029 C 
ATOM      2  C   UNL     1       0.046   5.590  -5.092  0.00  0.00    +0.094 C 
ATOM      3  N   UNL     1       0.596   5.396  -6.344  0.00  0.00    -0.273 N 
ATOM      4  C   UNL     1      -0.344   5.512  -7.420  0.00  0.00    +0.226 C 
ATOM      5  O   UNL     1      -0.206   5.172  -8.618  0.00  0.00    -0.275 OA
ATOM      6  C   UNL     1      -1.673   5.465  -6.731  0.00  0.00    +0.087 C 
ENDROOT
BRANCH   1   7
ATOM      7  C   UNL     1      -2.231   5.691  -4.425  0.00  0.00    +0.002 C 
BRANCH   7   9
ATOM      8  C   UNL     1      -3.472   6.417  -2.466  0.00  0.00    +0.000 C 
ATOM      9  C   UNL     1      -2.626   6.843  -3.544  0.00  0.00    +0.000 C 
ENDBRANCH   7   9
ENDBRANCH   1   7
BRANCH   3  10
ATOM     10  C   UNL     1       2.128   5.537  -6.790  0.00  0.00    +0.155 C 
BRANCH  10  11
ATOM     11  C   UNL     1       2.716   5.487  -5.256  0.00  0.00    +0.279 C 
ATOM     12  O   UNL     1       3.342   4.481  -4.935  0.00  0.00    -0.270 OA
ATOM     13  N   UNL     1       3.407   6.733  -5.061  0.00  0.00    -0.086 NA
ENDBRANCH  10  11
BRANCH  10  14
ATOM     14  C   UNL     1       2.098   7.216  -6.748  0.00  0.00    +0.029 C 
ATOM     15  C   UNL     1       2.429   7.528  -8.178  0.00  0.00    +0.002 C 
ENDBRANCH  10  14
ENDBRANCH   3  10
TORSDOF 5
ENDMDL
MODEL 6
REMARK VINA RESULT:      -5.3      7.137      9.671
REMARK  Name = 
REMARK  5 active torsions:
REMARK  status: ('A' for Active; 'I' for Inactive)
REMARK    1  A    between atoms: C_2  and  C_3
REMARK    2  A    between atoms: C_3  and  C_4
REMARK    3  A    between atoms: N_8  and  C_9
REMARK    4  A    between atoms: C_9  and  C_10
REMARK    5  A    between atoms: C_9  and  C_12
REMARK                            x       y       z     vdW  Elec       q    Type
REMARK                         _______ _______ _______ _____ _____    ______ ____
ROOT
ATOM      1  C   UNL     1       1.075   6.132  -6.076  0.00  0.00    +0.029 C 
ATOM      2  C   UNL     1      -0.477   5.785  -5.625  0.00  0.00    +0.094 C 
ATOM      3  N   UNL     1      -0.346   5.869  -4.252  0.00  0.00    -0.273 N 
ATOM      4  C   UNL     1       0.991   5.657  -3.780  0.00  0.00    +0.226 C 
ATOM      5  O   UNL     1       1.380   5.446  -2.608  0.00  0.00    -0.275 OA
ATOM      6  C   UNL     1       1.695   5.073  -4.966  0.00  0.00    +0.087 C 
ENDROOT
BRANCH   1   7
ATOM      7  C   UNL     1       1.044   4.971  -7.257  0.00  0.00    +0.002 C 
BRANCH   7   9
ATOM      8  C   UNL     1       0.222   5.850  -9.368  0.00  0.00    +0.000 C 
ATOM      9  C   UNL     1      -0.145   5.456  -8.038  0.00  0.00    +0.000 C 
ENDBRANCH   7   9
ENDBRANCH   1   7
BRANCH   3  10
ATOM     10  C   UNL     1      -1.304   6.610  -3.205  0.00  0.00    +0.155 C 
BRANCH  10  11
ATOM     11  C   UNL     1      -2.227   5.281  -2.910  0.00  0.00    +0.279 C 
ATOM     12  O   UNL     1      -2.322   4.920  -1.741  0.00  0.00    -0.270 OA
ATOM     13  N   UNL     1      -3.473   5.511  -3.589  0.00  0.00    -0.086 NA
ENDBRANCH  10  11
BRANCH  10  14
ATOM     14  C   UNL     1      -2.381   7.123  -4.387  0.00  0.00    +0.029 C 
ATOM     15  C   UNL     1      -2.028   8.579  -4.459  0.00  0.00    +0.002 C 
ENDBRANCH  10  14
ENDBRANCH   3  10
TORSDOF 5
ENDMDL
MODEL 7
REMARK VINA RESULT:      -5.3      7.094      8.670
REMARK  Name = 
REMARK  5 active torsions:
REMARK  status: ('A' for Active; 'I' for Inactive)
REMARK    1  A    between atoms: C_2  and  C_3
REMARK    2  A    between atoms: C_3  and  C_4
REMARK    3  A    between atoms: N_8  and  C_9
REMARK    4  A    between atoms: C_9  and  C_10
REMARK    5  A    between atoms: C_9  and  C_12
REMARK                            x       y       z     vdW  Elec       q    Type
REMARK                         _______ _______ _______ _____ _____    ______ ____
ROOT
ATOM      1  C   UNL     1       0.759   6.636  -4.751  0.00  0.00    +0.029 C 
ATOM      2  C   UNL     1       1.076   6.178  -3.195  0.00  0.00    +0.094 C 
ATOM      3  N   UNL     1       2.295   5.555  -3.379  0.00  0.00    -0.273 N 
ATOM      4  C   UNL     1       2.511   5.076  -4.713  0.00  0.00    +0.226 C 
ATOM      5  O   UNL     1       3.392   4.288  -5.126  0.00  0.00    -0.275 OA
ATOM      6  C   UNL     1       1.148   5.136  -5.332  0.00  0.00    +0.087 C 
ENDROOT
BRANCH   1   7
ATOM      7  C   UNL     1      -0.839   6.228  -4.597  0.00  0.00    +0.002 C 
BRANCH   7   9
ATOM      8  C   UNL     1      -2.463   5.649  -6.310  0.00  0.00    +0.000 C 
ATOM      9  C   UNL     1      -1.070   5.644  -5.962  0.00  0.00    +0.000 C 
ENDBRANCH   7   9
ENDBRANCH   1   7
BRANCH   3  10
ATOM     10  C   UNL     1       3.633   5.711  -2.512  0.00  0.00    +0.155 C 
BRANCH  10  11
ATOM     11  C   UNL     1       2.881   5.471  -1.068  0.00  0.00    +0.279 C 
ATOM     12  O   UNL     1       2.546   4.321  -0.802  0.00  0.00    -0.270 OA
ATOM     13  N   UNL     1       3.707   6.118  -0.085  0.00  0.00    -0.086 NA
ENDBRANCH  10  11
BRANCH  10  14
ATOM     14  C   UNL     1       3.464   7.374  -2.349  0.00  0.00    +0.029 C 
ATOM     15  C   UNL     1       4.505   7.847  -3.320  0.00  0.00    +0.002 C 
ENDBRANCH  10  14
ENDBRANCH   3  10
TORSDOF 5
ENDMDL
MODEL 8
REMARK VINA RESULT:      -5.2      4.706      6.743
REMARK  Name = 
REMARK  5 active torsions:
REMARK  status: ('A' for Active; 'I' for Inactive)
REMARK    1  A    between atoms: C_2  and  C_3
REMARK    2  A    between atoms: C_3  and  C_4
REMARK    3  A    between atoms: N_8  and  C_9
REMARK    4  A    between atoms: C_9  and  C_10
REMARK    5  A    between atoms: C_9  and  C_12
REMARK                            x       y       z     vdW  Elec       q    Type
REMARK                         _______ _______ _______ _____ _____    ______ ____
ROOT
ATOM      1  C   UNL     1      -0.617   5.279  -5.505  0.00  0.00    +0.029 C 
ATOM      2  C   UNL     1      -0.108   5.853  -6.969  0.00  0.00    +0.094 C 
ATOM      3  N   UNL     1       1.184   6.214  -6.641  0.00  0.00    -0.273 N 
ATOM      4  C   UNL     1       1.379   6.484  -5.247  0.00  0.00    +0.226 C 
ATOM      5  O   UNL     1       2.352   7.042  -4.688  0.00  0.00    -0.275 OA
ATOM      6  C   UNL     1      -0.016   6.602  -4.714  0.00  0.00    +0.087 C 
ENDROOT
BRANCH   1   7
ATOM      7  C   UNL     1      -2.103   5.989  -5.688  0.00  0.00    +0.002 C 
BRANCH   7   9
ATOM      8  C   UNL     1      -3.174   5.273  -3.628  0.00  0.00    +0.000 C 
ATOM      9  C   UNL     1      -2.396   6.307  -4.249  0.00  0.00    +0.000 C 
ENDBRANCH   7   9
ENDBRANCH   1   7
BRANCH   3  10
ATOM     10  C   UNL     1       2.535   5.920  -7.450  0.00  0.00    +0.155 C 
BRANCH  10  11
ATOM     11  C   UNL     1       2.384   7.227  -8.437  0.00  0.00    +0.279 C 
ATOM     12  O   UNL     1       2.252   8.320  -7.894  0.00  0.00    -0.270 OA
ATOM     13  N   UNL     1       3.464   7.131  -9.381  0.00  0.00    -0.086 NA
ENDBRANCH  10  11
BRANCH  10  14
ATOM     14  C   UNL     1       1.772   4.946  -8.586  0.00  0.00    +0.029 C 
ATOM     15  C   UNL     1       2.652   3.732  -8.534  0.00  0.00    +0.002 C 
ENDBRANCH  10  14
ENDBRANCH   3  10
TORSDOF 5
ENDMDL
MODEL 9
REMARK VINA RESULT:      -5.2      2.982      5.302
REMARK  Name = 
REMARK  5 active torsions:
REMARK  status: ('A' for Active; 'I' for Inactive)
REMARK    1  A    between atoms: C_2  and  C_3
REMARK    2  A    between atoms: C_3  and  C_4
REMARK    3  A    between atoms: N_8  and  C_9
REMARK    4  A    between atoms: C_9  and  C_10
REMARK    5  A    between atoms: C_9  and  C_12
REMARK                            x       y       z     vdW  Elec       q    Type
REMARK                         _______ _______ _______ _____ _____    ______ ____
ROOT
ATOM      1  C   UNL     1       4.315   5.342 -11.100  0.00  0.00    +0.029 C 
ATOM      2  C   UNL     1       3.071   6.430 -11.114  0.00  0.00    +0.094 C 
ATOM      3  N   UNL     1       2.463   6.073 -12.303  0.00  0.00    -0.273 N 
ATOM      4  C   UNL     1       3.336   5.416 -13.231  0.00  0.00    +0.226 C 
ATOM      5  O   UNL     1       3.151   5.184 -14.447  0.00  0.00    -0.275 OA
ATOM      6  C   UNL     1       4.702   5.677 -12.673  0.00  0.00    +0.087 C 
ENDROOT
BRANCH   1   7
ATOM      7  C   UNL     1       5.372   6.485 -10.533  0.00  0.00    +0.002 C 
BRANCH   7   9
ATOM      8  C   UNL     1       7.463   5.756  -9.534  0.00  0.00    +0.000 C 
ATOM      9  C   UNL     1       6.033   5.682  -9.447  0.00  0.00    +0.000 C 
ENDBRANCH   7   9
ENDBRANCH   1   7
BRANCH   3  10
ATOM     10  C   UNL     1       0.905   5.852 -12.596  0.00  0.00    +0.155 C 
BRANCH  10  11
ATOM     11  C   UNL     1       0.552   7.457 -12.650  0.00  0.00    +0.279 C 
ATOM     12  O   UNL     1       0.470   7.970 -13.763  0.00  0.00    -0.270 OA
ATOM     13  N   UNL     1      -0.594   7.635 -11.802  0.00  0.00    -0.086 NA
ENDBRANCH  10  11
BRANCH  10  14
ATOM     14  C   UNL     1       0.494   5.794 -10.969  0.00  0.00    +0.029 C 
ATOM     15  C   UNL     1       0.148   4.341 -10.830  0.00  0.00    +0.002 C 
ENDBRANCH  10  14
ENDBRANCH   3  10
TORSDOF 5
ENDMDL
