MODEL 1
REMARK VINA RESULT:      -7.7      0.000      0.000
REMARK  Name = 
REMARK  2 active torsions:
REMARK  status: ('A' for Active; 'I' for Inactive)
REMARK    1  A    between atoms: N_2  and  C_3
REMARK    2  A    between atoms: C_6  and  C_7
REMARK                            x       y       z     vdW  Elec       q    Type
REMARK                         _______ _______ _______ _____ _____    ______ ____
ROOT
ATOM      1  C   UNL     1       3.647   6.757  -9.108  0.00  0.00    +0.111 A 
ATOM      2  S   UNL     1       4.813   5.554  -8.720  0.00  0.00    -0.066 S 
ATOM      3  C   UNL     1       5.883   5.804 -10.042  0.00  0.00    +0.052 A 
ATOM      4  C   UNL     1       5.323   6.963 -10.568  0.00  0.00    +0.088 A 
ATOM      5  C   UNL     1       6.075   7.602 -11.550  0.00  0.00    +0.023 A 
ATOM      6  C   UNL     1       7.018   6.872 -12.262  0.00  0.00    +0.044 A 
ATOM      7  C   UNL     1       7.502   5.651 -11.806  0.00  0.00    +0.196 A 
ATOM      8  O   UNL     1       8.007   4.708 -12.708  0.00  0.00    -0.287 OA
ATOM      9  C   UNL     1       7.065   5.275 -10.541  0.00  0.00    +0.050 A 
ATOM     10  N   UNL     1       4.000   6.992 -10.397  0.00  0.00    -0.238 NA
ENDROOT
BRANCH   1  15
ATOM     11  C   UNL     1       0.207   5.646  -7.126  0.00  0.00    +0.093 A 
ATOM     12  C   UNL     1       0.974   6.687  -6.616  0.00  0.00    +0.155 A 
ATOM     13  F   UNL     1       0.840   6.927  -5.288  0.00  0.00    -0.203 F 
ATOM     14  C   UNL     1       1.911   7.323  -7.405  0.00  0.00    +0.033 A 
ATOM     15  C   UNL     1       2.249   6.815  -8.654  0.00  0.00    +0.026 A 
ATOM     16  C   UNL     1       1.394   5.838  -9.142  0.00  0.00    +0.003 A 
ATOM     17  C   UNL     1       0.188   5.552  -8.513  0.00  0.00    +0.018 A 
BRANCH  11  19
ATOM     18  C   UNL     1      -2.124   5.814  -6.420  0.00  0.00    +0.136 C 
ATOM     19  N   UNL     1      -0.871   5.074  -6.380  0.00  0.00    -0.233 NA
ENDBRANCH  11  19
ENDBRANCH   1  15
TORSDOF 2
ENDMDL
MODEL 2
REMARK VINA RESULT:      -7.6      3.930      7.505
REMARK  Name = 
REMARK  2 active torsions:
REMARK  status: ('A' for Active; 'I' for Inactive)
REMARK    1  A    between atoms: N_2  and  C_3
REMARK    2  A    between atoms: C_6  and  C_7
REMARK                            x       y       z     vdW  Elec       q    Type
REMARK                         _______ _______ _______ _____ _____    ______ ____
ROOT
ATOM      1  C   UNL     1       3.194   5.261  -9.531  0.00  0.00    +0.111 A 
ATOM      2  S   UNL     1       3.395   4.478  -8.012  0.00  0.00    -0.066 S 
ATOM      3  C   UNL     1       1.819   4.746  -7.381  0.00  0.00    +0.052 A 
ATOM      4  C   UNL     1       1.205   5.259  -8.519  0.00  0.00    +0.088 A 
ATOM      5  C   UNL     1      -0.179   5.393  -8.445  0.00  0.00    +0.023 A 
ATOM      6  C   UNL     1      -0.786   5.481  -7.199  0.00  0.00    +0.044 A 
ATOM      7  C   UNL     1      -0.139   5.082  -6.035  0.00  0.00    +0.196 A 
ATOM      8  O   UNL     1      -0.500   5.632  -4.801  0.00  0.00    -0.287 OA
ATOM      9  C   UNL     1       1.102   4.484  -6.222  0.00  0.00    +0.050 A 
ATOM     10  N   UNL     1       2.060   5.958  -9.267  0.00  0.00    -0.238 NA
ENDROOT
BRANCH   1  15
ATOM     11  C   UNL     1       6.510   5.242 -11.979  0.00  0.00    +0.093 A 
ATOM     12  C   UNL     1       5.249   5.354 -12.552  0.00  0.00    +0.155 A 
ATOM     13  F   UNL     1       5.145   4.952 -13.844  0.00  0.00    -0.203 F 
ATOM     14  C   UNL     1       4.159   5.718 -11.789  0.00  0.00    +0.033 A 
ATOM     15  C   UNL     1       4.254   5.788 -10.403  0.00  0.00    +0.026 A 
ATOM     16  C   UNL     1       5.548   5.755  -9.901  0.00  0.00    +0.003 A 
ATOM     17  C   UNL     1       6.652   5.854 -10.740  0.00  0.00    +0.018 A 
BRANCH  11  19
ATOM     18  C   UNL     1       8.827   5.847 -12.454  0.00  0.00    +0.136 C 
ATOM     19  N   UNL     1       7.677   5.015 -12.776  0.00  0.00    -0.233 NA
ENDBRANCH  11  19
ENDBRANCH   1  15
TORSDOF 2
ENDMDL
MODEL 3
REMARK VINA RESULT:      -7.4      3.862      7.402
REMARK  Name = 
REMARK  2 active torsions:
REMARK  status: ('A' for Active; 'I' for Inactive)
REMARK    1  A    between atoms: N_2  and  C_3
REMARK    2  A    between atoms: C_6  and  C_7
REMARK                            x       y       z     vdW  Elec       q    Type
REMARK                         _______ _______ _______ _____ _____    ______ ____
ROOT
ATOM      1  C   UNL     1       2.126   5.057  -7.804  0.00  0.00    +0.111 A 
ATOM      2  S   UNL     1       2.350   5.918  -6.332  0.00  0.00    -0.066 S 
ATOM      3  C   UNL     1       0.697   6.194  -5.948  0.00  0.00    +0.052 A 
ATOM      4  C   UNL     1       0.104   5.398  -6.922  0.00  0.00    +0.088 A 
ATOM      5  C   UNL     1      -1.266   5.197  -6.780  0.00  0.00    +0.023 A 
ATOM      6  C   UNL     1      -2.012   6.108  -6.043  0.00  0.00    +0.044 A 
ATOM      7  C   UNL     1      -1.420   6.993  -5.150  0.00  0.00    +0.196 A 
ATOM      8  O   UNL     1      -2.049   8.200  -4.828  0.00  0.00    -0.287 OA
ATOM      9  C   UNL     1      -0.053   6.821  -4.963  0.00  0.00    +0.050 A 
ATOM     10  N   UNL     1       0.827   5.370  -8.042  0.00  0.00    -0.238 NA
ENDROOT
BRANCH   1  15
ATOM     11  C   UNL     1       5.003   6.083 -10.572  0.00  0.00    +0.093 A 
ATOM     12  C   UNL     1       5.390   5.438  -9.403  0.00  0.00    +0.155 A 
ATOM     13  F   UNL     1       6.676   5.632  -9.016  0.00  0.00    -0.203 F 
ATOM     14  C   UNL     1       4.465   4.768  -8.629  0.00  0.00    +0.033 A 
ATOM     15  C   UNL     1       3.104   4.886  -8.889  0.00  0.00    +0.026 A 
ATOM     16  C   UNL     1       2.787   5.462 -10.111  0.00  0.00    +0.003 A 
ATOM     17  C   UNL     1       3.762   5.705 -11.071  0.00  0.00    +0.018 A 
BRANCH  11  19
ATOM     18  C   UNL     1       6.254   8.063 -11.260  0.00  0.00    +0.136 C 
ATOM     19  N   UNL     1       5.963   6.652 -11.467  0.00  0.00    -0.233 NA
ENDBRANCH  11  19
ENDBRANCH   1  15
TORSDOF 2
ENDMDL
MODEL 4
REMARK VINA RESULT:      -7.4      4.784      7.373
REMARK  Name = 
REMARK  2 active torsions:
REMARK  status: ('A' for Active; 'I' for Inactive)
REMARK    1  A    between atoms: N_2  and  C_3
REMARK    2  A    between atoms: C_6  and  C_7
REMARK                            x       y       z     vdW  Elec       q    Type
REMARK                         _______ _______ _______ _____ _____    ______ ____
ROOT
ATOM      1  C   UNL     1       3.732   6.028  -6.362  0.00  0.00    +0.111 A 
ATOM      2  S   UNL     1       2.764   5.106  -5.280  0.00  0.00    -0.066 S 
ATOM      3  C   UNL     1       3.352   5.754  -3.801  0.00  0.00    +0.052 A 
ATOM      4  C   UNL     1       4.125   6.796  -4.302  0.00  0.00    +0.088 A 
ATOM      5  C   UNL     1       4.596   7.703  -3.358  0.00  0.00    +0.023 A 
ATOM      6  C   UNL     1       4.698   7.307  -2.030  0.00  0.00    +0.044 A 
ATOM      7  C   UNL     1       4.024   6.195  -1.540  0.00  0.00    +0.196 A 
ATOM      8  O   UNL     1       4.509   5.509  -0.421  0.00  0.00    -0.287 OA
ATOM      9  C   UNL     1       3.155   5.585  -2.437  0.00  0.00    +0.050 A 
ATOM     10  N   UNL     1       4.661   6.485  -5.484  0.00  0.00    -0.238 NA
ENDROOT
BRANCH   1  15
ATOM     11  C   UNL     1       5.370   6.454 -10.120  0.00  0.00    +0.093 A 
ATOM     12  C   UNL     1       5.978   5.595  -9.212  0.00  0.00    +0.155 A 
ATOM     13  F   UNL     1       7.298   5.352  -9.417  0.00  0.00    -0.203 F 
ATOM     14  C   UNL     1       5.296   5.149  -8.099  0.00  0.00    +0.033 A 
ATOM     15  C   UNL     1       4.065   5.697  -7.755  0.00  0.00    +0.026 A 
ATOM     16  C   UNL     1       3.473   6.475  -8.739  0.00  0.00    +0.003 A 
ATOM     17  C   UNL     1       3.985   6.522 -10.030  0.00  0.00    +0.018 A 
BRANCH  11  19
ATOM     18  C   UNL     1       6.509   8.170 -11.432  0.00  0.00    +0.136 C 
ATOM     19  N   UNL     1       6.001   6.808 -11.354  0.00  0.00    -0.233 NA
ENDBRANCH  11  19
ENDBRANCH   1  15
TORSDOF 2
ENDMDL
MODEL 5
REMARK VINA RESULT:      -7.3      2.460      3.537
REMARK  Name = 
REMARK  2 active torsions:
REMARK  status: ('A' for Active; 'I' for Inactive)
REMARK    1  A    between atoms: N_2  and  C_3
REMARK    2  A    between atoms: C_6  and  C_7
REMARK                            x       y       z     vdW  Elec       q    Type
REMARK                         _______ _______ _______ _____ _____    ______ ____
ROOT
ATOM      1  C   UNL     1       1.384   5.087  -7.703  0.00  0.00    +0.111 A 
ATOM      2  S   UNL     1       1.235   5.669  -9.316  0.00  0.00    -0.066 S 
ATOM      3  C   UNL     1       2.904   5.906  -9.653  0.00  0.00    +0.052 A 
ATOM      4  C   UNL     1       3.450   5.308  -8.522  0.00  0.00    +0.088 A 
ATOM      5  C   UNL     1       4.827   5.112  -8.552  0.00  0.00    +0.023 A 
ATOM      6  C   UNL     1       5.604   5.893  -9.398  0.00  0.00    +0.044 A 
ATOM      7  C   UNL     1       5.055   6.594 -10.465  0.00  0.00    +0.196 A 
ATOM      8  O   UNL     1       5.688   7.737 -10.963  0.00  0.00    -0.287 OA
ATOM      9  C   UNL     1       3.703   6.363 -10.692  0.00  0.00    +0.050 A 
ATOM     10  N   UNL     1       2.664   5.465  -7.455  0.00  0.00    -0.238 NA
ENDROOT
BRANCH   1  15
ATOM     11  C   UNL     1      -1.498   6.585  -5.166  0.00  0.00    +0.093 A 
ATOM     12  C   UNL     1      -1.894   5.891  -6.303  0.00  0.00    +0.155 A 
ATOM     13  F   UNL     1      -3.137   6.174  -6.768  0.00  0.00    -0.203 F 
ATOM     14  C   UNL     1      -1.005   5.081  -6.979  0.00  0.00    +0.033 A 
ATOM     15  C   UNL     1       0.348   5.092  -6.660  0.00  0.00    +0.026 A 
ATOM     16  C   UNL     1       0.666   5.728  -5.469  0.00  0.00    +0.003 A 
ATOM     17  C   UNL     1      -0.322   6.133  -4.579  0.00  0.00    +0.018 A 
BRANCH  11  19
ATOM     18  C   UNL     1      -2.081   7.456  -2.961  0.00  0.00    +0.136 C 
ATOM     19  N   UNL     1      -2.436   7.308  -4.364  0.00  0.00    -0.233 NA
ENDBRANCH  11  19
ENDBRANCH   1  15
TORSDOF 2
ENDMDL
MODEL 6
REMARK VINA RESULT:      -7.3      3.996      7.482
REMARK  Name = 
REMARK  2 active torsions:
REMARK  status: ('A' for Active; 'I' for Inactive)
REMARK    1  A    between atoms: N_2  and  C_3
REMARK    2  A    between atoms: C_6  and  C_7
REMARK                            x       y       z     vdW  Elec       q    Type
REMARK                         _______ _______ _______ _____ _____    ______ ____
ROOT
ATOM      1  C   UNL     1       3.474   6.576  -8.087  0.00  0.00    +0.111 A 
ATOM      2  S   UNL     1       1.773   6.818  -8.177  0.00  0.00    -0.066 S 
ATOM      3  C   UNL     1       1.416   6.725  -6.499  0.00  0.00    +0.052 A 
ATOM      4  C   UNL     1       2.712   6.713  -5.993  0.00  0.00    +0.088 A 
ATOM      5  C   UNL     1       2.819   6.867  -4.614  0.00  0.00    +0.023 A 
ATOM      6  C   UNL     1       1.731   6.552  -3.810  0.00  0.00    +0.044 A 
ATOM      7  C   UNL     1       0.444   6.443  -4.323  0.00  0.00    +0.196 A 
ATOM      8  O   UNL     1      -0.510   5.649  -3.679  0.00  0.00    -0.287 OA
ATOM      9  C   UNL     1       0.309   6.786  -5.663  0.00  0.00    +0.050 A 
ATOM     10  N   UNL     1       3.557   6.096  -6.821  0.00  0.00    -0.238 NA
ENDROOT
BRANCH   1  15
ATOM     11  C   UNL     1       6.725   6.512 -10.620  0.00  0.00    +0.093 A 
ATOM     12  C   UNL     1       6.688   5.631  -9.546  0.00  0.00    +0.155 A 
ATOM     13  F   UNL     1       7.891   5.180  -9.108  0.00  0.00    -0.203 F 
ATOM     14  C   UNL     1       5.502   5.364  -8.894  0.00  0.00    +0.033 A 
ATOM     15  C   UNL     1       4.361   6.111  -9.163  0.00  0.00    +0.026 A 
ATOM     16  C   UNL     1       4.433   6.906 -10.299  0.00  0.00    +0.003 A 
ATOM     17  C   UNL     1       5.490   6.793 -11.194  0.00  0.00    +0.018 A 
BRANCH  11  19
ATOM     18  C   UNL     1       8.196   5.624 -12.355  0.00  0.00    +0.136 C 
ATOM     19  N   UNL     1       7.908   6.688 -11.405  0.00  0.00    -0.233 NA
ENDBRANCH  11  19
ENDBRANCH   1  15
TORSDOF 2
ENDMDL
MODEL 7
REMARK VINA RESULT:      -7.2      3.241      4.113
REMARK  Name = 
REMARK  2 active torsions:
REMARK  status: ('A' for Active; 'I' for Inactive)
REMARK    1  A    between atoms: N_2  and  C_3
REMARK    2  A    between atoms: C_6  and  C_7
REMARK                            x       y       z     vdW  Elec       q    Type
REMARK                         _______ _______ _______ _____ _____    ______ ____
ROOT
ATOM      1  C   UNL     1       0.887   6.211  -8.729  0.00  0.00    +0.111 A 
ATOM      2  S   UNL     1       2.467   5.897  -9.334  0.00  0.00    -0.066 S 
ATOM      3  C   UNL     1       2.136   6.083 -11.010  0.00  0.00    +0.052 A 
ATOM      4  C   UNL     1       0.840   6.580 -10.931  0.00  0.00    +0.088 A 
ATOM      5  C   UNL     1       0.309   7.067 -12.121  0.00  0.00    +0.023 A 
ATOM      6  C   UNL     1       0.837   6.627 -13.328  0.00  0.00    +0.044 A 
ATOM      7  C   UNL     1       2.084   6.019 -13.408  0.00  0.00    +0.196 A 
ATOM      8  O   UNL     1       2.378   5.140 -14.456  0.00  0.00    -0.287 OA
ATOM      9  C   UNL     1       2.808   5.992 -12.222  0.00  0.00    +0.050 A 
ATOM     10  N   UNL     1       0.184   6.078  -9.882  0.00  0.00    -0.238 NA
ENDROOT
BRANCH   1  15
ATOM     11  C   UNL     1      -1.406   6.388  -5.309  0.00  0.00    +0.093 A 
ATOM     12  C   UNL     1      -1.785   5.527  -6.332  0.00  0.00    +0.155 A 
ATOM     13  F   UNL     1      -3.099   5.192  -6.369  0.00  0.00    -0.203 F 
ATOM     14  C   UNL     1      -0.889   5.168  -7.318  0.00  0.00    +0.033 A 
ATOM     15  C   UNL     1       0.341   5.806  -7.425  0.00  0.00    +0.026 A 
ATOM     16  C   UNL     1       0.697   6.584  -6.332  0.00  0.00    +0.003 A 
ATOM     17  C   UNL     1      -0.035   6.549  -5.151  0.00  0.00    +0.018 A 
BRANCH  11  19
ATOM     18  C   UNL     1      -2.399   5.571  -3.233  0.00  0.00    +0.136 C 
ATOM     19  N   UNL     1      -2.265   6.654  -4.196  0.00  0.00    -0.233 NA
ENDBRANCH  11  19
ENDBRANCH   1  15
TORSDOF 2
ENDMDL
MODEL 8
REMARK VINA RESULT:      -7.2      4.352      8.130
REMARK  Name = 
REMARK  2 active torsions:
REMARK  status: ('A' for Active; 'I' for Inactive)
REMARK    1  A    between atoms: N_2  and  C_3
REMARK    2  A    between atoms: C_6  and  C_7
REMARK                            x       y       z     vdW  Elec       q    Type
REMARK                         _______ _______ _______ _____ _____    ______ ____
ROOT
ATOM      1  C   UNL     1       0.917   6.715  -6.543  0.00  0.00    +0.111 A 
ATOM      2  S   UNL     1      -0.137   5.360  -6.652  0.00  0.00    -0.066 S 
ATOM      3  C   UNL     1      -1.182   5.749  -5.344  0.00  0.00    +0.052 A 
ATOM      4  C   UNL     1      -0.722   7.031  -5.062  0.00  0.00    +0.088 A 
ATOM      5  C   UNL     1      -1.502   7.766  -4.173  0.00  0.00    +0.023 A 
ATOM      6  C   UNL     1      -2.345   7.095  -3.296  0.00  0.00    +0.044 A 
ATOM      7  C   UNL     1      -2.719   5.773  -3.502  0.00  0.00    +0.196 A 
ATOM      8  O   UNL     1      -3.099   4.969  -2.422  0.00  0.00    -0.287 OA
ATOM      9  C   UNL     1      -2.289   5.214  -4.699  0.00  0.00    +0.050 A 
ATOM     10  N   UNL     1       0.585   7.148  -5.301  0.00  0.00    -0.238 NA
ENDROOT
BRANCH   1  15
ATOM     11  C   UNL     1       4.293   5.692  -8.676  0.00  0.00    +0.093 A 
ATOM     12  C   UNL     1       3.461   6.691  -9.167  0.00  0.00    +0.155 A 
ATOM     13  F   UNL     1       3.518   6.906 -10.506  0.00  0.00    -0.203 F 
ATOM     14  C   UNL     1       2.541   7.309  -8.345  0.00  0.00    +0.033 A 
ATOM     15  C   UNL     1       2.286   6.817  -7.070  0.00  0.00    +0.026 A 
ATOM     16  C   UNL     1       3.204   5.884  -6.606  0.00  0.00    +0.003 A 
ATOM     17  C   UNL     1       4.386   5.630  -7.291  0.00  0.00    +0.018 A 
BRANCH  11  19
ATOM     18  C   UNL     1       6.658   5.763  -9.277  0.00  0.00    +0.136 C 
ATOM     19  N   UNL     1       5.354   5.145  -9.465  0.00  0.00    -0.233 NA
ENDBRANCH  11  19
ENDBRANCH   1  15
TORSDOF 2
ENDMDL
MODEL 9
REMARK VINA RESULT:      -7.2      2.653      3.259
REMARK  Name = 
REMARK  2 active torsions:
REMARK  status: ('A' for Active; 'I' for Inactive)
REMARK    1  A    between atoms: N_2  and  C_3
REMARK    2  A    between atoms: C_6  and  C_7
REMARK                            x       y       z     vdW  Elec       q    Type
REMARK                         _______ _______ _______ _____ _____    ______ ____
ROOT
ATOM      1  C   UNL     1       3.531   4.945  -7.600  0.00  0.00    +0.111 A 
ATOM      2  S   UNL     1       2.862   5.733  -8.976  0.00  0.00    -0.066 S 
ATOM      3  C   UNL     1       4.329   6.232  -9.718  0.00  0.00    +0.052 A 
ATOM      4  C   UNL     1       5.234   5.550  -8.911  0.00  0.00    +0.088 A 
ATOM      5  C   UNL     1       6.551   5.542  -9.359  0.00  0.00    +0.023 A 
ATOM      6  C   UNL     1       6.975   6.533 -10.235  0.00  0.00    +0.044 A 
ATOM      7  C   UNL     1       6.078   7.306 -10.962  0.00  0.00    +0.196 A 
ATOM      8  O   UNL     1       6.439   8.583 -11.405  0.00  0.00    -0.287 OA
ATOM      9  C   UNL     1       4.743   6.937 -10.840  0.00  0.00    +0.050 A 
ATOM     10  N   UNL     1       4.791   5.445  -7.657  0.00  0.00    -0.238 NA
ENDROOT
BRANCH   1  15
ATOM     11  C   UNL     1       1.319   5.642  -4.192  0.00  0.00    +0.093 A 
ATOM     12  C   UNL     1       0.720   4.993  -5.266  0.00  0.00    +0.155 A 
ATOM     13  F   UNL     1      -0.633   5.082  -5.332  0.00  0.00    -0.203 F 
ATOM     14  C   UNL     1       1.486   4.428  -6.264  0.00  0.00    +0.033 A 
ATOM     15  C   UNL     1       2.855   4.661  -6.326  0.00  0.00    +0.026 A 
ATOM     16  C   UNL     1       3.405   5.233  -5.187  0.00  0.00    +0.003 A 
ATOM     17  C   UNL     1       2.669   5.364  -4.016  0.00  0.00    +0.018 A 
BRANCH  11  19
ATOM     18  C   UNL     1       0.453   5.170  -1.959  0.00  0.00    +0.136 C 
ATOM     19  N   UNL     1       0.556   6.101  -3.073  0.00  0.00    -0.233 NA
ENDBRANCH  11  19
ENDBRANCH   1  15
TORSDOF 2
ENDMDL
