MODEL 1
REMARK VINA RESULT:      -8.0      0.000      0.000
REMARK  Name = 
REMARK  3 active torsions:
REMARK  status: ('A' for Active; 'I' for Inactive)
REMARK    1  A    between atoms: N_2  and  C_3
REMARK    2  A    between atoms: C_3  and  C_4
REMARK    3  A    between atoms: C_4  and  C_5
REMARK                            x       y       z     vdW  Elec       q    Type
REMARK                         _______ _______ _______ _____ _____    ______ ____
ROOT
ATOM      1  C   UNL     1       0.301   6.788  -3.781  0.00  0.00    -0.025 C 
ATOM      2  C   UNL     1       1.220   6.615  -4.716  0.00  0.00    -0.005 C 
ATOM      3  C   UNL     1       2.618   6.785  -4.318  0.00  0.00    -0.004 A 
ATOM      4  C   UNL     1       3.657   7.071  -5.190  0.00  0.00    -0.022 A 
ATOM      5  C   UNL     1       4.897   7.261  -4.590  0.00  0.00    -0.004 A 
ATOM      6  C   UNL     1       5.020   7.390  -3.212  0.00  0.00    -0.000 A 
ATOM      7  C   UNL     1       4.054   6.744  -2.458  0.00  0.00    -0.000 A 
ATOM      8  C   UNL     1       3.781   6.733  -6.641  0.00  0.00    +0.031 C 
ATOM      9  C   UNL     1       2.690   7.365  -7.466  0.00  0.00    +0.031 C 
ATOM     10  C   UNL     1       1.369   6.697  -7.249  0.00  0.00    -0.022 A 
ATOM     11  C   UNL     1       0.847   6.170  -8.424  0.00  0.00    -0.004 A 
ATOM     12  C   UNL     1      -0.179   5.261  -8.356  0.00  0.00    -0.000 A 
ATOM     13  C   UNL     1      -1.010   5.321  -7.248  0.00  0.00    -0.000 A 
ATOM     14  C   UNL     1      -0.584   5.887  -6.052  0.00  0.00    -0.000 A 
ATOM     15  C   UNL     1       2.764   6.676  -2.965  0.00  0.00    -0.000 A 
ATOM     16  C   UNL     1       0.676   6.463  -6.070  0.00  0.00    -0.004 A 
ENDROOT
BRANCH   1  17
ATOM     17  C   UNL     1      -0.926   5.974  -3.670  0.00  0.00    +0.045 C 
BRANCH  17  18
ATOM     18  C   UNL     1      -1.162   5.469  -2.264  0.00  0.00    +0.093 C 
BRANCH  18  20
ATOM     19  C   UNL     1      -3.221   5.257  -3.420  0.00  0.00    +0.107 C 
ATOM     20  N   UNL     1      -2.518   4.978  -2.176  0.00  0.00    -0.216 NA
ENDBRANCH  18  20
ENDBRANCH  17  18
ENDBRANCH   1  17
TORSDOF 3
ENDMDL
MODEL 2
REMARK VINA RESULT:      -7.9      5.540      8.133
REMARK  Name = 
REMARK  3 active torsions:
REMARK  status: ('A' for Active; 'I' for Inactive)
REMARK    1  A    between atoms: N_2  and  C_3
REMARK    2  A    between atoms: C_3  and  C_4
REMARK    3  A    between atoms: C_4  and  C_5
REMARK                            x       y       z     vdW  Elec       q    Type
REMARK                         _______ _______ _______ _____ _____    ______ ____
ROOT
ATOM      1  C   UNL     1       3.689   5.652 -12.358  0.00  0.00    -0.025 C 
ATOM      2  C   UNL     1       4.511   5.881 -11.349  0.00  0.00    -0.005 C 
ATOM      3  C   UNL     1       5.944   5.895 -11.645  0.00  0.00    -0.004 A 
ATOM      4  C   UNL     1       6.945   5.686 -10.708  0.00  0.00    -0.022 A 
ATOM      5  C   UNL     1       8.238   5.672 -11.219  0.00  0.00    -0.004 A 
ATOM      6  C   UNL     1       8.474   5.629 -12.588  0.00  0.00    -0.000 A 
ATOM      7  C   UNL     1       7.495   6.197 -13.386  0.00  0.00    -0.000 A 
ATOM      8  C   UNL     1       6.924   5.961  -9.239  0.00  0.00    +0.031 C 
ATOM      9  C   UNL     1       5.859   5.166  -8.528  0.00  0.00    +0.031 C 
ATOM     10  C   UNL     1       4.487   5.687  -8.818  0.00  0.00    -0.022 A 
ATOM     11  C   UNL     1       3.824   6.089  -7.665  0.00  0.00    -0.004 A 
ATOM     12  C   UNL     1       2.705   6.876  -7.773  0.00  0.00    -0.000 A 
ATOM     13  C   UNL     1       1.968   6.777  -8.943  0.00  0.00    -0.000 A 
ATOM     14  C   UNL     1       2.542   6.327 -10.125  0.00  0.00    -0.000 A 
ATOM     15  C   UNL     1       6.173   6.089 -12.977  0.00  0.00    -0.000 A 
ATOM     16  C   UNL     1       3.857   5.900 -10.035  0.00  0.00    -0.004 A 
ENDROOT
BRANCH   1  17
ATOM     17  C   UNL     1       2.385   6.323 -12.528  0.00  0.00    +0.045 C 
BRANCH  17  18
ATOM     18  C   UNL     1       1.837   6.181 -13.932  0.00  0.00    +0.093 C 
BRANCH  18  20
ATOM     19  C   UNL     1       0.706   4.106 -14.121  0.00  0.00    +0.107 C 
ATOM     20  N   UNL     1       1.968   4.800 -14.336  0.00  0.00    -0.216 NA
ENDBRANCH  18  20
ENDBRANCH  17  18
ENDBRANCH   1  17
TORSDOF 3
ENDMDL
MODEL 3
REMARK VINA RESULT:      -7.9      3.027      5.970
REMARK  Name = 
REMARK  3 active torsions:
REMARK  status: ('A' for Active; 'I' for Inactive)
REMARK    1  A    between atoms: N_2  and  C_3
REMARK    2  A    between atoms: C_3  and  C_4
REMARK    3  A    between atoms: C_4  and  C_5
REMARK                            x       y       z     vdW  Elec       q    Type
REMARK                         _______ _______ _______ _____ _____    ______ ____
ROOT
ATOM      1  C   UNL     1       0.162   5.480  -9.286  0.00  0.00    -0.025 C 
ATOM      2  C   UNL     1       0.779   5.600  -8.123  0.00  0.00    -0.005 C 
ATOM      3  C   UNL     1      -0.056   5.838  -6.945  0.00  0.00    -0.004 A 
ATOM      4  C   UNL     1       0.391   6.406  -5.763  0.00  0.00    -0.022 A 
ATOM      5  C   UNL     1      -0.588   6.606  -4.795  0.00  0.00    -0.004 A 
ATOM      6  C   UNL     1      -1.938   6.468  -5.094  0.00  0.00    -0.000 A 
ATOM      7  C   UNL     1      -2.241   5.581  -6.114  0.00  0.00    -0.000 A 
ATOM      8  C   UNL     1       1.766   6.383  -5.175  0.00  0.00    +0.031 C 
ATOM      9  C   UNL     1       2.778   7.045  -6.073  0.00  0.00    +0.031 C 
ATOM     10  C   UNL     1       3.092   6.206  -7.272  0.00  0.00    -0.022 A 
ATOM     11  C   UNL     1       4.439   5.872  -7.341  0.00  0.00    -0.004 A 
ATOM     12  C   UNL     1       4.840   4.862  -8.179  0.00  0.00    -0.000 A 
ATOM     13  C   UNL     1       4.051   4.606  -9.290  0.00  0.00    -0.000 A 
ATOM     14  C   UNL     1       2.708   4.963  -9.323  0.00  0.00    -0.000 A 
ATOM     15  C   UNL     1      -1.353   5.476  -7.176  0.00  0.00    -0.000 A 
ATOM     16  C   UNL     1       2.241   5.665  -8.224  0.00  0.00    -0.004 A 
ENDROOT
BRANCH   1  17
ATOM     17  C   UNL     1       0.569   4.530 -10.341  0.00  0.00    +0.045 C 
BRANCH  17  18
ATOM     18  C   UNL     1       0.009   4.895 -11.698  0.00  0.00    +0.093 C 
BRANCH  18  20
ATOM     19  C   UNL     1       1.667   6.292 -12.657  0.00  0.00    +0.107 C 
ATOM     20  N   UNL     1       0.373   6.263 -11.991  0.00  0.00    -0.216 NA
ENDBRANCH  18  20
ENDBRANCH  17  18
ENDBRANCH   1  17
TORSDOF 3
ENDMDL
MODEL 4
REMARK VINA RESULT:      -7.8      1.831      4.880
REMARK  Name = 
REMARK  3 active torsions:
REMARK  status: ('A' for Active; 'I' for Inactive)
REMARK    1  A    between atoms: N_2  and  C_3
REMARK    2  A    between atoms: C_3  and  C_4
REMARK    3  A    between atoms: C_4  and  C_5
REMARK                            x       y       z     vdW  Elec       q    Type
REMARK                         _______ _______ _______ _____ _____    ______ ____
ROOT
ATOM      1  C   UNL     1       1.568   6.216  -3.625  0.00  0.00    -0.025 C 
ATOM      2  C   UNL     1       0.599   6.250  -4.522  0.00  0.00    -0.005 C 
ATOM      3  C   UNL     1      -0.773   6.131  -4.029  0.00  0.00    -0.004 A 
ATOM      4  C   UNL     1      -1.854   5.720  -4.794  0.00  0.00    -0.022 A 
ATOM      5  C   UNL     1      -3.058   5.610  -4.105  0.00  0.00    -0.004 A 
ATOM      6  C   UNL     1      -3.105   5.676  -2.718  0.00  0.00    -0.000 A 
ATOM      7  C   UNL     1      -2.109   6.426  -2.116  0.00  0.00    -0.000 A 
ATOM      8  C   UNL     1      -2.060   5.850  -6.269  0.00  0.00    +0.031 C 
ATOM      9  C   UNL     1      -1.006   5.114  -7.055  0.00  0.00    +0.031 C 
ATOM     10  C   UNL     1       0.316   5.812  -7.007  0.00  0.00    -0.022 A 
ATOM     11  C   UNL     1       0.767   6.172  -8.271  0.00  0.00    -0.004 A 
ATOM     12  C   UNL     1       1.783   7.086  -8.388  0.00  0.00    -0.000 A 
ATOM     13  C   UNL     1       2.673   7.187  -7.329  0.00  0.00    -0.000 A 
ATOM     14  C   UNL     1       2.319   6.793  -6.044  0.00  0.00    -0.000 A 
ATOM     15  C   UNL     1      -0.849   6.429  -2.698  0.00  0.00    -0.000 A 
ATOM     16  C   UNL     1       1.068   6.214  -5.913  0.00  0.00    -0.004 A 
ENDROOT
BRANCH   1  17
ATOM     17  C   UNL     1       2.789   7.044  -3.696  0.00  0.00    +0.045 C 
BRANCH  17  18
ATOM     18  C   UNL     1       3.866   6.573  -2.743  0.00  0.00    +0.093 C 
BRANCH  18  20
ATOM     19  C   UNL     1       4.934   4.966  -4.121  0.00  0.00    +0.107 C 
ATOM     20  N   UNL     1       4.081   5.160  -2.957  0.00  0.00    -0.216 NA
ENDBRANCH  18  20
ENDBRANCH  17  18
ENDBRANCH   1  17
TORSDOF 3
ENDMDL
MODEL 5
REMARK VINA RESULT:      -7.7      3.984      5.837
REMARK  Name = 
REMARK  3 active torsions:
REMARK  status: ('A' for Active; 'I' for Inactive)
REMARK    1  A    between atoms: N_2  and  C_3
REMARK    2  A    between atoms: C_3  and  C_4
REMARK    3  A    between atoms: C_4  and  C_5
REMARK                            x       y       z     vdW  Elec       q    Type
REMARK                         _______ _______ _______ _____ _____    ______ ____
ROOT
ATOM      1  C   UNL     1       3.596   6.402  -8.439  0.00  0.00    -0.025 C 
ATOM      2  C   UNL     1       3.728   5.918  -9.661  0.00  0.00    -0.005 C 
ATOM      3  C   UNL     1       5.090   5.757 -10.172  0.00  0.00    -0.004 A 
ATOM      4  C   UNL     1       5.426   5.689 -11.516  0.00  0.00    -0.022 A 
ATOM      5  C   UNL     1       6.788   5.605 -11.781  0.00  0.00    -0.004 A 
ATOM      6  C   UNL     1       7.733   5.818 -10.784  0.00  0.00    -0.000 A 
ATOM      7  C   UNL     1       7.328   5.510  -9.496  0.00  0.00    -0.000 A 
ATOM      8  C   UNL     1       4.599   5.205 -12.663  0.00  0.00    +0.031 C 
ATOM      9  C   UNL     1       3.346   6.022 -12.844  0.00  0.00    +0.031 C 
ATOM     10  C   UNL     1       2.336   5.738 -11.776  0.00  0.00    -0.022 A 
ATOM     11  C   UNL     1       1.140   5.262 -12.299  0.00  0.00    -0.004 A 
ATOM     12  C   UNL     1       0.235   4.657 -11.463  0.00  0.00    -0.000 A 
ATOM     13  C   UNL     1       0.258   5.025 -10.126  0.00  0.00    -0.000 A 
ATOM     14  C   UNL     1       1.398   5.564  -9.543  0.00  0.00    -0.000 A 
ATOM     15  C   UNL     1       6.001   5.732  -9.155  0.00  0.00    -0.000 A 
ATOM     16  C   UNL     1       2.464   5.793 -10.396  0.00  0.00    -0.004 A 
ENDROOT
BRANCH   1  17
ATOM     17  C   UNL     1       2.575   5.943  -7.476  0.00  0.00    +0.045 C 
BRANCH  17  18
ATOM     18  C   UNL     1       3.138   4.998  -6.437  0.00  0.00    +0.093 C 
BRANCH  18  20
ATOM     19  C   UNL     1       0.881   4.455  -5.958  0.00  0.00    +0.107 C 
ATOM     20  N   UNL     1       2.201   3.914  -6.249  0.00  0.00    -0.216 NA
ENDBRANCH  18  20
ENDBRANCH  17  18
ENDBRANCH   1  17
TORSDOF 3
ENDMDL
MODEL 6
REMARK VINA RESULT:      -7.7      5.069      8.692
REMARK  Name = 
REMARK  3 active torsions:
REMARK  status: ('A' for Active; 'I' for Inactive)
REMARK    1  A    between atoms: N_2  and  C_3
REMARK    2  A    between atoms: C_3  and  C_4
REMARK    3  A    between atoms: C_4  and  C_5
REMARK                            x       y       z     vdW  Elec       q    Type
REMARK                         _______ _______ _______ _____ _____    ______ ____
ROOT
ATOM      1  C   UNL     1       4.538   6.358 -11.754  0.00  0.00    -0.025 C 
ATOM      2  C   UNL     1       3.570   6.290 -10.857  0.00  0.00    -0.005 C 
ATOM      3  C   UNL     1       2.198   6.451 -11.340  0.00  0.00    -0.004 A 
ATOM      4  C   UNL     1       1.124   6.838 -10.553  0.00  0.00    -0.022 A 
ATOM      5  C   UNL     1      -0.079   6.996 -11.232  0.00  0.00    -0.004 A 
ATOM      6  C   UNL     1      -0.130   7.001 -12.621  0.00  0.00    -0.000 A 
ATOM      7  C   UNL     1       0.855   6.269 -13.262  0.00  0.00    -0.000 A 
ATOM      8  C   UNL     1       0.920   6.637  -9.086  0.00  0.00    +0.031 C 
ATOM      9  C   UNL     1       1.984   7.320  -8.266  0.00  0.00    +0.031 C 
ATOM     10  C   UNL     1       3.297   6.608  -8.353  0.00  0.00    -0.022 A 
ATOM     11  C   UNL     1       3.746   6.181  -7.109  0.00  0.00    -0.004 A 
ATOM     12  C   UNL     1       4.751   5.249  -7.041  0.00  0.00    -0.000 A 
ATOM     13  C   UNL     1       5.638   5.189  -8.106  0.00  0.00    -0.000 A 
ATOM     14  C   UNL     1       5.286   5.651  -9.368  0.00  0.00    -0.000 A 
ATOM     15  C   UNL     1       2.117   6.221 -12.684  0.00  0.00    -0.000 A 
ATOM     16  C   UNL     1       4.042   6.252  -9.468  0.00  0.00    -0.004 A 
ENDROOT
BRANCH   1  17
ATOM     17  C   UNL     1       5.748   5.512 -11.727  0.00  0.00    +0.045 C 
BRANCH  17  18
ATOM     18  C   UNL     1       6.425   5.423 -13.078  0.00  0.00    +0.093 C 
BRANCH  18  20
ATOM     19  C   UNL     1       8.652   5.769 -12.342  0.00  0.00    +0.107 C 
ATOM     20  N   UNL     1       7.718   4.803 -12.901  0.00  0.00    -0.216 NA
ENDBRANCH  18  20
ENDBRANCH  17  18
ENDBRANCH   1  17
TORSDOF 3
ENDMDL
MODEL 7
REMARK VINA RESULT:      -7.7      4.051      7.174
REMARK  Name = 
REMARK  3 active torsions:
REMARK  status: ('A' for Active; 'I' for Inactive)
REMARK    1  A    between atoms: N_2  and  C_3
REMARK    2  A    between atoms: C_3  and  C_4
REMARK    3  A    between atoms: C_4  and  C_5
REMARK                            x       y       z     vdW  Elec       q    Type
REMARK                         _______ _______ _______ _____ _____    ______ ____
ROOT
ATOM      1  C   UNL     1       3.788   5.014  -8.327  0.00  0.00    -0.025 C 
ATOM      2  C   UNL     1       3.838   5.454  -9.573  0.00  0.00    -0.005 C 
ATOM      3  C   UNL     1       2.563   5.663 -10.259  0.00  0.00    -0.004 A 
ATOM      4  C   UNL     1       2.404   5.692 -11.636  0.00  0.00    -0.022 A 
ATOM      5  C   UNL     1       1.093   5.834 -12.077  0.00  0.00    -0.004 A 
ATOM      6  C   UNL     1       0.020   5.710 -11.203  0.00  0.00    -0.000 A 
ATOM      7  C   UNL     1       0.275   6.050  -9.885  0.00  0.00    -0.000 A 
ATOM      8  C   UNL     1       3.395   6.086 -12.685  0.00  0.00    +0.031 C 
ATOM      9  C   UNL     1       4.614   5.199 -12.675  0.00  0.00    +0.031 C 
ATOM     10  C   UNL     1       5.494   5.476 -11.497  0.00  0.00    -0.022 A 
ATOM     11  C   UNL     1       6.772   5.868 -11.877  0.00  0.00    -0.004 A 
ATOM     12  C   UNL     1       7.596   6.461 -10.954  0.00  0.00    -0.000 A 
ATOM     13  C   UNL     1       7.384   6.150  -9.619  0.00  0.00    -0.000 A 
ATOM     14  C   UNL     1       6.151   5.693  -9.169  0.00  0.00    -0.000 A 
ATOM     15  C   UNL     1       1.534   5.775  -9.369  0.00  0.00    -0.000 A 
ATOM     16  C   UNL     1       5.190   5.484 -10.144  0.00  0.00    -0.004 A 
ENDROOT
BRANCH   1  17
ATOM     17  C   UNL     1       4.704   5.460  -7.258  0.00  0.00    +0.045 C 
BRANCH  17  18
ATOM     18  C   UNL     1       4.011   5.597  -5.920  0.00  0.00    +0.093 C 
BRANCH  18  20
ATOM     19  C   UNL     1       4.573   7.456  -4.561  0.00  0.00    +0.107 C 
ATOM     20  N   UNL     1       3.759   6.999  -5.677  0.00  0.00    -0.216 NA
ENDBRANCH  18  20
ENDBRANCH  17  18
ENDBRANCH   1  17
TORSDOF 3
ENDMDL
MODEL 8
REMARK VINA RESULT:      -7.6      5.719      8.272
REMARK  Name = 
REMARK  3 active torsions:
REMARK  status: ('A' for Active; 'I' for Inactive)
REMARK    1  A    between atoms: N_2  and  C_3
REMARK    2  A    between atoms: C_3  and  C_4
REMARK    3  A    between atoms: C_4  and  C_5
REMARK                            x       y       z     vdW  Elec       q    Type
REMARK                         _______ _______ _______ _____ _____    ______ ____
ROOT
ATOM      1  C   UNL     1       3.449   5.914 -12.090  0.00  0.00    -0.025 C 
ATOM      2  C   UNL     1       4.543   5.718 -11.375  0.00  0.00    -0.005 C 
ATOM      3  C   UNL     1       4.366   5.416  -9.954  0.00  0.00    -0.004 A 
ATOM      4  C   UNL     1       5.336   5.604  -8.981  0.00  0.00    -0.022 A 
ATOM      5  C   UNL     1       4.933   5.316  -7.681  0.00  0.00    -0.004 A 
ATOM      6  C   UNL     1       3.596   5.094  -7.372  0.00  0.00    -0.000 A 
ATOM      7  C   UNL     1       2.819   4.577  -8.395  0.00  0.00    -0.000 A 
ATOM      8  C   UNL     1       6.824   5.580  -9.126  0.00  0.00    +0.031 C 
ATOM      9  C   UNL     1       7.319   6.648 -10.066  0.00  0.00    +0.031 C 
ATOM     10  C   UNL     1       7.005   6.325 -11.493  0.00  0.00    -0.022 A 
ATOM     11  C   UNL     1       8.150   6.234 -12.275  0.00  0.00    -0.004 A 
ATOM     12  C   UNL     1       8.075   5.640 -13.509  0.00  0.00    -0.000 A 
ATOM     13  C   UNL     1       6.849   5.668 -14.156  0.00  0.00    -0.000 A 
ATOM     14  C   UNL     1       5.661   5.816 -13.451  0.00  0.00    -0.000 A 
ATOM     15  C   UNL     1       3.102   4.970  -9.696  0.00  0.00    -0.000 A 
ATOM     16  C   UNL     1       5.789   6.025 -12.088  0.00  0.00    -0.004 A 
ENDROOT
BRANCH   1  17
ATOM     17  C   UNL     1       3.281   5.453 -13.483  0.00  0.00    +0.045 C 
BRANCH  17  18
ATOM     18  C   UNL     1       2.020   5.990 -14.124  0.00  0.00    +0.093 C 
BRANCH  18  20
ATOM     19  C   UNL     1       0.570   7.785 -13.578  0.00  0.00    +0.107 C 
ATOM     20  N   UNL     1       1.187   6.560 -13.090  0.00  0.00    -0.216 NA
ENDBRANCH  18  20
ENDBRANCH  17  18
ENDBRANCH   1  17
TORSDOF 3
ENDMDL
MODEL 9
REMARK VINA RESULT:      -7.6      2.107      4.892
REMARK  Name = 
REMARK  3 active torsions:
REMARK  status: ('A' for Active; 'I' for Inactive)
REMARK    1  A    between atoms: N_2  and  C_3
REMARK    2  A    between atoms: C_3  and  C_4
REMARK    3  A    between atoms: C_4  and  C_5
REMARK                            x       y       z     vdW  Elec       q    Type
REMARK                         _______ _______ _______ _____ _____    ______ ____
ROOT
ATOM      1  C   UNL     1       0.428   5.176  -2.504  0.00  0.00    -0.025 C 
ATOM      2  C   UNL     1       0.824   5.349  -3.753  0.00  0.00    -0.005 C 
ATOM      3  C   UNL     1      -0.219   5.500  -4.769  0.00  0.00    -0.004 A 
ATOM      4  C   UNL     1      -0.042   5.259  -6.123  0.00  0.00    -0.022 A 
ATOM      5  C   UNL     1      -1.186   5.398  -6.902  0.00  0.00    -0.004 A 
ATOM      6  C   UNL     1      -2.442   5.528  -6.324  0.00  0.00    -0.000 A 
ATOM      7  C   UNL     1      -2.469   6.110  -5.067  0.00  0.00    -0.000 A 
ATOM      8  C   UNL     1       1.208   5.364  -6.936  0.00  0.00    +0.031 C 
ATOM      9  C   UNL     1       2.278   4.417  -6.456  0.00  0.00    +0.031 C 
ATOM     10  C   UNL     1       2.880   4.867  -5.162  0.00  0.00    -0.022 A 
ATOM     11  C   UNL     1       4.248   5.086  -5.267  0.00  0.00    -0.004 A 
ATOM     12  C   UNL     1       4.893   5.796  -4.286  0.00  0.00    -0.000 A 
ATOM     13  C   UNL     1       4.335   5.778  -3.016  0.00  0.00    -0.000 A 
ATOM     14  C   UNL     1       2.986   5.508  -2.821  0.00  0.00    -0.000 A 
ATOM     15  C   UNL     1      -1.409   5.861  -4.206  0.00  0.00    -0.000 A 
ATOM     16  C   UNL     1       2.266   5.170  -3.955  0.00  0.00    -0.004 A 
ENDROOT
BRANCH   1  17
ATOM     17  C   UNL     1       1.110   5.767  -1.334  0.00  0.00    +0.045 C 
BRANCH  17  18
ATOM     18  C   UNL     1       0.149   6.448  -0.385  0.00  0.00    +0.093 C 
BRANCH  18  20
ATOM     19  C   UNL     1       2.091   7.632   0.282  0.00  0.00    +0.107 C 
ATOM     20  N   UNL     1       0.898   6.941   0.749  0.00  0.00    -0.216 NA
ENDBRANCH  18  20
ENDBRANCH  17  18
ENDBRANCH   1  17
TORSDOF 3
ENDMDL
