MODEL 1
REMARK VINA RESULT:      -7.5      0.000      0.000
REMARK  Name = 
REMARK  11 active torsions:
REMARK  status: ('A' for Active; 'I' for Inactive)
REMARK    1  A    between atoms: C_2  and  C_3
REMARK    2  A    between atoms: C_13  and  O_14
REMARK    3  A    between atoms: O_14  and  C_15
REMARK    4  A    between atoms: C_20  and  N_21
REMARK    5  A    between atoms: C_26  and  O_28
REMARK    6  A    between atoms: N_38  and  C_39
REMARK    7  A    between atoms: C_39  and  C_40
REMARK    8  A    between atoms: C_40  and  C_41
REMARK    9  A    between atoms: C_41  and  C_42
REMARK   10  A    between atoms: C_42  and  N_43
REMARK   11  A    between atoms: C_46  and  C_47
REMARK                            x       y       z     vdW  Elec       q    Type
REMARK                         _______ _______ _______ _____ _____    ______ ____
ROOT
ATOM      1  C   UNL     1      -0.108   6.260  -5.072  0.00  0.00    +0.207 C 
ATOM      2  C   UNL     1       0.698   6.943  -6.304  0.00  0.00    +0.191 C 
ATOM      3  C   UNL     1       1.845   5.903  -6.797  0.00  0.00    +0.125 C 
ATOM      4  N   UNL     1       0.911   5.091  -7.757  0.00  0.00    -0.244 N 
ATOM      5  C   UNL     1      -0.381   5.343  -7.237  0.00  0.00    +0.405 C 
ATOM      6  O   UNL     1      -1.297   4.460  -7.215  0.00  0.00    -0.226 OA
ATOM      7  C   UNL     1       1.775   4.802  -5.494  0.00  0.00    +0.079 C 
ATOM      8  C   UNL     1       2.163   3.495  -6.385  0.00  0.00    +0.010 C 
ATOM      9  C   UNL     1       3.285   5.017  -5.011  0.00  0.00    +0.152 C 
ATOM     10  O   UNL     1       3.784   4.026  -4.571  0.00  0.00    -0.296 OA
ATOM     11  C   UNL     1       3.459   6.362  -4.149  0.00  0.00    +0.060 C 
ATOM     12  C   UNL     1       4.976   5.991  -3.663  0.00  0.00    +0.008 C 
ATOM     13  C   UNL     1       2.831   5.711  -2.791  0.00  0.00    +0.037 C 
ATOM     14  C   UNL     1       2.909   6.702  -1.688  0.00  0.00    +0.119 C 
ATOM     15  C   UNL     1       3.440   5.880  -0.510  0.00  0.00    +0.032 C 
ATOM     16  C   UNL     1       1.411   7.206  -1.271  0.00  0.00    +0.149 C 
ATOM     17  C   UNL     1       1.012   5.629  -0.687  0.00  0.00    +0.088 C 
ATOM     18  C   UNL     1      -0.346   6.065   0.086  0.00  0.00    +0.010 C 
ATOM     19  C   UNL     1       0.361   5.089  -1.990  0.00  0.00    +0.163 C 
ATOM     20  O   UNL     1       0.441   3.854  -1.939  0.00  0.00    -0.295 OA
ATOM     21  C   UNL     1      -0.955   5.351  -2.815  0.00  0.00    +0.156 C 
ATOM     22  C   UNL     1      -2.061   5.375  -1.591  0.00  0.00    +0.020 C 
ATOM     23  C   UNL     1      -0.758   6.945  -2.949  0.00  0.00    +0.324 C 
ATOM     24  O   UNL     1      -1.352   7.694  -2.146  0.00  0.00    -0.250 OA
ATOM     25  C   UNL     1       1.212   8.242  -6.036  0.00  0.00    +0.049 C 
ATOM     26  O   UNL     1      -0.301   6.743  -7.279  0.00  0.00    -0.436 OA
ATOM     27  O   UNL     1       0.107   7.333  -3.980  0.00  0.00    -0.448 OA
ENDROOT
BRANCH  14  28
ATOM     28  O   UNL     1       3.694   7.809  -1.911  0.00  0.00    -0.353 OA
ATOM     29  C   UNL     1       4.843   7.693  -1.117  0.00  0.00    +0.174 C 
ENDBRANCH  14  28
BRANCH   1  31
ATOM     30  C   UNL     1      -2.309   6.502  -5.178  0.00  0.00    +0.004 C 
ATOM     31  C   UNL     1      -1.514   7.045  -5.480  0.00  0.00    +0.047 C 
ENDBRANCH   1  31
BRANCH  16  32
ATOM     32  O   UNL     1       1.883   7.627   0.077  0.00  0.00    -0.328 OA
BRANCH  32  33
ATOM     33  C   UNL     1       1.633   9.121   0.208  0.00  0.00    +0.268 C 
ATOM     34  C   UNL     1       0.670   8.922   1.621  0.00  0.00    +0.222 C 
ATOM     35  O   UNL     1      -0.586   9.084   0.802  0.00  0.00    -0.216 OA
ATOM     36  C   UNL     1       0.710  10.555   2.087  0.00  0.00    +0.096 C 
ATOM     37  C   UNL     1       2.176  10.312   2.744  0.00  0.00    +0.048 C 
ATOM     38  C   UNL     1       3.093  10.607   1.419  0.00  0.00    +0.119 C 
ATOM     39  C   UNL     1       4.415  10.141   2.318  0.00  0.00    +0.032 C 
ATOM     40  O   UNL     1       2.957   9.194   0.946  0.00  0.00    -0.331 OA
BRANCH  36  41
ATOM     41  N   UNL     1       0.012  10.291   3.452  0.00  0.00    -0.269 NA
ATOM     42  C   UNL     1      -1.325  10.894   3.384  0.00  0.00    +0.090 C 
ATOM     43  C   UNL     1      -0.113   8.911   3.748  0.00  0.00    +0.090 C 
ENDBRANCH  36  41
ENDBRANCH  32  33
ENDBRANCH  16  32
BRANCH   4  44
ATOM     44  C   UNL     1       1.343   4.204  -8.825  0.00  0.00    +0.097 C 
BRANCH  44  45
ATOM     45  C   UNL     1       0.683   4.538 -10.175  0.00  0.00    +0.024 C 
BRANCH  45  46
ATOM     46  C   UNL     1       0.953   5.924 -10.512  0.00  0.00    +0.026 C 
BRANCH  46  47
ATOM     47  C   UNL     1       1.200   6.355 -11.896  0.00  0.00    +0.108 C 
BRANCH  47  48
ATOM     48  N   UNL     1       2.500   5.759 -12.221  0.00  0.00    -0.308 N 
ATOM     49  C   UNL     1       3.637   6.487 -12.055  0.00  0.00    +0.096 A 
ATOM     50  C   UNL     1       4.651   5.924 -12.826  0.00  0.00    +0.102 A 
ATOM     51  N   UNL     1       3.988   5.015 -13.586  0.00  0.00    -0.224 NA
ATOM     52  C   UNL     1       2.650   5.220 -13.465  0.00  0.00    +0.179 A 
BRANCH  50  53
ATOM     53  C   UNL     1       6.045   5.938 -12.405  0.00  0.00    +0.038 A 
ATOM     54  C   UNL     1       7.053   5.279 -13.100  0.00  0.00    +0.100 A 
ATOM     55  N   UNL     1       8.101   4.877 -12.334  0.00  0.00    -0.242 NA
ATOM     56  C   UNL     1       8.180   5.240 -11.028  0.00  0.00    +0.099 A 
ATOM     57  C   UNL     1       7.373   6.252 -10.509  0.00  0.00    +0.021 A 
ATOM     58  C   UNL     1       6.542   6.843 -11.464  0.00  0.00    +0.005 A 
ENDBRANCH  50  53
ENDBRANCH  47  48
ENDBRANCH  46  47
ENDBRANCH  45  46
ENDBRANCH  44  45
ENDBRANCH   4  44
TORSDOF 11
ENDMDL
MODEL 2
REMARK VINA RESULT:      -7.3      1.038      1.460
REMARK  Name = 
REMARK  11 active torsions:
REMARK  status: ('A' for Active; 'I' for Inactive)
REMARK    1  A    between atoms: C_2  and  C_3
REMARK    2  A    between atoms: C_13  and  O_14
REMARK    3  A    between atoms: O_14  and  C_15
REMARK    4  A    between atoms: C_20  and  N_21
REMARK    5  A    between atoms: C_26  and  O_28
REMARK    6  A    between atoms: N_38  and  C_39
REMARK    7  A    between atoms: C_39  and  C_40
REMARK    8  A    between atoms: C_40  and  C_41
REMARK    9  A    between atoms: C_41  and  C_42
REMARK   10  A    between atoms: C_42  and  N_43
REMARK   11  A    between atoms: C_46  and  C_47
REMARK                            x       y       z     vdW  Elec       q    Type
REMARK                         _______ _______ _______ _____ _____    ______ ____
ROOT
ATOM      1  C   UNL     1      -0.036   6.287  -5.021  0.00  0.00    +0.207 C 
ATOM      2  C   UNL     1       0.737   6.942  -6.289  0.00  0.00    +0.191 C 
ATOM      3  C   UNL     1       1.816   5.858  -6.839  0.00  0.00    +0.125 C 
ATOM      4  N   UNL     1       0.805   5.090  -7.755  0.00  0.00    -0.244 N 
ATOM      5  C   UNL     1      -0.450   5.392  -7.173  0.00  0.00    +0.405 C 
ATOM      6  O   UNL     1      -1.399   4.546  -7.109  0.00  0.00    -0.226 OA
ATOM      7  C   UNL     1       1.763   4.756  -5.537  0.00  0.00    +0.079 C 
ATOM      8  C   UNL     1       2.055   3.438  -6.449  0.00  0.00    +0.010 C 
ATOM      9  C   UNL     1       3.303   4.907  -5.127  0.00  0.00    +0.152 C 
ATOM     10  O   UNL     1       3.781   3.895  -4.714  0.00  0.00    -0.296 OA
ATOM     11  C   UNL     1       3.572   6.240  -4.270  0.00  0.00    +0.060 C 
ATOM     12  C   UNL     1       5.094   5.806  -3.859  0.00  0.00    +0.008 C 
ATOM     13  C   UNL     1       2.984   5.609  -2.886  0.00  0.00    +0.037 C 
ATOM     14  C   UNL     1       3.155   6.592  -1.786  0.00  0.00    +0.119 C 
ATOM     15  C   UNL     1       3.708   5.744  -0.636  0.00  0.00    +0.032 C 
ATOM     16  C   UNL     1       1.701   7.154  -1.296  0.00  0.00    +0.149 C 
ATOM     17  C   UNL     1       1.267   5.593  -0.697  0.00  0.00    +0.088 C 
ATOM     18  C   UNL     1      -0.034   6.080   0.141  0.00  0.00    +0.010 C 
ATOM     19  C   UNL     1       0.532   5.085  -1.968  0.00  0.00    +0.163 C 
ATOM     20  O   UNL     1       0.564   3.847  -1.924  0.00  0.00    -0.295 OA
ATOM     21  C   UNL     1      -0.810   5.403  -2.729  0.00  0.00    +0.156 C 
ATOM     22  C   UNL     1      -1.854   5.467  -1.452  0.00  0.00    +0.020 C 
ATOM     23  C   UNL     1      -0.555   6.989  -2.868  0.00  0.00    +0.324 C 
ATOM     24  O   UNL     1      -1.079   7.758  -2.036  0.00  0.00    -0.250 OA
ATOM     25  C   UNL     1       1.315   8.218  -6.043  0.00  0.00    +0.049 C 
ATOM     26  O   UNL     1      -0.315   6.787  -7.216  0.00  0.00    -0.436 OA
ATOM     27  O   UNL     1       0.275   7.346  -3.939  0.00  0.00    -0.448 OA
ENDROOT
BRANCH  14  28
ATOM     28  O   UNL     1       3.973   7.667  -2.044  0.00  0.00    -0.353 OA
ATOM     29  C   UNL     1       5.075   7.590  -1.182  0.00  0.00    +0.174 C 
ENDBRANCH  14  28
BRANCH   1  31
ATOM     30  C   UNL     1      -2.228   6.617  -5.024  0.00  0.00    +0.004 C 
ATOM     31  C   UNL     1      -1.427   7.131  -5.359  0.00  0.00    +0.047 C 
ENDBRANCH   1  31
BRANCH  16  32
ATOM     32  O   UNL     1       2.254   7.550   0.028  0.00  0.00    -0.328 OA
BRANCH  32  33
ATOM     33  C   UNL     1       1.585   8.852   0.439  0.00  0.00    +0.268 C 
ATOM     34  C   UNL     1       2.418   8.906   1.944  0.00  0.00    +0.222 C 
ATOM     35  O   UNL     1       1.191   8.395   2.656  0.00  0.00    -0.216 OA
ATOM     36  C   UNL     1       2.069  10.535   2.275  0.00  0.00    +0.096 C 
ATOM     37  C   UNL     1       3.288  10.976   1.295  0.00  0.00    +0.048 C 
ATOM     38  C   UNL     1       2.462  11.026  -0.118  0.00  0.00    +0.119 C 
ATOM     39  C   UNL     1       3.917  11.315  -0.875  0.00  0.00    +0.032 C 
ATOM     40  O   UNL     1       2.668   9.563  -0.351  0.00  0.00    -0.331 OA
BRANCH  36  41
ATOM     41  N   UNL     1       2.999  10.590   3.521  0.00  0.00    -0.269 NA
ATOM     42  C   UNL     1       4.096   9.642   3.292  0.00  0.00    +0.090 C 
ATOM     43  C   UNL     1       3.539  11.881   3.747  0.00  0.00    +0.090 C 
ENDBRANCH  36  41
ENDBRANCH  32  33
ENDBRANCH  16  32
BRANCH   4  44
ATOM     44  C   UNL     1       1.148   4.191  -8.845  0.00  0.00    +0.097 C 
BRANCH  44  45
ATOM     45  C   UNL     1       0.365   4.496 -10.134  0.00  0.00    +0.024 C 
BRANCH  45  46
ATOM     46  C   UNL     1       0.681   5.841 -10.580  0.00  0.00    +0.026 C 
BRANCH  46  47
ATOM     47  C   UNL     1       0.922   6.156 -11.996  0.00  0.00    +0.108 C 
BRANCH  47  48
ATOM     48  N   UNL     1       2.269   5.631 -12.246  0.00  0.00    -0.308 N 
ATOM     49  C   UNL     1       3.345   6.230 -11.669  0.00  0.00    +0.096 A 
ATOM     50  C   UNL     1       4.491   5.880 -12.378  0.00  0.00    +0.102 A 
ATOM     51  N   UNL     1       3.992   5.267 -13.482  0.00  0.00    -0.224 NA
ATOM     52  C   UNL     1       2.651   5.481 -13.546  0.00  0.00    +0.179 A 
BRANCH  50  53
ATOM     53  C   UNL     1       5.784   5.711 -11.729  0.00  0.00    +0.038 A 
ATOM     54  C   UNL     1       5.947   5.731 -10.348  0.00  0.00    +0.100 A 
ATOM     55  N   UNL     1       7.165   6.158  -9.927  0.00  0.00    -0.242 NA
ATOM     56  C   UNL     1       8.160   6.397 -10.820  0.00  0.00    +0.099 A 
ATOM     57  C   UNL     1       8.072   5.946 -12.136  0.00  0.00    +0.021 A 
ATOM     58  C   UNL     1       6.908   5.219 -12.397  0.00  0.00    +0.005 A 
ENDBRANCH  50  53
ENDBRANCH  47  48
ENDBRANCH  46  47
ENDBRANCH  45  46
ENDBRANCH  44  45
ENDBRANCH   4  44
TORSDOF 11
ENDMDL
MODEL 3
REMARK VINA RESULT:      -6.7      2.057      2.815
REMARK  Name = 
REMARK  11 active torsions:
REMARK  status: ('A' for Active; 'I' for Inactive)
REMARK    1  A    between atoms: C_2  and  C_3
REMARK    2  A    between atoms: C_13  and  O_14
REMARK    3  A    between atoms: O_14  and  C_15
REMARK    4  A    between atoms: C_20  and  N_21
REMARK    5  A    between atoms: C_26  and  O_28
REMARK    6  A    between atoms: N_38  and  C_39
REMARK    7  A    between atoms: C_39  and  C_40
REMARK    8  A    between atoms: C_40  and  C_41
REMARK    9  A    between atoms: C_41  and  C_42
REMARK   10  A    between atoms: C_42  and  N_43
REMARK   11  A    between atoms: C_46  and  C_47
REMARK                            x       y       z     vdW  Elec       q    Type
REMARK                         _______ _______ _______ _____ _____    ______ ____
ROOT
ATOM      1  C   UNL     1      -0.105   6.244  -5.073  0.00  0.00    +0.207 C 
ATOM      2  C   UNL     1       0.697   6.936  -6.302  0.00  0.00    +0.191 C 
ATOM      3  C   UNL     1       1.866   5.914  -6.783  0.00  0.00    +0.125 C 
ATOM      4  N   UNL     1       0.954   5.082  -7.746  0.00  0.00    -0.244 N 
ATOM      5  C   UNL     1      -0.346   5.313  -7.236  0.00  0.00    +0.405 C 
ATOM      6  O   UNL     1      -1.246   4.414  -7.217  0.00  0.00    -0.226 OA
ATOM      7  C   UNL     1       1.807   4.819  -5.476  0.00  0.00    +0.079 C 
ATOM      8  C   UNL     1       2.225   3.515  -6.357  0.00  0.00    +0.010 C 
ATOM      9  C   UNL     1       3.309   5.062  -4.982  0.00  0.00    +0.152 C 
ATOM     10  O   UNL     1       3.822   4.082  -4.535  0.00  0.00    -0.296 OA
ATOM     11  C   UNL     1       3.452   6.414  -4.125  0.00  0.00    +0.060 C 
ATOM     12  C   UNL     1       4.972   6.072  -3.626  0.00  0.00    +0.008 C 
ATOM     13  C   UNL     1       2.827   5.757  -2.769  0.00  0.00    +0.037 C 
ATOM     14  C   UNL     1       2.879   6.755  -1.670  0.00  0.00    +0.119 C 
ATOM     15  C   UNL     1       3.416   5.947  -0.484  0.00  0.00    +0.032 C 
ATOM     16  C   UNL     1       1.369   7.233  -1.266  0.00  0.00    +0.149 C 
ATOM     17  C   UNL     1       0.994   5.652  -0.678  0.00  0.00    +0.088 C 
ATOM     18  C   UNL     1      -0.377   6.067   0.084  0.00  0.00    +0.010 C 
ATOM     19  C   UNL     1       0.362   5.095  -1.982  0.00  0.00    +0.163 C 
ATOM     20  O   UNL     1       0.464   3.862  -1.926  0.00  0.00    -0.295 OA
ATOM     21  C   UNL     1      -0.952   5.330  -2.819  0.00  0.00    +0.156 C 
ATOM     22  C   UNL     1      -2.067   5.339  -1.602  0.00  0.00    +0.020 C 
ATOM     23  C   UNL     1      -0.783   6.927  -2.958  0.00  0.00    +0.324 C 
ATOM     24  O   UNL     1      -1.396   7.668  -2.163  0.00  0.00    -0.250 OA
ATOM     25  C   UNL     1       1.186   8.245  -6.036  0.00  0.00    +0.049 C 
ATOM     26  O   UNL     1      -0.291   6.714  -7.284  0.00  0.00    -0.436 OA
ATOM     27  O   UNL     1       0.083   7.326  -3.985  0.00  0.00    -0.448 OA
ENDROOT
BRANCH  14  28
ATOM     28  O   UNL     1       3.646   7.874  -1.892  0.00  0.00    -0.353 OA
ATOM     29  C   UNL     1       4.775   7.798  -1.066  0.00  0.00    +0.174 C 
ENDBRANCH  14  28
BRANCH   1  31
ATOM     30  C   UNL     1      -2.309   6.441  -5.208  0.00  0.00    +0.004 C 
ATOM     31  C   UNL     1      -1.522   7.003  -5.495  0.00  0.00    +0.047 C 
ENDBRANCH   1  31
BRANCH  16  32
ATOM     32  O   UNL     1       1.824   7.669   0.083  0.00  0.00    -0.328 OA
BRANCH  32  33
ATOM     33  C   UNL     1       1.515   9.151   0.220  0.00  0.00    +0.268 C 
ATOM     34  C   UNL     1       0.577   8.913   1.644  0.00  0.00    +0.222 C 
ATOM     35  O   UNL     1      -0.694   9.023   0.840  0.00  0.00    -0.216 OA
ATOM     36  C   UNL     1       0.557  10.545   2.110  0.00  0.00    +0.096 C 
ATOM     37  C   UNL     1       2.039  10.362   2.750  0.00  0.00    +0.048 C 
ATOM     38  C   UNL     1       2.927  10.695   1.414  0.00  0.00    +0.119 C 
ATOM     39  C   UNL     1       4.278  10.283   2.297  0.00  0.00    +0.032 C 
ATOM     40  O   UNL     1       2.843   9.278   0.941  0.00  0.00    -0.331 OA
BRANCH  36  41
ATOM     41  N   UNL     1      -0.114  10.253   3.484  0.00  0.00    -0.269 NA
ATOM     42  C   UNL     1      -1.439  10.883   3.468  0.00  0.00    +0.090 C 
ATOM     43  C   UNL     1      -0.259   8.866   3.740  0.00  0.00    +0.090 C 
ENDBRANCH  36  41
ENDBRANCH  32  33
ENDBRANCH  16  32
BRANCH   4  44
ATOM     44  C   UNL     1       1.409   4.199  -8.807  0.00  0.00    +0.097 C 
BRANCH  44  45
ATOM     45  C   UNL     1       2.052   4.961  -9.978  0.00  0.00    +0.024 C 
BRANCH  45  46
ATOM     46  C   UNL     1       1.056   5.181 -11.012  0.00  0.00    +0.026 C 
BRANCH  46  47
ATOM     47  C   UNL     1       0.606   6.530 -11.385  0.00  0.00    +0.108 C 
BRANCH  47  48
ATOM     48  N   UNL     1       1.128   6.708 -12.745  0.00  0.00    -0.308 N 
ATOM     49  C   UNL     1       0.646   7.710 -13.528  0.00  0.00    +0.096 A 
ATOM     50  C   UNL     1       0.924   7.416 -14.860  0.00  0.00    +0.102 A 
ATOM     51  N   UNL     1       1.361   6.133 -14.805  0.00  0.00    -0.224 NA
ATOM     52  C   UNL     1       1.103   5.623 -13.572  0.00  0.00    +0.179 A 
BRANCH  50  53
ATOM     53  C   UNL     1       1.217   8.454 -15.839  0.00  0.00    +0.038 A 
ATOM     54  C   UNL     1       1.659   8.177 -17.128  0.00  0.00    +0.100 A 
ATOM     55  N   UNL     1       2.431   9.145 -17.685  0.00  0.00    -0.242 NA
ATOM     56  C   UNL     1       2.610  10.334 -17.051  0.00  0.00    +0.099 A 
ATOM     57  C   UNL     1       1.799  10.712 -15.983  0.00  0.00    +0.021 A 
ATOM     58  C   UNL     1       0.803   9.779 -15.685  0.00  0.00    +0.005 A 
ENDBRANCH  50  53
ENDBRANCH  47  48
ENDBRANCH  46  47
ENDBRANCH  45  46
ENDBRANCH  44  45
ENDBRANCH   4  44
TORSDOF 11
ENDMDL
MODEL 4
REMARK VINA RESULT:      -6.0      1.438      2.170
REMARK  Name = 
REMARK  11 active torsions:
REMARK  status: ('A' for Active; 'I' for Inactive)
REMARK    1  A    between atoms: C_2  and  C_3
REMARK    2  A    between atoms: C_13  and  O_14
REMARK    3  A    between atoms: O_14  and  C_15
REMARK    4  A    between atoms: C_20  and  N_21
REMARK    5  A    between atoms: C_26  and  O_28
REMARK    6  A    between atoms: N_38  and  C_39
REMARK    7  A    between atoms: C_39  and  C_40
REMARK    8  A    between atoms: C_40  and  C_41
REMARK    9  A    between atoms: C_41  and  C_42
REMARK   10  A    between atoms: C_42  and  N_43
REMARK   11  A    between atoms: C_46  and  C_47
REMARK                            x       y       z     vdW  Elec       q    Type
REMARK                         _______ _______ _______ _____ _____    ______ ____
ROOT
ATOM      1  C   UNL     1      -0.014   6.281  -4.972  0.00  0.00    +0.207 C 
ATOM      2  C   UNL     1       0.746   6.967  -6.232  0.00  0.00    +0.191 C 
ATOM      3  C   UNL     1       1.851   5.914  -6.790  0.00  0.00    +0.125 C 
ATOM      4  N   UNL     1       0.860   5.131  -7.716  0.00  0.00    -0.244 N 
ATOM      5  C   UNL     1      -0.403   5.398  -7.133  0.00  0.00    +0.405 C 
ATOM      6  O   UNL     1      -1.332   4.529  -7.080  0.00  0.00    -0.226 OA
ATOM      7  C   UNL     1       1.822   4.798  -5.499  0.00  0.00    +0.079 C 
ATOM      8  C   UNL     1       2.146   3.496  -6.422  0.00  0.00    +0.010 C 
ATOM      9  C   UNL     1       3.356   4.981  -5.083  0.00  0.00    +0.152 C 
ATOM     10  O   UNL     1       3.858   3.976  -4.679  0.00  0.00    -0.296 OA
ATOM     11  C   UNL     1       3.592   6.312  -4.214  0.00  0.00    +0.060 C 
ATOM     12  C   UNL     1       5.124   5.909  -3.803  0.00  0.00    +0.008 C 
ATOM     13  C   UNL     1       3.017   5.654  -2.836  0.00  0.00    +0.037 C 
ATOM     14  C   UNL     1       3.163   6.630  -1.727  0.00  0.00    +0.119 C 
ATOM     15  C   UNL     1       3.733   5.783  -0.584  0.00  0.00    +0.032 C 
ATOM     16  C   UNL     1       1.695   7.152  -1.235  0.00  0.00    +0.149 C 
ATOM     17  C   UNL     1       1.296   5.576  -0.652  0.00  0.00    +0.088 C 
ATOM     18  C   UNL     1      -0.017   6.024   0.188  0.00  0.00    +0.010 C 
ATOM     19  C   UNL     1       0.576   5.063  -1.929  0.00  0.00    +0.163 C 
ATOM     20  O   UNL     1       0.637   3.826  -1.897  0.00  0.00    -0.295 OA
ATOM     21  C   UNL     1      -0.772   5.357  -2.690  0.00  0.00    +0.156 C 
ATOM     22  C   UNL     1      -1.820   5.384  -1.415  0.00  0.00    +0.020 C 
ATOM     23  C   UNL     1      -0.554   6.950  -2.814  0.00  0.00    +0.324 C 
ATOM     24  O   UNL     1      -1.097   7.698  -1.975  0.00  0.00    -0.250 OA
ATOM     25  C   UNL     1       1.294   8.253  -5.972  0.00  0.00    +0.049 C 
ATOM     26  O   UNL     1      -0.301   6.796  -7.162  0.00  0.00    -0.436 OA
ATOM     27  O   UNL     1       0.270   7.337  -3.879  0.00  0.00    -0.448 OA
ENDROOT
BRANCH  14  28
ATOM     28  O   UNL     1       3.956   7.726  -1.973  0.00  0.00    -0.353 OA
ATOM     29  C   UNL     1       5.056   7.667  -1.107  0.00  0.00    +0.174 C 
ENDBRANCH  14  28
BRANCH   1  31
ATOM     30  C   UNL     1      -2.148   6.801  -4.667  0.00  0.00    +0.004 C 
ATOM     31  C   UNL     1      -1.424   7.095  -5.305  0.00  0.00    +0.047 C 
ENDBRANCH   1  31
BRANCH  16  32
ATOM     32  O   UNL     1       2.236   7.549   0.095  0.00  0.00    -0.328 OA
BRANCH  32  33
ATOM     33  C   UNL     1       1.567   8.853   0.496  0.00  0.00    +0.268 C 
ATOM     34  C   UNL     1       2.383   8.905   2.012  0.00  0.00    +0.222 C 
ATOM     35  O   UNL     1       1.145   8.400   2.708  0.00  0.00    -0.216 OA
ATOM     36  C   UNL     1       2.036  10.536   2.337  0.00  0.00    +0.096 C 
ATOM     37  C   UNL     1       3.269  10.971   1.372  0.00  0.00    +0.048 C 
ATOM     38  C   UNL     1       2.460  11.024  -0.052  0.00  0.00    +0.119 C 
ATOM     39  C   UNL     1       3.925  11.305  -0.791  0.00  0.00    +0.032 C 
ATOM     40  O   UNL     1       2.663   9.559  -0.281  0.00  0.00    -0.331 OA
BRANCH  36  41
ATOM     41  N   UNL     1       2.952  10.588   3.594  0.00  0.00    -0.269 NA
ATOM     42  C   UNL     1       3.962   9.532   3.445  0.00  0.00    +0.090 C 
ATOM     43  C   UNL     1       3.603  11.837   3.748  0.00  0.00    +0.090 C 
ENDBRANCH  36  41
ENDBRANCH  32  33
ENDBRANCH  16  32
BRANCH   4  44
ATOM     44  C   UNL     1       1.226   4.251  -8.813  0.00  0.00    +0.097 C 
BRANCH  44  45
ATOM     45  C   UNL     1       0.954   4.878 -10.191  0.00  0.00    +0.024 C 
BRANCH  45  46
ATOM     46  C   UNL     1       2.217   5.217 -10.822  0.00  0.00    +0.026 C 
BRANCH  46  47
ATOM     47  C   UNL     1       3.448   5.417 -10.043  0.00  0.00    +0.108 C 
BRANCH  47  48
ATOM     48  N   UNL     1       4.433   5.832 -11.047  0.00  0.00    -0.308 N 
ATOM     49  C   UNL     1       4.082   5.876 -12.360  0.00  0.00    +0.096 A 
ATOM     50  C   UNL     1       5.236   5.841 -13.139  0.00  0.00    +0.102 A 
ATOM     51  N   UNL     1       6.205   5.548 -12.236  0.00  0.00    -0.224 NA
ATOM     52  C   UNL     1       5.627   5.172 -11.064  0.00  0.00    +0.179 A 
BRANCH  50  53
ATOM     53  C   UNL     1       5.336   6.545 -14.410  0.00  0.00    +0.038 A 
ATOM     54  C   UNL     1       4.256   6.711 -15.271  0.00  0.00    +0.100 A 
ATOM     55  N   UNL     1       4.589   6.818 -16.584  0.00  0.00    -0.242 NA
ATOM     56  C   UNL     1       5.892   6.898 -16.961  0.00  0.00    +0.099 A 
ATOM     57  C   UNL     1       6.897   7.163 -16.033  0.00  0.00    +0.021 A 
ATOM     58  C   UNL     1       6.417   7.367 -14.737  0.00  0.00    +0.005 A 
ENDBRANCH  50  53
ENDBRANCH  47  48
ENDBRANCH  46  47
ENDBRANCH  45  46
ENDBRANCH  44  45
ENDBRANCH   4  44
TORSDOF 11
ENDMDL
MODEL 5
REMARK VINA RESULT:      -4.7      2.057      2.659
REMARK  Name = 
REMARK  11 active torsions:
REMARK  status: ('A' for Active; 'I' for Inactive)
REMARK    1  A    between atoms: C_2  and  C_3
REMARK    2  A    between atoms: C_13  and  O_14
REMARK    3  A    between atoms: O_14  and  C_15
REMARK    4  A    between atoms: C_20  and  N_21
REMARK    5  A    between atoms: C_26  and  O_28
REMARK    6  A    between atoms: N_38  and  C_39
REMARK    7  A    between atoms: C_39  and  C_40
REMARK    8  A    between atoms: C_40  and  C_41
REMARK    9  A    between atoms: C_41  and  C_42
REMARK   10  A    between atoms: C_42  and  N_43
REMARK   11  A    between atoms: C_46  and  C_47
REMARK                            x       y       z     vdW  Elec       q    Type
REMARK                         _______ _______ _______ _____ _____    ______ ____
ROOT
ATOM      1  C   UNL     1       0.612   6.123  -6.072  0.00  0.00    +0.207 C 
ATOM      2  C   UNL     1       0.854   6.945  -7.451  0.00  0.00    +0.191 C 
ATOM      3  C   UNL     1       1.817   6.053  -8.409  0.00  0.00    +0.125 C 
ATOM      4  N   UNL     1       0.662   5.199  -9.032  0.00  0.00    -0.244 N 
ATOM      5  C   UNL     1      -0.365   5.292  -8.062  0.00  0.00    +0.405 C 
ATOM      6  O   UNL     1      -1.138   4.319  -7.785  0.00  0.00    -0.226 OA
ATOM      7  C   UNL     1       2.315   4.889  -7.265  0.00  0.00    +0.079 C 
ATOM      8  C   UNL     1       2.449   3.673  -8.342  0.00  0.00    +0.010 C 
ATOM      9  C   UNL     1       3.876   5.232  -7.343  0.00  0.00    +0.152 C 
ATOM     10  O   UNL     1       4.576   4.277  -7.197  0.00  0.00    -0.296 OA
ATOM     11  C   UNL     1       4.249   6.544  -6.493  0.00  0.00    +0.060 C 
ATOM     12  C   UNL     1       5.863   6.306  -6.619  0.00  0.00    +0.008 C 
ATOM     13  C   UNL     1       4.216   5.766  -5.059  0.00  0.00    +0.037 C 
ATOM     14  C   UNL     1       4.616   6.705  -3.981  0.00  0.00    +0.119 C 
ATOM     15  C   UNL     1       5.604   5.884  -3.146  0.00  0.00    +0.032 C 
ATOM     16  C   UNL     1       3.341   7.031  -3.011  0.00  0.00    +0.149 C 
ATOM     17  C   UNL     1       3.308   5.395  -2.456  0.00  0.00    +0.088 C 
ATOM     18  C   UNL     1       2.298   5.651  -1.212  0.00  0.00    +0.010 C 
ATOM     19  C   UNL     1       2.268   4.856  -3.476  0.00  0.00    +0.163 C 
ATOM     20  O   UNL     1       2.456   3.635  -3.560  0.00  0.00    -0.295 OA
ATOM     21  C   UNL     1       0.725   5.022  -3.746  0.00  0.00    +0.156 C 
ATOM     22  C   UNL     1       0.147   4.873  -2.208  0.00  0.00    +0.020 C 
ATOM     23  C   UNL     1       0.735   6.633  -3.809  0.00  0.00    +0.324 C 
ATOM     24  O   UNL     1       0.421   7.277  -2.787  0.00  0.00    -0.250 OA
ATOM     25  C   UNL     1       1.329   8.275  -7.279  0.00  0.00    +0.049 C 
ATOM     26  O   UNL     1      -0.414   6.692  -8.014  0.00  0.00    -0.436 OA
ATOM     27  O   UNL     1       1.129   7.158  -5.047  0.00  0.00    -0.448 OA
ENDROOT
BRANCH  14  28
ATOM     28  O   UNL     1       5.177   7.895  -4.379  0.00  0.00    -0.353 OA
ATOM     29  C   UNL     1       6.526   7.887  -4.000  0.00  0.00    +0.174 C 
ENDBRANCH  14  28
BRANCH   1  31
ATOM     30  C   UNL     1      -1.494   6.133  -5.381  0.00  0.00    +0.004 C 
ATOM     31  C   UNL     1      -0.902   6.780  -5.879  0.00  0.00    +0.047 C 
ENDBRANCH   1  31
BRANCH  16  32
ATOM     32  O   UNL     1       4.241   7.432  -1.894  0.00  0.00    -0.328 OA
BRANCH  32  33
ATOM     33  C   UNL     1       3.368   7.897  -0.741  0.00  0.00    +0.268 C 
ATOM     34  C   UNL     1       4.684   7.899   0.369  0.00  0.00    +0.222 C 
ATOM     35  O   UNL     1       4.222   6.581   0.938  0.00  0.00    -0.216 OA
ATOM     36  C   UNL     1       3.901   8.818   1.563  0.00  0.00    +0.096 C 
ATOM     37  C   UNL     1       4.265  10.168   0.736  0.00  0.00    +0.048 C 
ATOM     38  C   UNL     1       2.953  10.218  -0.244  0.00  0.00    +0.119 C 
ATOM     39  C   UNL     1       3.666  11.511  -1.013  0.00  0.00    +0.032 C 
ATOM     40  O   UNL     1       3.599   9.310  -1.242  0.00  0.00    -0.331 OA
BRANCH  36  41
ATOM     41  N   UNL     1       5.179   8.963   2.438  0.00  0.00    -0.269 NA
ATOM     42  C   UNL     1       5.484  10.396   2.534  0.00  0.00    +0.090 C 
ATOM     43  C   UNL     1       5.016   8.433   3.742  0.00  0.00    +0.090 C 
ENDBRANCH  36  41
ENDBRANCH  32  33
ENDBRANCH  16  32
BRANCH   4  44
ATOM     44  C   UNL     1       0.739   4.414 -10.254  0.00  0.00    +0.097 C 
BRANCH  44  45
ATOM     45  C   UNL     1      -0.060   5.040 -11.410  0.00  0.00    +0.024 C 
BRANCH  45  46
ATOM     46  C   UNL     1       0.451   4.537 -12.673  0.00  0.00    +0.026 C 
BRANCH  46  47
ATOM     47  C   UNL     1       1.260   5.372 -13.573  0.00  0.00    +0.108 C 
BRANCH  47  48
ATOM     48  N   UNL     1       2.629   5.195 -13.076  0.00  0.00    -0.308 N 
ATOM     49  C   UNL     1       3.276   6.238 -12.490  0.00  0.00    +0.096 A 
ATOM     50  C   UNL     1       4.646   5.995 -12.520  0.00  0.00    +0.102 A 
ATOM     51  N   UNL     1       4.747   4.912 -13.332  0.00  0.00    -0.224 NA
ATOM     52  C   UNL     1       3.554   4.701 -13.948  0.00  0.00    +0.179 A 
BRANCH  50  53
ATOM     53  C   UNL     1       5.537   6.443 -11.459  0.00  0.00    +0.038 A 
ATOM     54  C   UNL     1       5.991   7.754 -11.353  0.00  0.00    +0.100 A 
ATOM     55  N   UNL     1       7.202   7.889 -10.752  0.00  0.00    -0.242 NA
ATOM     56  C   UNL     1       7.814   6.817 -10.186  0.00  0.00    +0.099 A 
ATOM     57  C   UNL     1       7.119   5.633  -9.943  0.00  0.00    +0.021 A 
ATOM     58  C   UNL     1       5.770   5.698 -10.301  0.00  0.00    +0.005 A 
ENDBRANCH  50  53
ENDBRANCH  47  48
ENDBRANCH  46  47
ENDBRANCH  45  46
ENDBRANCH  44  45
ENDBRANCH   4  44
TORSDOF 11
ENDMDL
