MODEL 1
REMARK VINA RESULT:       0.8      0.000      0.000
REMARK  Name = 
REMARK  6 active torsions:
REMARK  status: ('A' for Active; 'I' for Inactive)
REMARK    1  A    between atoms: C_2  and  C_3
REMARK    2  A    between atoms: C_11  and  O_12
REMARK    3  A    between atoms: C_31  and  C_32
REMARK    4  A    between atoms: C_34  and  C_35
REMARK    5  A    between atoms: C_40  and  O_41
REMARK    6  A    between atoms: C_54  and  O_55
REMARK                            x       y       z     vdW  Elec       q    Type
REMARK                         _______ _______ _______ _____ _____    ______ ____
ROOT
ATOM      1  C   UNL     1       4.474   8.344   1.366  0.00  0.00    +0.079 C 
ATOM      2  C   UNL     1       4.259   8.357  -0.230  0.00  0.00    +0.157 C 
ATOM      3  O   UNL     1       4.178   9.570  -0.424  0.00  0.00    -0.296 OA
ATOM      4  C   UNL     1       4.610   7.275  -1.057  0.00  0.00    +0.098 C 
ATOM      5  C   UNL     1       5.126   7.734  -2.534  0.00  0.00    +0.163 C 
ATOM      6  O   UNL     1       4.201   8.922  -2.623  0.00  0.00    -0.223 OA
ATOM      7  C   UNL     1       4.084   6.694  -3.413  0.00  0.00    +0.075 C 
ATOM      8  C   UNL     1       2.771   7.155  -2.613  0.00  0.00    +0.007 C 
ATOM      9  C   UNL     1       3.879   7.777  -4.701  0.00  0.00    +0.189 C 
ATOM     10  O   UNL     1       2.535   7.334  -5.241  0.00  0.00    -0.447 OA
ATOM     11  C   UNL     1       2.438   6.353  -6.198  0.00  0.00    +0.335 C 
ATOM     12  O   UNL     1       1.874   6.610  -7.313  0.00  0.00    -0.248 OA
ATOM     13  C   UNL     1       1.550   5.649  -5.049  0.00  0.00    +0.175 C 
ATOM     14  N   UNL     1       0.653   4.929  -6.108  0.00  0.00    -0.265 N 
ATOM     15  C   UNL     1       0.577   3.576  -6.319  0.00  0.00    +0.094 C 
ATOM     16  C   UNL     1       1.807   2.758  -6.434  0.00  0.00    +0.022 C 
ATOM     17  C   UNL     1       2.893   3.814  -6.219  0.00  0.00    +0.004 C 
ATOM     18  C   UNL     1      -0.426   5.775  -6.523  0.00  0.00    +0.289 C 
ATOM     19  O   UNL     1      -0.788   5.659  -7.732  0.00  0.00    -0.267 OA
ATOM     20  C   UNL     1      -0.631   6.929  -5.639  0.00  0.00    +0.279 C 
ATOM     21  O   UNL     1      -0.974   7.999  -6.252  0.00  0.00    -0.281 OA
ATOM     22  C   UNL     1      -0.924   6.680  -4.303  0.00  0.00    +0.279 C 
ATOM     23  C   UNL     1      -2.389   5.957  -4.583  0.00  0.00    +0.065 C 
ATOM     24  C   UNL     1      -3.175   6.285  -3.202  0.00  0.00    +0.038 C 
ATOM     25  C   UNL     1      -2.303   5.256  -2.280  0.00  0.00    +0.145 C 
ATOM     26  C   UNL     1      -1.222   6.564  -2.105  0.00  0.00    +0.172 C 
ATOM     27  C   UNL     1      -0.351   5.788  -0.849  0.00  0.00    +0.145 C 
ATOM     28  C   UNL     1       0.970   6.631  -1.269  0.00  0.00    +0.032 C 
ATOM     29  C   UNL     1       0.959   7.934  -0.297  0.00  0.00    +0.007 C 
ATOM     30  C   UNL     1      -0.651   8.158  -0.180  0.00  0.00    +0.000 C 
ATOM     31  C   UNL     1       0.996   7.069   1.089  0.00  0.00    +0.022 C 
ATOM     32  C   UNL     1       1.986   7.973   1.800  0.00  0.00    -0.048 C 
ATOM     33  C   UNL     1       1.334   8.604   3.007  0.00  0.00    +0.026 C 
ATOM     34  C   UNL     1      -3.088   7.257  -5.287  0.00  0.00    +0.006 C 
ATOM     35  O   UNL     1      -1.296   7.971  -3.824  0.00  0.00    -0.187 OA
ATOM     36  O   UNL     1      -0.423   6.091  -3.277  0.00  0.00    -0.324 OA
ATOM     37  C   UNL     1       2.528   4.344  -4.875  0.00  0.00    +0.031 C 
ATOM     38  C   UNL     1       3.167   7.478   1.713  0.00  0.00    -0.028 C 
ENDROOT
BRANCH   9  39
ATOM     39  C   UNL     1       4.769   7.093  -5.841  0.00  0.00    -0.009 C 
ATOM     40  C   UNL     1       4.725   6.716  -6.999  0.00  0.00    -0.031 C 
ATOM     41  C   UNL     1       5.564   6.269  -4.836  0.00  0.00    +0.030 C 
BRANCH  40  42
ATOM     42  C   UNL     1       5.932   5.638  -7.272  0.00  0.00    +0.024 C 
ATOM     43  C   UNL     1       4.952   4.738  -8.168  0.00  0.00    +0.035 C 
ATOM     44  C   UNL     1       4.598   5.336  -9.629  0.00  0.00    +0.131 C 
ATOM     45  C   UNL     1       6.091   4.764 -10.167  0.00  0.00    +0.107 C 
ATOM     46 CL   UNL     1       5.946   5.435 -11.900  0.00  0.00    -0.112 Cl
ATOM     47  C   UNL     1       7.078   5.825  -9.591  0.00  0.00    +0.019 C 
ATOM     48  C   UNL     1       6.773   6.469  -8.382  0.00  0.00    +0.006 C 
BRANCH  44  49
ATOM     49  O   UNL     1       4.959   6.796  -9.475  0.00  0.00    -0.352 OA
ATOM     50  C   UNL     1       3.860   7.399 -10.182  0.00  0.00    +0.174 C 
ENDBRANCH  44  49
ENDBRANCH  40  42
ENDBRANCH   9  39
BRANCH   1  52
ATOM     51  C   UNL     1       5.918   6.967   2.657  0.00  0.00    +0.001 C 
ATOM     52  C   UNL     1       5.425   7.006   1.427  0.00  0.00    +0.012 C 
ENDBRANCH   1  52
BRANCH  27  53
ATOM     53  O   UNL     1       0.064   4.569  -1.641  0.00  0.00    -0.351 OA
ATOM     54  C   UNL     1       1.354   4.360  -1.128  0.00  0.00    +0.174 C 
ENDBRANCH  27  53
BRANCH  25  55
ATOM     55  O   UNL     1      -3.060   5.648  -1.037  0.00  0.00    -0.351 OA
ATOM     56  C   UNL     1      -3.852   6.689  -1.480  0.00  0.00    +0.174 C 
ENDBRANCH  25  55
TORSDOF 6
ENDMDL
MODEL 2
REMARK VINA RESULT:       2.5      2.573      4.104
REMARK  Name = 
REMARK  6 active torsions:
REMARK  status: ('A' for Active; 'I' for Inactive)
REMARK    1  A    between atoms: C_2  and  C_3
REMARK    2  A    between atoms: C_11  and  O_12
REMARK    3  A    between atoms: C_31  and  C_32
REMARK    4  A    between atoms: C_34  and  C_35
REMARK    5  A    between atoms: C_40  and  O_41
REMARK    6  A    between atoms: C_54  and  O_55
REMARK                            x       y       z     vdW  Elec       q    Type
REMARK                         _______ _______ _______ _____ _____    ______ ____
ROOT
ATOM      1  C   UNL     1       5.054  12.535   1.353  0.00  0.00    +0.079 C 
ATOM      2  C   UNL     1       4.437  11.615   0.183  0.00  0.00    +0.157 C 
ATOM      3  O   UNL     1       3.922  12.484  -0.522  0.00  0.00    -0.296 OA
ATOM      4  C   UNL     1       4.888  10.309  -0.081  0.00  0.00    +0.098 C 
ATOM      5  C   UNL     1       4.824   9.912  -1.660  0.00  0.00    +0.163 C 
ATOM      6  O   UNL     1       3.577  10.714  -1.938  0.00  0.00    -0.223 OA
ATOM      7  C   UNL     1       3.980   8.437  -1.435  0.00  0.00    +0.075 C 
ATOM      8  C   UNL     1       2.846   9.101  -0.513  0.00  0.00    +0.007 C 
ATOM      9  C   UNL     1       3.109   8.565  -2.883  0.00  0.00    +0.189 C 
ATOM     10  O   UNL     1       1.886   7.730  -2.561  0.00  0.00    -0.447 OA
ATOM     11  C   UNL     1       1.863   6.377  -2.798  0.00  0.00    +0.335 C 
ATOM     12  O   UNL     1       0.976   5.885  -3.571  0.00  0.00    -0.248 OA
ATOM     13  C   UNL     1       1.581   6.343  -1.210  0.00  0.00    +0.175 C 
ATOM     14  N   UNL     1       0.720   5.045  -1.336  0.00  0.00    -0.265 N 
ATOM     15  C   UNL     1       1.031   3.813  -0.818  0.00  0.00    +0.094 C 
ATOM     16  C   UNL     1       2.383   3.235  -0.999  0.00  0.00    +0.022 C 
ATOM     17  C   UNL     1       3.088   4.353  -1.769  0.00  0.00    +0.004 C 
ATOM     18  C   UNL     1      -0.643   5.363  -1.642  0.00  0.00    +0.289 C 
ATOM     19  O   UNL     1      -1.251   4.539  -2.389  0.00  0.00    -0.267 OA
ATOM     20  C   UNL     1      -0.969   6.779  -1.426  0.00  0.00    +0.279 C 
ATOM     21  O   UNL     1      -1.785   7.260  -2.287  0.00  0.00    -0.281 OA
ATOM     22  C   UNL     1      -0.806   7.295  -0.147  0.00  0.00    +0.279 C 
ATOM     23  C   UNL     1      -1.980   6.364   0.562  0.00  0.00    +0.065 C 
ATOM     24  C   UNL     1      -2.441   7.314   1.794  0.00  0.00    +0.038 C 
ATOM     25  C   UNL     1      -1.075   7.107   2.668  0.00  0.00    +0.145 C 
ATOM     26  C   UNL     1      -0.465   8.407   1.746  0.00  0.00    +0.172 C 
ATOM     27  C   UNL     1       0.905   8.595   2.759  0.00  0.00    +0.145 C 
ATOM     28  C   UNL     1       1.726   9.209   1.502  0.00  0.00    +0.032 C 
ATOM     29  C   UNL     1       1.552  10.819   1.638  0.00  0.00    +0.007 C 
ATOM     30  C   UNL     1       0.045  10.866   2.257  0.00  0.00    +0.000 C 
ATOM     31  C   UNL     1       2.225  10.904   3.124  0.00  0.00    +0.022 C 
ATOM     32  C   UNL     1       3.022  12.167   2.853  0.00  0.00    -0.048 C 
ATOM     33  C   UNL     1       2.541  13.282   3.750  0.00  0.00    +0.026 C 
ATOM     34  C   UNL     1      -3.219   6.938  -0.339  0.00  0.00    +0.006 C 
ATOM     35  O   UNL     1      -1.435   8.571  -0.247  0.00  0.00    -0.187 OA
ATOM     36  O   UNL     1       0.107   7.458   0.743  0.00  0.00    -0.324 OA
ATOM     37  C   UNL     1       2.936   5.500  -0.830  0.00  0.00    +0.031 C 
ATOM     38  C   UNL     1       4.233  11.862   2.557  0.00  0.00    -0.028 C 
ENDROOT
BRANCH   9  39
ATOM     39  C   UNL     1       3.840   7.475  -3.796  0.00  0.00    -0.009 C 
ATOM     40  C   UNL     1       3.892   6.275  -4.008  0.00  0.00    -0.031 C 
ATOM     41  C   UNL     1       5.130   8.283  -3.866  0.00  0.00    +0.030 C 
BRANCH  40  42
ATOM     42  C   UNL     1       5.298   5.912  -4.771  0.00  0.00    +0.024 C 
ATOM     43  C   UNL     1       4.737   4.459  -5.154  0.00  0.00    +0.035 C 
ATOM     44  C   UNL     1       3.618   4.430  -6.322  0.00  0.00    +0.131 C 
ATOM     45  C   UNL     1       4.865   4.566  -7.449  0.00  0.00    +0.107 C 
ATOM     46 CL   UNL     1       3.766   4.636  -8.953  0.00  0.00    -0.112 Cl
ATOM     47  C   UNL     1       5.228   6.079  -7.358  0.00  0.00    +0.019 C 
ATOM     48  C   UNL     1       5.075   6.756  -6.138  0.00  0.00    +0.006 C 
BRANCH  44  49
ATOM     49  O   UNL     1       3.138   5.863  -6.343  0.00  0.00    -0.352 OA
ATOM     50  C   UNL     1       1.750   5.655  -6.661  0.00  0.00    +0.174 C 
ENDBRANCH  44  49
ENDBRANCH  40  42
ENDBRANCH   9  39
BRANCH   1  52
ATOM     51  C   UNL     1       6.804  11.979   2.862  0.00  0.00    +0.001 C 
ATOM     52  C   UNL     1       6.365  11.598   1.670  0.00  0.00    +0.012 C 
ENDBRANCH   1  52
BRANCH  27  53
ATOM     53  O   UNL     1       1.467   7.205   2.563  0.00  0.00    -0.351 OA
ATOM     54  C   UNL     1       2.841   7.467   2.683  0.00  0.00    +0.174 C 
ENDBRANCH  27  53
BRANCH  25  55
ATOM     55  O   UNL     1      -1.565   8.035   3.749  0.00  0.00    -0.351 OA
ATOM     56  C   UNL     1      -2.930   8.056   3.536  0.00  0.00    +0.174 C 
ENDBRANCH  25  55
TORSDOF 6
ENDMDL
