MODEL 1
REMARK VINA RESULT:      -6.2      0.000      0.000
REMARK  Name = 
REMARK  5 active torsions:
REMARK  status: ('A' for Active; 'I' for Inactive)
REMARK    1  A    between atoms: C_2  and  C_3
REMARK    2  A    between atoms: C_3  and  C_4
REMARK    3  A    between atoms: C_4  and  C_5
REMARK    4  A    between atoms: C_5  and  C_7
REMARK    5  A    between atoms: C_7  and  C_8
REMARK                            x       y       z     vdW  Elec       q    Type
REMARK                         _______ _______ _______ _____ _____    ______ ____
ROOT
ATOM      1  C   UNL     1       2.239   6.076  -8.195  0.00  0.00    +0.145 C 
ATOM      2  C   UNL     1       2.387   7.270  -7.358  0.00  0.00    +0.257 C 
ATOM      3  O   UNL     1       2.166   8.395  -7.898  0.00  0.00    -0.272 OA
ATOM      4  N   UNL     1       3.065   7.321  -6.112  0.00  0.00    -0.125 NA
ATOM      5  C   UNL     1       3.405   6.097  -5.500  0.00  0.00    +0.352 C 
ATOM      6  O   UNL     1       4.120   6.087  -4.456  0.00  0.00    -0.248 OA
ATOM      7  N   UNL     1       3.316   4.925  -6.266  0.00  0.00    -0.125 NA
ATOM      8  C   UNL     1       2.967   4.887  -7.653  0.00  0.00    +0.257 C 
ATOM      9  O   UNL     1       2.573   3.739  -8.029  0.00  0.00    -0.272 OA
ENDROOT
BRANCH   1  10
ATOM     10  C   UNL     1       3.027   6.507  -9.550  0.00  0.00    +0.017 C 
ATOM     11  C   UNL     1       2.181   5.524 -10.538  0.00  0.00    +0.001 C 
BRANCH  10  12
ATOM     12  C   UNL     1       4.203   5.399  -9.328  0.00  0.00    +0.001 C 
BRANCH  12  13
ATOM     13  C   UNL     1       5.358   6.127 -10.010  0.00  0.00    +0.000 C 
ATOM     14  C   UNL     1       6.683   5.734  -9.409  0.00  0.00    +0.000 C 
ENDBRANCH  12  13
ENDBRANCH  10  12
ENDBRANCH   1  10
BRANCH   1  15
ATOM     15  C   UNL     1       0.854   5.672  -8.502  0.00  0.00    +0.044 C 
BRANCH  15  17
ATOM     16  C   UNL     1      -0.987   5.289  -7.067  0.00  0.00    -0.005 C 
ATOM     17  C   UNL     1      -0.048   5.723  -7.334  0.00  0.00    -0.025 C 
ENDBRANCH  15  17
ENDBRANCH   1  15
TORSDOF 5
ENDMDL
MODEL 2
REMARK VINA RESULT:      -6.2      1.846      4.694
REMARK  Name = 
REMARK  5 active torsions:
REMARK  status: ('A' for Active; 'I' for Inactive)
REMARK    1  A    between atoms: C_2  and  C_3
REMARK    2  A    between atoms: C_3  and  C_4
REMARK    3  A    between atoms: C_4  and  C_5
REMARK    4  A    between atoms: C_5  and  C_7
REMARK    5  A    between atoms: C_7  and  C_8
REMARK                            x       y       z     vdW  Elec       q    Type
REMARK                         _______ _______ _______ _____ _____    ______ ____
ROOT
ATOM      1  C   UNL     1       2.167   6.513  -6.244  0.00  0.00    +0.145 C 
ATOM      2  C   UNL     1       2.554   7.211  -7.473  0.00  0.00    +0.257 C 
ATOM      3  O   UNL     1       2.105   8.383  -7.648  0.00  0.00    -0.272 OA
ATOM      4  N   UNL     1       3.103   6.595  -8.629  0.00  0.00    -0.125 NA
ATOM      5  C   UNL     1       3.549   5.262  -8.513  0.00  0.00    +0.352 C 
ATOM      6  O   UNL     1       3.927   4.629  -9.541  0.00  0.00    -0.248 OA
ATOM      7  N   UNL     1       3.179   4.535  -7.372  0.00  0.00    -0.125 NA
ATOM      8  C   UNL     1       2.318   5.028  -6.340  0.00  0.00    +0.257 C 
ATOM      9  O   UNL     1       2.434   4.380  -5.254  0.00  0.00    -0.272 OA
ENDROOT
BRANCH   1  10
ATOM     10  C   UNL     1       0.568   6.800  -6.175  0.00  0.00    +0.017 C 
ATOM     11  C   UNL     1       0.475   6.757  -4.548  0.00  0.00    +0.001 C 
BRANCH  10  12
ATOM     12  C   UNL     1       0.186   5.220  -6.316  0.00  0.00    +0.001 C 
BRANCH  12  13
ATOM     13  C   UNL     1      -1.058   5.346  -7.190  0.00  0.00    +0.000 C 
ATOM     14  C   UNL     1      -2.303   5.485  -6.352  0.00  0.00    +0.000 C 
ENDBRANCH  12  13
ENDBRANCH  10  12
ENDBRANCH   1  10
BRANCH   1  15
ATOM     15  C   UNL     1       2.833   6.967  -5.008  0.00  0.00    +0.044 C 
BRANCH  15  17
ATOM     16  C   UNL     1       5.129   7.263  -4.522  0.00  0.00    -0.005 C 
ATOM     17  C   UNL     1       4.282   7.199  -5.170  0.00  0.00    -0.025 C 
ENDBRANCH  15  17
ENDBRANCH   1  15
TORSDOF 5
ENDMDL
MODEL 3
REMARK VINA RESULT:      -6.1      1.042      4.290
REMARK  Name = 
REMARK  5 active torsions:
REMARK  status: ('A' for Active; 'I' for Inactive)
REMARK    1  A    between atoms: C_2  and  C_3
REMARK    2  A    between atoms: C_3  and  C_4
REMARK    3  A    between atoms: C_4  and  C_5
REMARK    4  A    between atoms: C_5  and  C_7
REMARK    5  A    between atoms: C_7  and  C_8
REMARK                            x       y       z     vdW  Elec       q    Type
REMARK                         _______ _______ _______ _____ _____    ______ ____
ROOT
ATOM      1  C   UNL     1       2.608   6.086  -8.469  0.00  0.00    +0.145 C 
ATOM      2  C   UNL     1       3.529   5.055  -7.981  0.00  0.00    +0.257 C 
ATOM      3  O   UNL     1       3.501   3.926  -8.556  0.00  0.00    -0.272 OA
ATOM      4  N   UNL     1       4.206   5.083  -6.734  0.00  0.00    -0.125 NA
ATOM      5  C   UNL     1       4.204   6.294  -6.013  0.00  0.00    +0.352 C 
ATOM      6  O   UNL     1       4.682   6.336  -4.843  0.00  0.00    -0.248 OA
ATOM      7  N   UNL     1       3.318   7.305  -6.415  0.00  0.00    -0.125 NA
ATOM      8  C   UNL     1       2.358   7.170  -7.469  0.00  0.00    +0.257 C 
ATOM      9  O   UNL     1       1.953   8.291  -7.909  0.00  0.00    -0.272 OA
ENDROOT
BRANCH   1  10
ATOM     10  C   UNL     1       1.211   5.265  -8.601  0.00  0.00    +0.017 C 
ATOM     11  C   UNL     1       0.519   6.308  -9.645  0.00  0.00    +0.001 C 
BRANCH  10  12
ATOM     12  C   UNL     1       0.549   6.002  -7.305  0.00  0.00    +0.001 C 
BRANCH  12  13
ATOM     13  C   UNL     1      -0.825   5.341  -7.323  0.00  0.00    +0.000 C 
ATOM     14  C   UNL     1      -1.689   5.845  -6.195  0.00  0.00    +0.000 C 
ENDBRANCH  12  13
ENDBRANCH  10  12
ENDBRANCH   1  10
BRANCH   1  15
ATOM     15  C   UNL     1       2.967   6.716  -9.754  0.00  0.00    +0.044 C 
BRANCH  15  17
ATOM     16  C   UNL     1       5.065   7.275 -10.694  0.00  0.00    -0.005 C 
ATOM     17  C   UNL     1       4.424   6.804  -9.981  0.00  0.00    -0.025 C 
ENDBRANCH  15  17
ENDBRANCH   1  15
TORSDOF 5
ENDMDL
MODEL 4
REMARK VINA RESULT:      -6.1      1.984      4.897
REMARK  Name = 
REMARK  5 active torsions:
REMARK  status: ('A' for Active; 'I' for Inactive)
REMARK    1  A    between atoms: C_2  and  C_3
REMARK    2  A    between atoms: C_3  and  C_4
REMARK    3  A    between atoms: C_4  and  C_5
REMARK    4  A    between atoms: C_5  and  C_7
REMARK    5  A    between atoms: C_7  and  C_8
REMARK                            x       y       z     vdW  Elec       q    Type
REMARK                         _______ _______ _______ _____ _____    ______ ____
ROOT
ATOM      1  C   UNL     1       2.272   6.037  -7.336  0.00  0.00    +0.145 C 
ATOM      2  C   UNL     1       2.076   7.151  -8.268  0.00  0.00    +0.257 C 
ATOM      3  O   UNL     1       2.097   8.325  -7.791  0.00  0.00    -0.272 OA
ATOM      4  N   UNL     1       1.540   7.040  -9.578  0.00  0.00    -0.125 NA
ATOM      5  C   UNL     1       1.421   5.749 -10.131  0.00  0.00    +0.352 C 
ATOM      6  O   UNL     1       0.834   5.586 -11.240  0.00  0.00    -0.248 OA
ATOM      7  N   UNL     1       1.565   4.645  -9.278  0.00  0.00    -0.125 NA
ATOM      8  C   UNL     1       1.759   4.734  -7.863  0.00  0.00    +0.257 C 
ATOM      9  O   UNL     1       2.245   3.670  -7.366  0.00  0.00    -0.272 OA
ENDROOT
BRANCH   1  10
ATOM     10  C   UNL     1       1.291   6.442  -6.104  0.00  0.00    +0.017 C 
ATOM     11  C   UNL     1       1.839   5.291  -5.088  0.00  0.00    +0.001 C 
BRANCH  10  12
ATOM     12  C   UNL     1       0.075   5.498  -6.642  0.00  0.00    +0.001 C 
BRANCH  12  13
ATOM     13  C   UNL     1      -1.077   6.106  -5.848  0.00  0.00    +0.000 C 
ATOM     14  C   UNL     1      -2.405   5.562  -6.308  0.00  0.00    +0.000 C 
ENDBRANCH  12  13
ENDBRANCH  10  12
ENDBRANCH   1  10
BRANCH   1  15
ATOM     15  C   UNL     1       3.653   5.832  -6.858  0.00  0.00    +0.044 C 
BRANCH  15  17
ATOM     16  C   UNL     1       5.315   5.157  -8.401  0.00  0.00    -0.005 C 
ATOM     17  C   UNL     1       4.661   5.863  -7.937  0.00  0.00    -0.025 C 
ENDBRANCH  15  17
ENDBRANCH   1  15
TORSDOF 5
ENDMDL
MODEL 5
REMARK VINA RESULT:      -6.1      1.924      4.096
REMARK  Name = 
REMARK  5 active torsions:
REMARK  status: ('A' for Active; 'I' for Inactive)
REMARK    1  A    between atoms: C_2  and  C_3
REMARK    2  A    between atoms: C_3  and  C_4
REMARK    3  A    between atoms: C_4  and  C_5
REMARK    4  A    between atoms: C_5  and  C_7
REMARK    5  A    between atoms: C_7  and  C_8
REMARK                            x       y       z     vdW  Elec       q    Type
REMARK                         _______ _______ _______ _____ _____    ______ ____
ROOT
ATOM      1  C   UNL     1       2.076   5.793  -6.652  0.00  0.00    +0.145 C 
ATOM      2  C   UNL     1       2.238   4.436  -7.182  0.00  0.00    +0.257 C 
ATOM      3  O   UNL     1       2.072   3.470  -6.379  0.00  0.00    -0.272 OA
ATOM      4  N   UNL     1       2.879   4.103  -8.404  0.00  0.00    -0.125 NA
ATOM      5  C   UNL     1       3.159   5.151  -9.305  0.00  0.00    +0.352 C 
ATOM      6  O   UNL     1       3.840   4.926 -10.346  0.00  0.00    -0.248 OA
ATOM      7  N   UNL     1       3.053   6.471  -8.841  0.00  0.00    -0.125 NA
ATOM      8  C   UNL     1       2.745   6.834  -7.492  0.00  0.00    +0.257 C 
ATOM      9  O   UNL     1       2.324   8.028  -7.389  0.00  0.00    -0.272 OA
ENDROOT
BRANCH   1  10
ATOM     10  C   UNL     1       2.919   5.723  -5.264  0.00  0.00    +0.017 C 
ATOM     11  C   UNL     1       1.853   6.597  -4.393  0.00  0.00    +0.001 C 
BRANCH  10  12
ATOM     12  C   UNL     1       3.812   7.036  -5.634  0.00  0.00    +0.001 C 
BRANCH  12  13
ATOM     13  C   UNL     1       4.196   7.477  -4.224  0.00  0.00    +0.000 C 
ATOM     14  C   UNL     1       5.677   7.324  -3.988  0.00  0.00    +0.000 C 
ENDBRANCH  12  13
ENDBRANCH  10  12
ENDBRANCH   1  10
BRANCH   1  15
ATOM     15  C   UNL     1       0.688   6.224  -6.399  0.00  0.00    +0.044 C 
BRANCH  15  17
ATOM     16  C   UNL     1      -1.328   5.191  -7.084  0.00  0.00    -0.005 C 
ATOM     17  C   UNL     1      -0.312   5.500  -7.209  0.00  0.00    -0.025 C 
ENDBRANCH  15  17
ENDBRANCH   1  15
TORSDOF 5
ENDMDL
MODEL 6
REMARK VINA RESULT:      -5.9      1.178      4.375
REMARK  Name = 
REMARK  5 active torsions:
REMARK  status: ('A' for Active; 'I' for Inactive)
REMARK    1  A    between atoms: C_2  and  C_3
REMARK    2  A    between atoms: C_3  and  C_4
REMARK    3  A    between atoms: C_4  and  C_5
REMARK    4  A    between atoms: C_5  and  C_7
REMARK    5  A    between atoms: C_7  and  C_8
REMARK                            x       y       z     vdW  Elec       q    Type
REMARK                         _______ _______ _______ _____ _____    ______ ____
ROOT
ATOM      1  C   UNL     1       2.045   5.443  -7.630  0.00  0.00    +0.145 C 
ATOM      2  C   UNL     1       2.585   4.737  -6.464  0.00  0.00    +0.257 C 
ATOM      3  O   UNL     1       2.253   3.523  -6.310  0.00  0.00    -0.272 OA
ATOM      4  N   UNL     1       3.164   5.355  -5.325  0.00  0.00    -0.125 NA
ATOM      5  C   UNL     1       3.483   6.725  -5.414  0.00  0.00    +0.352 C 
ATOM      6  O   UNL     1       3.882   7.351  -4.389  0.00  0.00    -0.248 OA
ATOM      7  N   UNL     1       2.966   7.459  -6.492  0.00  0.00    -0.125 NA
ATOM      8  C   UNL     1       2.074   6.931  -7.479  0.00  0.00    +0.257 C 
ATOM      9  O   UNL     1       2.050   7.627  -8.541  0.00  0.00    -0.272 OA
ENDROOT
BRANCH   1  10
ATOM     10  C   UNL     1       0.477   5.016  -7.595  0.00  0.00    +0.017 C 
ATOM     11  C   UNL     1       0.097   5.715  -9.018  0.00  0.00    +0.001 C 
BRANCH  10  12
ATOM     12  C   UNL     1       0.043   6.337  -6.742  0.00  0.00    +0.001 C 
BRANCH  12  13
ATOM     13  C   UNL     1      -0.929   5.687  -5.762  0.00  0.00    +0.000 C 
ATOM     14  C   UNL     1      -2.341   5.724  -6.287  0.00  0.00    +0.000 C 
ENDBRANCH  12  13
ENDBRANCH  10  12
ENDBRANCH   1  10
BRANCH   1  15
ATOM     15  C   UNL     1       2.652   5.098  -8.930  0.00  0.00    +0.044 C 
BRANCH  15  17
ATOM     16  C   UNL     1       4.992   5.348  -9.170  0.00  0.00    -0.005 C 
ATOM     17  C   UNL     1       4.105   4.844  -8.854  0.00  0.00    -0.025 C 
ENDBRANCH  15  17
ENDBRANCH   1  15
TORSDOF 5
ENDMDL
MODEL 7
REMARK VINA RESULT:      -5.9      2.000      4.076
REMARK  Name = 
REMARK  5 active torsions:
REMARK  status: ('A' for Active; 'I' for Inactive)
REMARK    1  A    between atoms: C_2  and  C_3
REMARK    2  A    between atoms: C_3  and  C_4
REMARK    3  A    between atoms: C_4  and  C_5
REMARK    4  A    between atoms: C_5  and  C_7
REMARK    5  A    between atoms: C_7  and  C_8
REMARK                            x       y       z     vdW  Elec       q    Type
REMARK                         _______ _______ _______ _____ _____    ______ ____
ROOT
ATOM      1  C   UNL     1       2.302   5.699  -7.279  0.00  0.00    +0.145 C 
ATOM      2  C   UNL     1       1.857   4.647  -6.360  0.00  0.00    +0.257 C 
ATOM      3  O   UNL     1       2.181   3.453  -6.635  0.00  0.00    -0.272 OA
ATOM      4  N   UNL     1       0.833   4.787  -5.387  0.00  0.00    -0.125 NA
ATOM      5  C   UNL     1       0.377   6.089  -5.096  0.00  0.00    +0.352 C 
ATOM      6  O   UNL     1      -0.617   6.257  -4.333  0.00  0.00    -0.248 OA
ATOM      7  N   UNL     1       0.745   7.130  -5.962  0.00  0.00    -0.125 NA
ATOM      8  C   UNL     1       1.498   6.955  -7.166  0.00  0.00    +0.257 C 
ATOM      9  O   UNL     1       2.037   8.033  -7.569  0.00  0.00    -0.272 OA
ENDROOT
BRANCH   1  10
ATOM     10  C   UNL     1       1.942   5.062  -8.731  0.00  0.00    +0.017 C 
ATOM     11  C   UNL     1       2.957   6.020  -9.574  0.00  0.00    +0.001 C 
BRANCH  10  12
ATOM     12  C   UNL     1       0.678   6.068  -8.960  0.00  0.00    +0.001 C 
BRANCH  12  13
ATOM     13  C   UNL     1       0.270   5.632 -10.364  0.00  0.00    +0.000 C 
ATOM     14  C   UNL     1      -0.352   6.771 -11.131  0.00  0.00    +0.000 C 
ENDBRANCH  12  13
ENDBRANCH  10  12
ENDBRANCH   1  10
BRANCH   1  15
ATOM     15  C   UNL     1       3.732   6.056  -7.206  0.00  0.00    +0.044 C 
BRANCH  15  17
ATOM     16  C   UNL     1       4.552   6.812  -5.119  0.00  0.00    -0.005 C 
ATOM     17  C   UNL     1       4.267   6.066  -5.829  0.00  0.00    -0.025 C 
ENDBRANCH  15  17
ENDBRANCH   1  15
TORSDOF 5
ENDMDL
MODEL 8
REMARK VINA RESULT:      -5.8      1.485      1.698
REMARK  Name = 
REMARK  5 active torsions:
REMARK  status: ('A' for Active; 'I' for Inactive)
REMARK    1  A    between atoms: C_2  and  C_3
REMARK    2  A    between atoms: C_3  and  C_4
REMARK    3  A    between atoms: C_4  and  C_5
REMARK    4  A    between atoms: C_5  and  C_7
REMARK    5  A    between atoms: C_7  and  C_8
REMARK                            x       y       z     vdW  Elec       q    Type
REMARK                         _______ _______ _______ _____ _____    ______ ____
ROOT
ATOM      1  C   UNL     1       2.769   6.013  -8.709  0.00  0.00    +0.145 C 
ATOM      2  C   UNL     1       2.089   6.917  -7.777  0.00  0.00    +0.257 C 
ATOM      3  O   UNL     1       2.093   8.154  -8.054  0.00  0.00    -0.272 OA
ATOM      4  N   UNL     1       1.719   6.597  -6.444  0.00  0.00    -0.125 NA
ATOM      5  C   UNL     1       1.770   5.242  -6.057  0.00  0.00    +0.352 C 
ATOM      6  O   UNL     1       1.573   4.921  -4.850  0.00  0.00    -0.248 OA
ATOM      7  N   UNL     1       2.438   4.337  -6.895  0.00  0.00    -0.125 NA
ATOM      8  C   UNL     1       3.137   4.701  -8.090  0.00  0.00    +0.257 C 
ATOM      9  O   UNL     1       3.319   3.716  -8.871  0.00  0.00    -0.272 OA
ENDROOT
BRANCH   1  10
ATOM     10  C   UNL     1       4.171   6.790  -8.982  0.00  0.00    +0.017 C 
ATOM     11  C   UNL     1       4.088   6.685 -10.607  0.00  0.00    +0.001 C 
BRANCH  10  12
ATOM     12  C   UNL     1       5.056   5.425  -8.862  0.00  0.00    +0.001 C 
BRANCH  12  13
ATOM     13  C   UNL     1       6.091   5.709  -9.947  0.00  0.00    +0.000 C 
ATOM     14  C   UNL     1       7.491   5.675  -9.389  0.00  0.00    +0.000 C 
ENDBRANCH  12  13
ENDBRANCH  10  12
ENDBRANCH   1  10
BRANCH   1  15
ATOM     15  C   UNL     1       2.064   5.745  -9.977  0.00  0.00    +0.044 C 
BRANCH  15  17
ATOM     16  C   UNL     1      -0.113   4.886 -10.324  0.00  0.00    -0.005 C 
ATOM     17  C   UNL     1       0.627   5.454  -9.802  0.00  0.00    -0.025 C 
ENDBRANCH  15  17
ENDBRANCH   1  15
TORSDOF 5
ENDMDL
MODEL 9
REMARK VINA RESULT:      -5.8      1.988      3.119
REMARK  Name = 
REMARK  5 active torsions:
REMARK  status: ('A' for Active; 'I' for Inactive)
REMARK    1  A    between atoms: C_2  and  C_3
REMARK    2  A    between atoms: C_3  and  C_4
REMARK    3  A    between atoms: C_4  and  C_5
REMARK    4  A    between atoms: C_5  and  C_7
REMARK    5  A    between atoms: C_7  and  C_8
REMARK                            x       y       z     vdW  Elec       q    Type
REMARK                         _______ _______ _______ _____ _____    ______ ____
ROOT
ATOM      1  C   UNL     1       2.231   5.754  -7.285  0.00  0.00    +0.145 C 
ATOM      2  C   UNL     1       1.467   6.963  -6.966  0.00  0.00    +0.257 C 
ATOM      3  O   UNL     1       1.876   8.059  -7.453  0.00  0.00    -0.272 OA
ATOM      4  N   UNL     1       0.522   7.084  -5.914  0.00  0.00    -0.125 NA
ATOM      5  C   UNL     1       0.088   5.900  -5.282  0.00  0.00    +0.352 C 
ATOM      6  O   UNL     1      -0.653   5.963  -4.259  0.00  0.00    -0.248 OA
ATOM      7  N   UNL     1       0.804   4.718  -5.524  0.00  0.00    -0.125 NA
ATOM      8  C   UNL     1       1.993   4.638  -6.317  0.00  0.00    +0.257 C 
ATOM      9  O   UNL     1       2.239   3.456  -6.714  0.00  0.00    -0.272 OA
ENDROOT
BRANCH   1  10
ATOM     10  C   UNL     1       3.763   6.241  -7.041  0.00  0.00    +0.017 C 
ATOM     11  C   UNL     1       4.437   5.114  -8.007  0.00  0.00    +0.001 C 
BRANCH  10  12
ATOM     12  C   UNL     1       3.942   5.318  -5.708  0.00  0.00    +0.001 C 
BRANCH  12  13
ATOM     13  C   UNL     1       4.811   6.256  -4.876  0.00  0.00    +0.000 C 
ATOM     14  C   UNL     1       3.996   7.379  -4.287  0.00  0.00    +0.000 C 
ENDBRANCH  12  13
ENDBRANCH  10  12
ENDBRANCH   1  10
BRANCH   1  15
ATOM     15  C   UNL     1       2.062   5.225  -8.652  0.00  0.00    +0.044 C 
BRANCH  15  17
ATOM     16  C   UNL     1       0.192   5.184 -10.100  0.00  0.00    -0.005 C 
ATOM     17  C   UNL     1       0.684   5.353  -9.167  0.00  0.00    -0.025 C 
ENDBRANCH  15  17
ENDBRANCH   1  15
TORSDOF 5
ENDMDL
