MODEL 1
REMARK VINA RESULT:      -9.1      0.000      0.000
REMARK  Name = 
REMARK  7 active torsions:
REMARK  status: ('A' for Active; 'I' for Inactive)
REMARK    1  A    between atoms: C_8  and  O_9
REMARK    2  A    between atoms: O_9  and  C_10
REMARK    3  A    between atoms: C_10  and  C_11
REMARK    4  A    between atoms: C_11  and  C_12
REMARK    5  A    between atoms: C_12  and  C_13
REMARK    6  A    between atoms: C_13  and  N_14
REMARK    7  A    between atoms: N_17  and  C_18
REMARK                            x       y       z     vdW  Elec       q    Type
REMARK                         _______ _______ _______ _____ _____    ______ ____
ROOT
ATOM      1  C   UNL     1       0.497   5.535 -10.720  0.00  0.00    +0.021 C 
ENDROOT
BRANCH   1   2
ATOM      2  C   UNL     1       0.698   5.248 -12.199  0.00  0.00    +0.049 C 
BRANCH   2   3
ATOM      3  C   UNL     1       1.775   6.206 -12.679  0.00  0.00    +0.205 C 
BRANCH   3   4
ATOM      4  O   UNL     1       2.533   5.564 -13.697  0.00  0.00    -0.475 OA
BRANCH   4  12
ATOM      5  O   UNL     1       7.978   7.180  -9.872  0.00  0.00    -0.273 OA
ATOM      6  C   UNL     1       7.672   6.320 -10.754  0.00  0.00    +0.246 C 
ATOM      7  N   UNL     1       6.343   5.795 -10.854  0.00  0.00    -0.179 NA
ATOM      8  C   UNL     1       5.886   5.496 -12.178  0.00  0.00    +0.072 A 
ATOM      9  C   UNL     1       6.675   5.930 -13.236  0.00  0.00    -0.006 A 
ATOM     10  C   UNL     1       6.089   6.277 -14.432  0.00  0.00    +0.000 A 
ATOM     11  C   UNL     1       4.711   6.202 -14.588  0.00  0.00    +0.037 A 
ATOM     12  C   UNL     1       3.923   5.624 -13.600  0.00  0.00    +0.140 A 
ATOM     13  C   UNL     1       8.143   5.826 -13.150  0.00  0.00    +0.037 C 
ATOM     14  C   UNL     1       4.580   5.185 -12.467  0.00  0.00    +0.053 A 
ATOM     15  C   UNL     1       8.661   5.811 -11.740  0.00  0.00    +0.092 C 
ENDBRANCH   4  12
ENDBRANCH   3   4
ENDBRANCH   2   3
ENDBRANCH   1   2
BRANCH   1  16
ATOM     16  C   UNL     1       1.826   5.262 -10.030  0.00  0.00    +0.072 C 
BRANCH  16  17
ATOM     17  N   UNL     1       1.573   5.235  -8.593  0.00  0.00    -0.270 NA
ATOM     18  C   UNL     1       1.895   6.549  -8.084  0.00  0.00    +0.094 C 
ATOM     19  C   UNL     1       2.155   6.551  -6.601  0.00  0.00    +0.108 C 
ATOM     20  N   UNL     1       1.518   5.402  -5.962  0.00  0.00    -0.304 N 
ATOM     21  C   UNL     1       1.870   4.094  -6.509  0.00  0.00    +0.108 C 
ATOM     22  C   UNL     1       2.318   4.181  -7.941  0.00  0.00    +0.094 C 
BRANCH  20  23
ATOM     23  C   UNL     1       0.137   5.568  -5.624  0.00  0.00    +0.059 A 
ATOM     24  C   UNL     1      -0.166   6.435  -4.587  0.00  0.00    +0.081 A 
ATOM     25 CL   UNL     1       0.840   6.343  -3.154  0.00  0.00    -0.080 Cl
ATOM     26  C   UNL     1      -1.472   6.838  -4.413  0.00  0.00    +0.069 A 
ATOM     27 CL   UNL     1      -2.104   7.380  -2.875  0.00  0.00    -0.081 Cl
ATOM     28  C   UNL     1      -2.384   6.610  -5.428  0.00  0.00    +0.012 A 
ATOM     29  C   UNL     1      -2.055   5.756  -6.466  0.00  0.00    +0.002 A 
ATOM     30  C   UNL     1      -0.840   5.090  -6.486  0.00  0.00    +0.015 A 
ENDBRANCH  20  23
ENDBRANCH  16  17
ENDBRANCH   1  16
TORSDOF 7
ENDMDL
MODEL 2
REMARK VINA RESULT:      -8.9      4.351      9.907
REMARK  Name = 
REMARK  7 active torsions:
REMARK  status: ('A' for Active; 'I' for Inactive)
REMARK    1  A    between atoms: C_8  and  O_9
REMARK    2  A    between atoms: O_9  and  C_10
REMARK    3  A    between atoms: C_10  and  C_11
REMARK    4  A    between atoms: C_11  and  C_12
REMARK    5  A    between atoms: C_12  and  C_13
REMARK    6  A    between atoms: C_13  and  N_14
REMARK    7  A    between atoms: N_17  and  C_18
REMARK                            x       y       z     vdW  Elec       q    Type
REMARK                         _______ _______ _______ _____ _____    ______ ____
ROOT
ATOM      1  C   UNL     1       4.515   7.048  -4.896  0.00  0.00    +0.021 C 
ENDROOT
BRANCH   1   2
ATOM      2  C   UNL     1       4.336   6.781  -3.411  0.00  0.00    +0.049 C 
BRANCH   2   3
ATOM      3  C   UNL     1       3.640   5.435  -3.298  0.00  0.00    +0.205 C 
BRANCH   3   4
ATOM      4  O   UNL     1       2.984   5.366  -2.038  0.00  0.00    -0.475 OA
BRANCH   4  12
ATOM      5  O   UNL     1      -2.714   7.537  -5.152  0.00  0.00    -0.273 OA
ATOM      6  C   UNL     1      -2.344   6.539  -4.461  0.00  0.00    +0.246 C 
ATOM      7  N   UNL     1      -1.007   6.031  -4.543  0.00  0.00    -0.179 NA
ATOM      8  C   UNL     1      -0.461   5.507  -3.326  0.00  0.00    +0.072 A 
ATOM      9  C   UNL     1      -1.182   5.729  -2.160  0.00  0.00    -0.006 A 
ATOM     10  C   UNL     1      -0.520   5.865  -0.960  0.00  0.00    +0.000 A 
ATOM     11  C   UNL     1       0.866   5.791  -0.909  0.00  0.00    +0.037 A 
ATOM     12  C   UNL     1       1.591   5.416  -2.033  0.00  0.00    +0.140 A 
ATOM     13  C   UNL     1      -2.651   5.612  -2.169  0.00  0.00    +0.037 C 
ATOM     14  C   UNL     1       0.863   5.175  -3.183  0.00  0.00    +0.053 A 
ATOM     15  C   UNL     1      -3.261   5.841  -3.523  0.00  0.00    +0.092 C 
ENDBRANCH   4  12
ENDBRANCH   3   4
ENDBRANCH   2   3
ENDBRANCH   1   2
BRANCH   1  16
ATOM     16  C   UNL     1       3.142   6.913  -5.541  0.00  0.00    +0.072 C 
BRANCH  16  17
ATOM     17  N   UNL     1       3.338   6.324  -6.862  0.00  0.00    -0.270 NA
ATOM     18  C   UNL     1       2.805   7.262  -7.824  0.00  0.00    +0.094 C 
ATOM     19  C   UNL     1       2.487   6.620  -9.148  0.00  0.00    +0.108 C 
ATOM     20  N   UNL     1       3.260   5.394  -9.328  0.00  0.00    -0.304 N 
ATOM     21  C   UNL     1       3.128   4.397  -8.268  0.00  0.00    +0.108 C 
ATOM     22  C   UNL     1       2.731   5.015  -6.956  0.00  0.00    +0.094 C 
BRANCH  20  23
ATOM     23  C   UNL     1       4.587   5.567  -9.838  0.00  0.00    +0.059 A 
ATOM     24  C   UNL     1       4.733   6.315 -10.995  0.00  0.00    +0.081 A 
ATOM     25 CL   UNL     1       3.582   6.018 -12.284  0.00  0.00    -0.080 Cl
ATOM     26  C   UNL     1       5.992   6.739 -11.361  0.00  0.00    +0.069 A 
ATOM     27 CL   UNL     1       6.425   7.117 -13.012  0.00  0.00    -0.081 Cl
ATOM     28  C   UNL     1       7.019   6.666 -10.436  0.00  0.00    +0.012 A 
ATOM     29  C   UNL     1       6.846   5.930  -9.278  0.00  0.00    +0.002 A 
ATOM     30  C   UNL     1       5.674   5.229  -9.044  0.00  0.00    +0.015 A 
ENDBRANCH  20  23
ENDBRANCH  16  17
ENDBRANCH   1  16
TORSDOF 7
ENDMDL
MODEL 3
REMARK VINA RESULT:      -8.9      4.294      9.809
REMARK  Name = 
REMARK  7 active torsions:
REMARK  status: ('A' for Active; 'I' for Inactive)
REMARK    1  A    between atoms: C_8  and  O_9
REMARK    2  A    between atoms: O_9  and  C_10
REMARK    3  A    between atoms: C_10  and  C_11
REMARK    4  A    between atoms: C_11  and  C_12
REMARK    5  A    between atoms: C_12  and  C_13
REMARK    6  A    between atoms: C_13  and  N_14
REMARK    7  A    between atoms: N_17  and  C_18
REMARK                            x       y       z     vdW  Elec       q    Type
REMARK                         _______ _______ _______ _____ _____    ______ ____
ROOT
ATOM      1  C   UNL     1       4.131   6.230  -3.736  0.00  0.00    +0.021 C 
ENDROOT
BRANCH   1   2
ATOM      2  C   UNL     1       3.994   6.316  -2.224  0.00  0.00    +0.049 C 
BRANCH   2   3
ATOM      3  C   UNL     1       3.424   4.984  -1.769  0.00  0.00    +0.205 C 
BRANCH   3   4
ATOM      4  O   UNL     1       2.581   5.210  -0.645  0.00  0.00    -0.475 OA
BRANCH   4  12
ATOM      5  O   UNL     1      -2.134   6.942  -5.299  0.00  0.00    -0.273 OA
ATOM      6  C   UNL     1      -2.091   6.331  -4.187  0.00  0.00    +0.246 C 
ATOM      7  N   UNL     1      -0.956   5.543  -3.812  0.00  0.00    -0.179 NA
ATOM      8  C   UNL     1      -0.629   5.542  -2.418  0.00  0.00    +0.072 A 
ATOM      9  C   UNL     1      -1.297   6.451  -1.608  0.00  0.00    -0.006 A 
ATOM     10  C   UNL     1      -0.668   6.975  -0.500  0.00  0.00    +0.000 A 
ATOM     11  C   UNL     1       0.635   6.607  -0.191  0.00  0.00    +0.037 A 
ATOM     12  C   UNL     1       1.262   5.585  -0.895  0.00  0.00    +0.140 A 
ATOM     13  C   UNL     1      -2.736   6.697  -1.809  0.00  0.00    +0.037 C 
ATOM     14  C   UNL     1       0.538   5.012  -1.924  0.00  0.00    +0.053 A 
ATOM     15  C   UNL     1      -3.205   6.398  -3.205  0.00  0.00    +0.092 C 
ENDBRANCH   4  12
ENDBRANCH   3   4
ENDBRANCH   2   3
ENDBRANCH   1   2
BRANCH   1  16
ATOM     16  C   UNL     1       2.847   6.792  -4.330  0.00  0.00    +0.072 C 
BRANCH  16  17
ATOM     17  N   UNL     1       2.567   6.040  -5.550  0.00  0.00    -0.270 NA
ATOM     18  C   UNL     1       1.516   6.745  -6.248  0.00  0.00    +0.094 C 
ATOM     19  C   UNL     1       0.788   5.876  -7.237  0.00  0.00    +0.108 C 
ATOM     20  N   UNL     1       1.620   4.745  -7.643  0.00  0.00    -0.304 N 
ATOM     21  C   UNL     1       2.132   3.912  -6.558  0.00  0.00    +0.108 C 
ATOM     22  C   UNL     1       2.225   4.665  -5.261  0.00  0.00    +0.094 C 
BRANCH  20  23
ATOM     23  C   UNL     1       2.549   5.007  -8.700  0.00  0.00    +0.059 A 
ATOM     24  C   UNL     1       2.040   5.504  -9.888  0.00  0.00    +0.081 A 
ATOM     25 CL   UNL     1       0.570   4.764 -10.494  0.00  0.00    -0.080 Cl
ATOM     26  C   UNL     1       2.909   6.029 -10.820  0.00  0.00    +0.069 A 
ATOM     27 CL   UNL     1       2.540   6.106 -12.527  0.00  0.00    -0.081 Cl
ATOM     28  C   UNL     1       4.208   6.313 -10.438  0.00  0.00    +0.012 A 
ATOM     29  C   UNL     1       4.692   5.825  -9.238  0.00  0.00    +0.002 A 
ATOM     30  C   UNL     1       3.910   5.019  -8.427  0.00  0.00    +0.015 A 
ENDBRANCH  20  23
ENDBRANCH  16  17
ENDBRANCH   1  16
TORSDOF 7
ENDMDL
MODEL 4
REMARK VINA RESULT:      -8.7      2.937      4.092
REMARK  Name = 
REMARK  7 active torsions:
REMARK  status: ('A' for Active; 'I' for Inactive)
REMARK    1  A    between atoms: C_8  and  O_9
REMARK    2  A    between atoms: O_9  and  C_10
REMARK    3  A    between atoms: C_10  and  C_11
REMARK    4  A    between atoms: C_11  and  C_12
REMARK    5  A    between atoms: C_12  and  C_13
REMARK    6  A    between atoms: C_13  and  N_14
REMARK    7  A    between atoms: N_17  and  C_18
REMARK                            x       y       z     vdW  Elec       q    Type
REMARK                         _______ _______ _______ _____ _____    ______ ____
ROOT
ATOM      1  C   UNL     1       0.288   5.960  -7.174  0.00  0.00    +0.021 C 
ENDROOT
BRANCH   1   2
ATOM      2  C   UNL     1      -0.020   5.473  -8.581  0.00  0.00    +0.049 C 
BRANCH   2   3
ATOM      3  C   UNL     1       1.318   5.172  -9.232  0.00  0.00    +0.205 C 
BRANCH   3   4
ATOM      4  O   UNL     1       2.114   6.351  -9.203  0.00  0.00    -0.475 OA
BRANCH   4  12
ATOM      5  O   UNL     1       7.466   4.686 -13.137  0.00  0.00    -0.273 OA
ATOM      6  C   UNL     1       7.214   5.483 -12.182  0.00  0.00    +0.246 C 
ATOM      7  N   UNL     1       5.926   6.094 -12.041  0.00  0.00    -0.179 NA
ATOM      8  C   UNL     1       5.479   6.306 -10.697  0.00  0.00    +0.072 A 
ATOM      9  C   UNL     1       6.223   5.722  -9.680  0.00  0.00    -0.006 A 
ATOM     10  C   UNL     1       5.600   5.314  -8.521  0.00  0.00    +0.000 A 
ATOM     11  C   UNL     1       4.230   5.476  -8.365  0.00  0.00    +0.037 A 
ATOM     12  C   UNL     1       3.496   6.197  -9.300  0.00  0.00    +0.140 A 
ATOM     13  C   UNL     1       7.695   5.725  -9.750  0.00  0.00    +0.037 C 
ATOM     14  C   UNL     1       4.196   6.686 -10.386  0.00  0.00    +0.053 A 
ATOM     15  C   UNL     1       8.228   5.829 -11.151  0.00  0.00    +0.092 C 
ENDBRANCH   4  12
ENDBRANCH   3   4
ENDBRANCH   2   3
ENDBRANCH   1   2
BRANCH   1  16
ATOM     16  C   UNL     1       0.498   4.723  -6.312  0.00  0.00    +0.072 C 
BRANCH  16  17
ATOM     17  N   UNL     1       1.458   5.076  -5.271  0.00  0.00    -0.270 NA
ATOM     18  C   UNL     1       1.566   6.518  -5.269  0.00  0.00    +0.094 C 
ATOM     19  C   UNL     1       2.833   7.006  -4.621  0.00  0.00    +0.108 C 
ATOM     20  N   UNL     1       3.366   6.001  -3.704  0.00  0.00    -0.304 N 
ATOM     21  C   UNL     1       3.599   4.678  -4.276  0.00  0.00    +0.108 C 
ATOM     22  C   UNL     1       2.729   4.417  -5.474  0.00  0.00    +0.094 C 
BRANCH  20  23
ATOM     23  C   UNL     1       2.804   6.004  -2.387  0.00  0.00    +0.059 A 
ATOM     24  C   UNL     1       2.962   7.152  -1.628  0.00  0.00    +0.081 A 
ATOM     25 CL   UNL     1       4.543   7.910  -1.653  0.00  0.00    -0.080 Cl
ATOM     26  C   UNL     1       2.209   7.306  -0.484  0.00  0.00    +0.069 A 
ATOM     27 CL   UNL     1       2.705   8.320   0.851  0.00  0.00    -0.081 Cl
ATOM     28  C   UNL     1       1.126   6.470  -0.278  0.00  0.00    +0.012 A 
ATOM     29  C   UNL     1       0.974   5.339  -1.060  0.00  0.00    +0.002 A 
ATOM     30  C   UNL     1       1.913   5.004  -2.021  0.00  0.00    +0.015 A 
ENDBRANCH  20  23
ENDBRANCH  16  17
ENDBRANCH   1  16
TORSDOF 7
ENDMDL
MODEL 5
REMARK VINA RESULT:      -8.6      2.529      4.131
REMARK  Name = 
REMARK  7 active torsions:
REMARK  status: ('A' for Active; 'I' for Inactive)
REMARK    1  A    between atoms: C_8  and  O_9
REMARK    2  A    between atoms: O_9  and  C_10
REMARK    3  A    between atoms: C_10  and  C_11
REMARK    4  A    between atoms: C_11  and  C_12
REMARK    5  A    between atoms: C_12  and  C_13
REMARK    6  A    between atoms: C_13  and  N_14
REMARK    7  A    between atoms: N_17  and  C_18
REMARK                            x       y       z     vdW  Elec       q    Type
REMARK                         _______ _______ _______ _____ _____    ______ ____
ROOT
ATOM      1  C   UNL     1       0.648   6.017  -8.867  0.00  0.00    +0.021 C 
ENDROOT
BRANCH   1   2
ATOM      2  C   UNL     1       1.135   4.953  -9.837  0.00  0.00    +0.049 C 
BRANCH   2   3
ATOM      3  C   UNL     1       2.218   4.174  -9.110  0.00  0.00    +0.205 C 
BRANCH   3   4
ATOM      4  O   UNL     1       3.028   5.092  -8.385  0.00  0.00    -0.475 OA
BRANCH   4  12
ATOM      5  O   UNL     1       7.246   4.748 -13.768  0.00  0.00    -0.273 OA
ATOM      6  C   UNL     1       6.988   5.560 -12.827  0.00  0.00    +0.246 C 
ATOM      7  N   UNL     1       5.663   5.696 -12.302  0.00  0.00    -0.179 NA
ATOM      8  C   UNL     1       5.571   5.969 -10.899  0.00  0.00    +0.072 A 
ATOM      9  C   UNL     1       6.739   5.869 -10.154  0.00  0.00    -0.006 A 
ATOM     10  C   UNL     1       6.681   5.477  -8.835  0.00  0.00    +0.000 A 
ATOM     11  C   UNL     1       5.461   5.174  -8.245  0.00  0.00    +0.037 A 
ATOM     12  C   UNL     1       4.272   5.418  -8.923  0.00  0.00    +0.140 A 
ATOM     13  C   UNL     1       8.009   6.375 -10.706  0.00  0.00    +0.037 C 
ATOM     14  C   UNL     1       4.387   5.924 -10.204  0.00  0.00    +0.053 A 
ATOM     15  C   UNL     1       8.037   6.413 -12.207  0.00  0.00    +0.092 C 
ENDBRANCH   4  12
ENDBRANCH   3   4
ENDBRANCH   2   3
ENDBRANCH   1   2
BRANCH   1  16
ATOM     16  C   UNL     1      -0.223   5.313  -7.836  0.00  0.00    +0.072 C 
BRANCH  16  17
ATOM     17  N   UNL     1       0.213   5.763  -6.518  0.00  0.00    -0.270 NA
ATOM     18  C   UNL     1       0.580   4.582  -5.770  0.00  0.00    +0.094 C 
ATOM     19  C   UNL     1       0.581   4.811  -4.283  0.00  0.00    +0.108 C 
ATOM     20  N   UNL     1       0.743   6.230  -3.978  0.00  0.00    -0.304 N 
ATOM     21  C   UNL     1      -0.225   7.129  -4.601  0.00  0.00    +0.108 C 
ATOM     22  C   UNL     1      -0.806   6.550  -5.860  0.00  0.00    +0.094 C 
BRANCH  20  23
ATOM     23  C   UNL     1       2.093   6.709  -3.957  0.00  0.00    +0.059 A 
ATOM     24  C   UNL     1       2.817   6.525  -2.790  0.00  0.00    +0.081 A 
ATOM     25 CL   UNL     1       1.991   6.863  -1.280  0.00  0.00    -0.080 Cl
ATOM     26  C   UNL     1       4.182   6.710  -2.815  0.00  0.00    +0.069 A 
ATOM     27 CL   UNL     1       5.112   7.123  -1.393  0.00  0.00    -0.081 Cl
ATOM     28  C   UNL     1       4.825   6.785  -4.038  0.00  0.00    +0.012 A 
ATOM     29  C   UNL     1       4.083   6.949  -5.194  0.00  0.00    +0.002 A 
ATOM     30  C   UNL     1       2.705   7.081  -5.145  0.00  0.00    +0.015 A 
ENDBRANCH  20  23
ENDBRANCH  16  17
ENDBRANCH   1  16
TORSDOF 7
ENDMDL
MODEL 6
REMARK VINA RESULT:      -8.5      5.225      8.472
REMARK  Name = 
REMARK  7 active torsions:
REMARK  status: ('A' for Active; 'I' for Inactive)
REMARK    1  A    between atoms: C_8  and  O_9
REMARK    2  A    between atoms: O_9  and  C_10
REMARK    3  A    between atoms: C_10  and  C_11
REMARK    4  A    between atoms: C_11  and  C_12
REMARK    5  A    between atoms: C_12  and  C_13
REMARK    6  A    between atoms: C_13  and  N_14
REMARK    7  A    between atoms: N_17  and  C_18
REMARK                            x       y       z     vdW  Elec       q    Type
REMARK                         _______ _______ _______ _____ _____    ______ ____
ROOT
ATOM      1  C   UNL     1       4.303   5.763  -5.664  0.00  0.00    +0.021 C 
ENDROOT
BRANCH   1   2
ATOM      2  C   UNL     1       3.552   5.395  -6.934  0.00  0.00    +0.049 C 
BRANCH   2   3
ATOM      3  C   UNL     1       2.570   4.302  -6.549  0.00  0.00    +0.205 C 
BRANCH   3   4
ATOM      4  O   UNL     1       1.373   4.482  -7.298  0.00  0.00    -0.475 OA
BRANCH   4  12
ATOM      5  O   UNL     1      -2.655   4.858  -1.774  0.00  0.00    -0.273 OA
ATOM      6  C   UNL     1      -2.165   5.652  -2.635  0.00  0.00    +0.246 C 
ATOM      7  N   UNL     1      -0.873   5.423  -3.209  0.00  0.00    -0.179 NA
ATOM      8  C   UNL     1      -0.719   5.815  -4.579  0.00  0.00    +0.072 A 
ATOM      9  C   UNL     1      -1.868   6.177  -5.269  0.00  0.00    -0.006 A 
ATOM     10  C   UNL     1      -1.957   5.945  -6.623  0.00  0.00    +0.000 A 
ATOM     11  C   UNL     1      -0.907   5.343  -7.304  0.00  0.00    +0.037 A 
ATOM     12  C   UNL     1       0.307   5.118  -6.666  0.00  0.00    +0.140 A 
ATOM     13  C   UNL     1      -2.902   6.990  -4.602  0.00  0.00    +0.037 C 
ATOM     14  C   UNL     1       0.378   5.480  -5.334  0.00  0.00    +0.053 A 
ATOM     15  C   UNL     1      -2.895   6.858  -3.106  0.00  0.00    +0.092 C 
ENDBRANCH   4  12
ENDBRANCH   3   4
ENDBRANCH   2   3
ENDBRANCH   1   2
BRANCH   1  16
ATOM     16  C   UNL     1       3.497   6.853  -4.972  0.00  0.00    +0.072 C 
BRANCH  16  17
ATOM     17  N   UNL     1       3.577   6.606  -3.535  0.00  0.00    -0.270 NA
ATOM     18  C   UNL     1       4.246   7.745  -2.949  0.00  0.00    +0.094 C 
ATOM     19  C   UNL     1       4.832   7.443  -1.596  0.00  0.00    +0.108 C 
ATOM     20  N   UNL     1       4.154   6.306  -0.980  0.00  0.00    -0.304 N 
ATOM     21  C   UNL     1       4.121   5.079  -1.773  0.00  0.00    +0.108 C 
ATOM     22  C   UNL     1       4.240   5.354  -3.246  0.00  0.00    +0.094 C 
BRANCH  20  23
ATOM     23  C   UNL     1       2.941   6.611  -0.282  0.00  0.00    +0.059 A 
ATOM     24  C   UNL     1       2.961   7.687   0.590  0.00  0.00    +0.081 A 
ATOM     25 CL   UNL     1       4.361   7.837   1.636  0.00  0.00    -0.080 Cl
ATOM     26  C   UNL     1       1.767   8.186   1.063  0.00  0.00    +0.069 A 
ATOM     27 CL   UNL     1       1.632   9.065   2.568  0.00  0.00    -0.081 Cl
ATOM     28  C   UNL     1       0.590   7.803   0.444  0.00  0.00    +0.012 A 
ATOM     29  C   UNL     1       0.594   6.738  -0.439  0.00  0.00    +0.002 A 
ATOM     30  C   UNL     1       1.752   6.019  -0.685  0.00  0.00    +0.015 A 
ENDBRANCH  20  23
ENDBRANCH  16  17
ENDBRANCH   1  16
TORSDOF 7
ENDMDL
MODEL 7
REMARK VINA RESULT:      -8.4      2.330      3.343
REMARK  Name = 
REMARK  7 active torsions:
REMARK  status: ('A' for Active; 'I' for Inactive)
REMARK    1  A    between atoms: C_8  and  O_9
REMARK    2  A    between atoms: O_9  and  C_10
REMARK    3  A    between atoms: C_10  and  C_11
REMARK    4  A    between atoms: C_11  and  C_12
REMARK    5  A    between atoms: C_12  and  C_13
REMARK    6  A    between atoms: C_13  and  N_14
REMARK    7  A    between atoms: N_17  and  C_18
REMARK                            x       y       z     vdW  Elec       q    Type
REMARK                         _______ _______ _______ _____ _____    ______ ____
ROOT
ATOM      1  C   UNL     1       0.214   5.842  -8.489  0.00  0.00    +0.021 C 
ENDROOT
BRANCH   1   2
ATOM      2  C   UNL     1       0.608   4.944  -9.651  0.00  0.00    +0.049 C 
BRANCH   2   3
ATOM      3  C   UNL     1       2.018   4.460  -9.359  0.00  0.00    +0.205 C 
BRANCH   3   4
ATOM      4  O   UNL     1       2.754   5.530  -8.778  0.00  0.00    -0.475 OA
BRANCH   4  12
ATOM      5  O   UNL     1       7.360   4.802 -13.791  0.00  0.00    -0.273 OA
ATOM      6  C   UNL     1       7.127   5.609 -12.840  0.00  0.00    +0.246 C 
ATOM      7  N   UNL     1       5.789   5.905 -12.425  0.00  0.00    -0.179 NA
ATOM      8  C   UNL     1       5.607   6.140 -11.023  0.00  0.00    +0.072 A 
ATOM      9  C   UNL     1       6.679   5.859 -10.187  0.00  0.00    -0.006 A 
ATOM     10  C   UNL     1       6.451   5.435  -8.898  0.00  0.00    +0.000 A 
ATOM     11  C   UNL     1       5.154   5.278  -8.428  0.00  0.00    +0.037 A 
ATOM     12  C   UNL     1       4.074   5.703  -9.192  0.00  0.00    +0.140 A 
ATOM     13  C   UNL     1       8.049   6.208 -10.605  0.00  0.00    +0.037 C 
ATOM     14  C   UNL     1       4.369   6.231 -10.435  0.00  0.00    +0.053 A 
ATOM     15  C   UNL     1       8.218   6.291 -12.096  0.00  0.00    +0.092 C 
ENDBRANCH   4  12
ENDBRANCH   3   4
ENDBRANCH   2   3
ENDBRANCH   1   2
BRANCH   1  16
ATOM     16  C   UNL     1      -0.828   5.087  -7.676  0.00  0.00    +0.072 C 
BRANCH  16  17
ATOM     17  N   UNL     1      -0.534   5.322  -6.266  0.00  0.00    -0.270 NA
ATOM     18  C   UNL     1      -0.488   6.755  -6.079  0.00  0.00    +0.094 C 
ATOM     19  C   UNL     1       0.264   7.156  -4.839  0.00  0.00    +0.108 C 
ATOM     20  N   UNL     1       0.295   6.060  -3.874  0.00  0.00    -0.304 N 
ATOM     21  C   UNL     1       0.827   4.792  -4.369  0.00  0.00    +0.108 C 
ATOM     22  C   UNL     1       0.687   4.663  -5.860  0.00  0.00    +0.094 C 
BRANCH  20  23
ATOM     23  C   UNL     1      -0.853   5.948  -3.026  0.00  0.00    +0.059 A 
ATOM     24  C   UNL     1      -0.812   6.603  -1.807  0.00  0.00    +0.081 A 
ATOM     25 CL   UNL     1       0.678   6.483  -0.890  0.00  0.00    -0.080 Cl
ATOM     26  C   UNL     1      -1.979   6.757  -1.091  0.00  0.00    +0.069 A 
ATOM     27 CL   UNL     1      -2.010   6.972   0.644  0.00  0.00    -0.081 Cl
ATOM     28  C   UNL     1      -3.188   6.522  -1.723  0.00  0.00    +0.012 A 
ATOM     29  C   UNL     1      -3.207   5.885  -2.950  0.00  0.00    +0.002 A 
ATOM     30  C   UNL     1      -2.037   5.438  -3.542  0.00  0.00    +0.015 A 
ENDBRANCH  20  23
ENDBRANCH  16  17
ENDBRANCH   1  16
TORSDOF 7
ENDMDL
MODEL 8
REMARK VINA RESULT:      -8.2      4.370      9.743
REMARK  Name = 
REMARK  7 active torsions:
REMARK  status: ('A' for Active; 'I' for Inactive)
REMARK    1  A    between atoms: C_8  and  O_9
REMARK    2  A    between atoms: O_9  and  C_10
REMARK    3  A    between atoms: C_10  and  C_11
REMARK    4  A    between atoms: C_11  and  C_12
REMARK    5  A    between atoms: C_12  and  C_13
REMARK    6  A    between atoms: C_13  and  N_14
REMARK    7  A    between atoms: N_17  and  C_18
REMARK                            x       y       z     vdW  Elec       q    Type
REMARK                         _______ _______ _______ _____ _____    ______ ____
ROOT
ATOM      1  C   UNL     1      -0.118   5.586  -8.974  0.00  0.00    +0.021 C 
ENDROOT
BRANCH   1   2
ATOM      2  C   UNL     1      -0.655   4.893  -7.732  0.00  0.00    +0.049 C 
BRANCH   2   3
ATOM      3  C   UNL     1      -1.305   5.975  -6.886  0.00  0.00    +0.205 C 
BRANCH   3   4
ATOM      4  O   UNL     1      -2.209   5.359  -5.977  0.00  0.00    -0.475 OA
BRANCH   4  12
ATOM      5  O   UNL     1       1.831   5.011  -0.459  0.00  0.00    -0.273 OA
ATOM      6  C   UNL     1       0.953   5.797  -0.933  0.00  0.00    +0.246 C 
ATOM      7  N   UNL     1       0.803   5.982  -2.345  0.00  0.00    -0.179 NA
ATOM      8  C   UNL     1      -0.535   6.201  -2.808  0.00  0.00    +0.072 A 
ATOM      9  C   UNL     1      -1.563   6.008  -1.894  0.00  0.00    -0.006 A 
ATOM     10  C   UNL     1      -2.792   5.566  -2.328  0.00  0.00    +0.000 A 
ATOM     11  C   UNL     1      -3.010   5.304  -3.675  0.00  0.00    +0.037 A 
ATOM     12  C   UNL     1      -2.049   5.640  -4.620  0.00  0.00    +0.140 A 
ATOM     13  C   UNL     1      -1.407   6.467  -0.502  0.00  0.00    +0.037 C 
ATOM     14  C   UNL     1      -0.877   6.191  -4.137  0.00  0.00    +0.053 A 
ATOM     15  C   UNL     1       0.026   6.565  -0.061  0.00  0.00    +0.092 C 
ENDBRANCH   4  12
ENDBRANCH   3   4
ENDBRANCH   2   3
ENDBRANCH   1   2
BRANCH   1  16
ATOM     16  C   UNL     1       0.829   4.606  -9.654  0.00  0.00    +0.072 C 
BRANCH  16  17
ATOM     17  N   UNL     1       2.147   5.231  -9.692  0.00  0.00    -0.270 NA
ATOM     18  C   UNL     1       3.089   4.259  -9.184  0.00  0.00    +0.094 C 
ATOM     19  C   UNL     1       4.372   4.885  -8.707  0.00  0.00    +0.108 C 
ATOM     20  N   UNL     1       4.580   6.184  -9.340  0.00  0.00    -0.304 N 
ATOM     21  C   UNL     1       3.492   7.147  -9.190  0.00  0.00    +0.108 C 
ATOM     22  C   UNL     1       2.169   6.474  -8.954  0.00  0.00    +0.094 C 
BRANCH  20  23
ATOM     23  C   UNL     1       5.189   6.152 -10.636  0.00  0.00    +0.059 A 
ATOM     24  C   UNL     1       6.516   5.761 -10.708  0.00  0.00    +0.081 A 
ATOM     25 CL   UNL     1       7.606   6.421  -9.503  0.00  0.00    -0.080 Cl
ATOM     26  C   UNL     1       7.054   5.447 -11.937  0.00  0.00    +0.069 A 
ATOM     27 CL   UNL     1       8.765   5.549 -12.280  0.00  0.00    -0.081 Cl
ATOM     28  C   UNL     1       6.203   5.247 -13.010  0.00  0.00    +0.012 A 
ATOM     29  C   UNL     1       4.876   5.626 -12.911  0.00  0.00    +0.002 A 
ATOM     30  C   UNL     1       4.391   6.242 -11.769  0.00  0.00    +0.015 A 
ENDBRANCH  20  23
ENDBRANCH  16  17
ENDBRANCH   1  16
TORSDOF 7
ENDMDL
MODEL 9
REMARK VINA RESULT:      -8.1      1.881      3.926
REMARK  Name = 
REMARK  7 active torsions:
REMARK  status: ('A' for Active; 'I' for Inactive)
REMARK    1  A    between atoms: C_8  and  O_9
REMARK    2  A    between atoms: O_9  and  C_10
REMARK    3  A    between atoms: C_10  and  C_11
REMARK    4  A    between atoms: C_11  and  C_12
REMARK    5  A    between atoms: C_12  and  C_13
REMARK    6  A    between atoms: C_13  and  N_14
REMARK    7  A    between atoms: N_17  and  C_18
REMARK                            x       y       z     vdW  Elec       q    Type
REMARK                         _______ _______ _______ _____ _____    ______ ____
ROOT
ATOM      1  C   UNL     1       5.499   5.268  -7.980  0.00  0.00    +0.021 C 
ENDROOT
BRANCH   1   2
ATOM      2  C   UNL     1       6.415   5.208  -9.191  0.00  0.00    +0.049 C 
BRANCH   2   3
ATOM      3  C   UNL     1       6.396   6.594  -9.812  0.00  0.00    +0.205 C 
BRANCH   3   4
ATOM      4  O   UNL     1       6.505   6.462 -11.224  0.00  0.00    -0.475 OA
BRANCH   4  12
ATOM      5  O   UNL     1      -0.030   4.433 -10.961  0.00  0.00    -0.273 OA
ATOM      6  C   UNL     1       0.694   5.178 -11.691  0.00  0.00    +0.246 C 
ATOM      7  N   UNL     1       1.775   5.938 -11.139  0.00  0.00    -0.179 NA
ATOM      8  C   UNL     1       2.921   6.099 -11.984  0.00  0.00    +0.072 A 
ATOM      9  C   UNL     1       2.963   5.344 -13.149  0.00  0.00    -0.006 A 
ATOM     10  C   UNL     1       4.174   4.930 -13.656  0.00  0.00    +0.000 A 
ATOM     11  C   UNL     1       5.357   5.255 -13.005  0.00  0.00    +0.037 A 
ATOM     12  C   UNL     1       5.348   6.138 -11.931  0.00  0.00    +0.140 A 
ATOM     13  C   UNL     1       1.739   5.161 -13.952  0.00  0.00    +0.037 C 
ATOM     14  C   UNL     1       4.112   6.617 -11.539  0.00  0.00    +0.053 A 
ATOM     15  C   UNL     1       0.474   5.305 -13.156  0.00  0.00    +0.092 C 
ENDBRANCH   4  12
ENDBRANCH   3   4
ENDBRANCH   2   3
ENDBRANCH   1   2
BRANCH   1  16
ATOM     16  C   UNL     1       4.090   4.968  -8.474  0.00  0.00    +0.072 C 
BRANCH  16  17
ATOM     17  N   UNL     1       3.177   5.225  -7.364  0.00  0.00    -0.270 NA
ATOM     18  C   UNL     1       2.750   6.601  -7.480  0.00  0.00    +0.094 C 
ATOM     19  C   UNL     1       2.216   7.156  -6.187  0.00  0.00    +0.108 C 
ATOM     20  N   UNL     1       1.762   6.080  -5.310  0.00  0.00    -0.304 N 
ATOM     21  C   UNL     1       2.745   5.041  -5.016  0.00  0.00    +0.108 C 
ATOM     22  C   UNL     1       3.793   4.933  -6.089  0.00  0.00    +0.094 C 
BRANCH  20  23
ATOM     23  C   UNL     1       0.431   5.608  -5.547  0.00  0.00    +0.059 A 
ATOM     24  C   UNL     1      -0.502   5.800  -4.541  0.00  0.00    +0.081 A 
ATOM     25 CL   UNL     1       0.017   5.463  -2.900  0.00  0.00    -0.080 Cl
ATOM     26  C   UNL     1      -1.838   5.622  -4.827  0.00  0.00    +0.069 A 
ATOM     27 CL   UNL     1      -3.026   5.219  -3.609  0.00  0.00    -0.081 Cl
ATOM     28  C   UNL     1      -2.236   5.546  -6.150  0.00  0.00    +0.012 A 
ATOM     29  C   UNL     1      -1.287   5.374  -7.142  0.00  0.00    +0.002 A 
ATOM     30  C   UNL     1       0.055   5.235  -6.830  0.00  0.00    +0.015 A 
ENDBRANCH  20  23
ENDBRANCH  16  17
ENDBRANCH   1  16
TORSDOF 7
ENDMDL
