MODEL 1
REMARK VINA RESULT:      -7.7      0.000      0.000
REMARK  Name = 
REMARK  12 active torsions:
REMARK  status: ('A' for Active; 'I' for Inactive)
REMARK    1  A    between atoms: C_14  and  N_15
REMARK    2  A    between atoms: N_15  and  C_16
REMARK    3  A    between atoms: C_16  and  C_17
REMARK    4  A    between atoms: C_17  and  N_18
REMARK    5  A    between atoms: N_18  and  C_19
REMARK    6  A    between atoms: C_19  and  C_20
REMARK    7  A    between atoms: C_24  and  N_25
REMARK    8  A    between atoms: N_25  and  C_26
REMARK    9  A    between atoms: C_26  and  C_27
REMARK   10  A    between atoms: C_27  and  N_28
REMARK   11  A    between atoms: N_28  and  C_29
REMARK   12  A    between atoms: C_29  and  C_30
REMARK                            x       y       z     vdW  Elec       q    Type
REMARK                         _______ _______ _______ _____ _____    ______ ____
ROOT
ATOM      1  O   UNL     1       1.752   6.123  -8.170  0.00  0.00    -0.286 OA
ATOM      2  C   UNL     1       1.582   6.033  -6.922  0.00  0.00    +0.200 C 
ATOM      3  C   UNL     1       2.703   6.121  -5.978  0.00  0.00    +0.058 A 
ATOM      4  C   UNL     1       2.494   6.138  -4.607  0.00  0.00    +0.058 A 
ATOM      5  C   UNL     1       3.483   5.781  -3.701  0.00  0.00    +0.069 A 
ATOM      6  C   UNL     1       4.726   5.493  -4.226  0.00  0.00    +0.018 A 
ATOM      7  C   UNL     1       4.988   5.519  -5.590  0.00  0.00    +0.018 A 
ATOM      8  C   UNL     1       1.147   6.458  -4.117  0.00  0.00    +0.200 C 
ATOM      9  O   UNL     1       0.942   6.306  -2.876  0.00  0.00    -0.286 OA
ATOM     10  C   UNL     1       0.030   6.395  -5.068  0.00  0.00    +0.084 A 
ATOM     11  C   UNL     1      -1.243   6.331  -4.515  0.00  0.00    +0.199 A 
ATOM     12  O   UNL     1      -1.425   7.092  -3.354  0.00  0.00    -0.286 OA
ATOM     13  C   UNL     1      -2.318   5.911  -5.287  0.00  0.00    +0.045 A 
ATOM     14  C   UNL     1      -2.049   5.448  -6.551  0.00  0.00    +0.045 A 
ATOM     15  C   UNL     1      -0.824   5.518  -7.157  0.00  0.00    +0.199 A 
ATOM     16  O   UNL     1      -0.612   5.439  -8.519  0.00  0.00    -0.286 OA
ATOM     17  C   UNL     1       3.939   5.713  -6.465  0.00  0.00    +0.069 A 
ATOM     18  C   UNL     1       0.240   5.895  -6.348  0.00  0.00    +0.084 A 
ENDROOT
BRANCH   5  19
ATOM     19  N   UNL     1       3.088   5.145  -2.488  0.00  0.00    -0.236 NA
BRANCH  19  20
ATOM     20  C   UNL     1       3.949   4.964  -1.352  0.00  0.00    +0.131 C 
BRANCH  20  21
ATOM     21  C   UNL     1       4.101   6.203  -0.511  0.00  0.00    +0.112 C 
BRANCH  21  22
ATOM     22  N   UNL     1       2.786   6.478   0.068  0.00  0.00    -0.213 NA
BRANCH  22  23
ATOM     23  C   UNL     1       2.551   7.915  -0.021  0.00  0.00    +0.124 C 
BRANCH  23  24
ATOM     24  C   UNL     1       3.601   8.449  -0.989  0.00  0.00    +0.201 C 
ATOM     25  O   UNL     1       3.652   9.832  -0.823  0.00  0.00    -0.219 OA
ENDBRANCH  23  24
ENDBRANCH  22  23
ENDBRANCH  21  22
ENDBRANCH  20  21
ENDBRANCH  19  20
ENDBRANCH   5  19
BRANCH  17  26
ATOM     26  N   UNL     1       4.150   5.469  -7.861  0.00  0.00    -0.236 NA
BRANCH  26  27
ATOM     27  C   UNL     1       5.439   5.140  -8.412  0.00  0.00    +0.131 C 
BRANCH  27  28
ATOM     28  C   UNL     1       5.765   5.898  -9.669  0.00  0.00    +0.112 C 
BRANCH  28  29
ATOM     29  N   UNL     1       7.180   5.976  -9.925  0.00  0.00    -0.213 NA
BRANCH  29  30
ATOM     30  C   UNL     1       7.406   6.483 -11.276  0.00  0.00    +0.124 C 
BRANCH  30  31
ATOM     31  C   UNL     1       8.379   5.507 -11.922  0.00  0.00    +0.201 C 
ATOM     32  O   UNL     1       7.646   4.644 -12.730  0.00  0.00    -0.219 OA
ENDBRANCH  30  31
ENDBRANCH  29  30
ENDBRANCH  28  29
ENDBRANCH  27  28
ENDBRANCH  26  27
ENDBRANCH  17  26
TORSDOF 12
ENDMDL
MODEL 2
REMARK VINA RESULT:      -7.7      2.389      4.726
REMARK  Name = 
REMARK  12 active torsions:
REMARK  status: ('A' for Active; 'I' for Inactive)
REMARK    1  A    between atoms: C_14  and  N_15
REMARK    2  A    between atoms: N_15  and  C_16
REMARK    3  A    between atoms: C_16  and  C_17
REMARK    4  A    between atoms: C_17  and  N_18
REMARK    5  A    between atoms: N_18  and  C_19
REMARK    6  A    between atoms: C_19  and  C_20
REMARK    7  A    between atoms: C_24  and  N_25
REMARK    8  A    between atoms: N_25  and  C_26
REMARK    9  A    between atoms: C_26  and  C_27
REMARK   10  A    between atoms: C_27  and  N_28
REMARK   11  A    between atoms: N_28  and  C_29
REMARK   12  A    between atoms: C_29  and  C_30
REMARK                            x       y       z     vdW  Elec       q    Type
REMARK                         _______ _______ _______ _____ _____    ______ ____
ROOT
ATOM      1  O   UNL     1       4.359   6.877  -6.190  0.00  0.00    -0.286 OA
ATOM      2  C   UNL     1       3.291   6.548  -5.602  0.00  0.00    +0.200 C 
ATOM      3  C   UNL     1       2.190   5.881  -6.309  0.00  0.00    +0.058 A 
ATOM      4  C   UNL     1       1.071   5.419  -5.631  0.00  0.00    +0.058 A 
ATOM      5  C   UNL     1      -0.143   5.199  -6.266  0.00  0.00    +0.069 A 
ATOM      6  C   UNL     1      -0.163   5.372  -7.635  0.00  0.00    +0.018 A 
ATOM      7  C   UNL     1       0.952   5.780  -8.356  0.00  0.00    +0.018 A 
ATOM      8  C   UNL     1       1.165   5.252  -4.175  0.00  0.00    +0.200 C 
ATOM      9  O   UNL     1       0.088   4.989  -3.561  0.00  0.00    -0.286 OA
ATOM     10  C   UNL     1       2.281   5.898  -3.473  0.00  0.00    +0.084 A 
ATOM     11  C   UNL     1       2.140   6.039  -2.098  0.00  0.00    +0.199 A 
ATOM     12  O   UNL     1       1.503   4.973  -1.454  0.00  0.00    -0.286 OA
ATOM     13  C   UNL     1       2.942   6.935  -1.404  0.00  0.00    +0.045 A 
ATOM     14  C   UNL     1       3.768   7.750  -2.139  0.00  0.00    +0.045 A 
ATOM     15  C   UNL     1       3.970   7.633  -3.488  0.00  0.00    +0.199 A 
ATOM     16  O   UNL     1       5.054   8.147  -4.171  0.00  0.00    -0.286 OA
ATOM     17  C   UNL     1       2.089   6.152  -7.668  0.00  0.00    +0.069 A 
ATOM     18  C   UNL     1       3.121   6.764  -4.162  0.00  0.00    +0.084 A 
ENDROOT
BRANCH   5  19
ATOM     19  N   UNL     1      -1.341   5.427  -5.529  0.00  0.00    -0.236 NA
BRANCH  19  20
ATOM     20  C   UNL     1      -2.298   6.453  -5.840  0.00  0.00    +0.131 C 
BRANCH  20  21
ATOM     21  C   UNL     1      -2.466   7.471  -4.743  0.00  0.00    +0.112 C 
BRANCH  21  22
ATOM     22  N   UNL     1      -2.931   6.740  -3.565  0.00  0.00    -0.213 NA
BRANCH  22  23
ATOM     23  C   UNL     1      -2.233   7.278  -2.402  0.00  0.00    +0.124 C 
BRANCH  23  24
ATOM     24  C   UNL     1      -2.348   6.211  -1.319  0.00  0.00    +0.201 C 
ATOM     25  O   UNL     1      -2.661   5.010  -1.953  0.00  0.00    -0.219 OA
ENDBRANCH  23  24
ENDBRANCH  22  23
ENDBRANCH  21  22
ENDBRANCH  20  21
ENDBRANCH  19  20
ENDBRANCH   5  19
BRANCH  17  26
ATOM     26  N   UNL     1       3.135   6.827  -8.375  0.00  0.00    -0.236 NA
BRANCH  26  27
ATOM     27  C   UNL     1       3.729   6.305  -9.579  0.00  0.00    +0.131 C 
BRANCH  27  28
ATOM     28  C   UNL     1       4.731   5.213  -9.329  0.00  0.00    +0.112 C 
BRANCH  28  29
ATOM     29  N   UNL     1       6.055   5.551  -9.783  0.00  0.00    -0.213 NA
BRANCH  29  30
ATOM     30  C   UNL     1       6.046   5.726 -11.233  0.00  0.00    +0.124 C 
BRANCH  30  31
ATOM     31  C   UNL     1       7.504   5.658 -11.663  0.00  0.00    +0.201 C 
ATOM     32  O   UNL     1       7.643   4.585 -12.537  0.00  0.00    -0.219 OA
ENDBRANCH  30  31
ENDBRANCH  29  30
ENDBRANCH  28  29
ENDBRANCH  27  28
ENDBRANCH  26  27
ENDBRANCH  17  26
TORSDOF 12
ENDMDL
MODEL 3
REMARK VINA RESULT:      -7.3      1.600      7.534
REMARK  Name = 
REMARK  12 active torsions:
REMARK  status: ('A' for Active; 'I' for Inactive)
REMARK    1  A    between atoms: C_14  and  N_15
REMARK    2  A    between atoms: N_15  and  C_16
REMARK    3  A    between atoms: C_16  and  C_17
REMARK    4  A    between atoms: C_17  and  N_18
REMARK    5  A    between atoms: N_18  and  C_19
REMARK    6  A    between atoms: C_19  and  C_20
REMARK    7  A    between atoms: C_24  and  N_25
REMARK    8  A    between atoms: N_25  and  C_26
REMARK    9  A    between atoms: C_26  and  C_27
REMARK   10  A    between atoms: C_27  and  N_28
REMARK   11  A    between atoms: N_28  and  C_29
REMARK   12  A    between atoms: C_29  and  C_30
REMARK                            x       y       z     vdW  Elec       q    Type
REMARK                         _______ _______ _______ _____ _____    ______ ____
ROOT
ATOM      1  O   UNL     1       0.759   5.950  -1.960  0.00  0.00    -0.286 OA
ATOM      2  C   UNL     1       0.902   5.846  -3.210  0.00  0.00    +0.200 C 
ATOM      3  C   UNL     1       2.157   5.375  -3.812  0.00  0.00    +0.058 A 
ATOM      4  C   UNL     1       2.265   5.154  -5.177  0.00  0.00    +0.058 A 
ATOM      5  C   UNL     1       3.489   5.145  -5.832  0.00  0.00    +0.069 A 
ATOM      6  C   UNL     1       4.613   5.273  -5.042  0.00  0.00    +0.018 A 
ATOM      7  C   UNL     1       4.545   5.441  -3.664  0.00  0.00    +0.018 A 
ATOM      8  C   UNL     1       1.028   5.020  -5.956  0.00  0.00    +0.200 C 
ATOM      9  O   UNL     1       1.150   4.984  -7.217  0.00  0.00    -0.286 OA
ATOM     10  C   UNL     1      -0.229   5.468  -5.344  0.00  0.00    +0.084 A 
ATOM     11  C   UNL     1      -1.293   5.678  -6.213  0.00  0.00    +0.199 A 
ATOM     12  O   UNL     1      -1.379   4.772  -7.276  0.00  0.00    -0.286 OA
ATOM     13  C   UNL     1      -2.387   6.430  -5.806  0.00  0.00    +0.045 A 
ATOM     14  C   UNL     1      -2.312   7.050  -4.583  0.00  0.00    +0.045 A 
ATOM     15  C   UNL     1      -1.306   6.853  -3.676  0.00  0.00    +0.199 A 
ATOM     16  O   UNL     1      -1.395   7.131  -2.326  0.00  0.00    -0.286 OA
ATOM     17  C   UNL     1       3.310   5.615  -3.075  0.00  0.00    +0.069 A 
ATOM     18  C   UNL     1      -0.204   6.138  -4.127  0.00  0.00    +0.084 A 
ENDROOT
BRANCH   5  19
ATOM     19  N   UNL     1       3.538   5.618  -7.175  0.00  0.00    -0.236 NA
BRANCH  19  20
ATOM     20  C   UNL     1       4.585   5.302  -8.107  0.00  0.00    +0.131 C 
BRANCH  20  21
ATOM     21  C   UNL     1       4.138   5.323  -9.544  0.00  0.00    +0.112 C 
BRANCH  21  22
ATOM     22  N   UNL     1       5.266   5.830 -10.324  0.00  0.00    -0.213 NA
BRANCH  22  23
ATOM     23  C   UNL     1       4.949   7.195 -10.733  0.00  0.00    +0.124 C 
BRANCH  23  24
ATOM     24  C   UNL     1       6.267   7.805 -11.198  0.00  0.00    +0.201 C 
ATOM     25  O   UNL     1       6.435   7.454 -12.537  0.00  0.00    -0.219 OA
ENDBRANCH  23  24
ENDBRANCH  22  23
ENDBRANCH  21  22
ENDBRANCH  20  21
ENDBRANCH  19  20
ENDBRANCH   5  19
BRANCH  17  26
ATOM     26  N   UNL     1       3.250   6.058  -1.715  0.00  0.00    -0.236 NA
BRANCH  26  27
ATOM     27  C   UNL     1       4.184   5.624  -0.708  0.00  0.00    +0.131 C 
BRANCH  27  28
ATOM     28  C   UNL     1       4.686   6.740   0.165  0.00  0.00    +0.112 C 
BRANCH  28  29
ATOM     29  N   UNL     1       3.796   7.042   1.256  0.00  0.00    -0.213 NA
BRANCH  29  30
ATOM     30  C   UNL     1       3.298   8.408   1.119  0.00  0.00    +0.124 C 
BRANCH  30  31
ATOM     31  C   UNL     1       1.802   8.274   0.871  0.00  0.00    +0.201 C 
ATOM     32  O   UNL     1       1.413   7.002   1.279  0.00  0.00    -0.219 OA
ENDBRANCH  30  31
ENDBRANCH  29  30
ENDBRANCH  28  29
ENDBRANCH  27  28
ENDBRANCH  26  27
ENDBRANCH  17  26
TORSDOF 12
ENDMDL
MODEL 4
REMARK VINA RESULT:      -7.2      2.782      4.877
REMARK  Name = 
REMARK  12 active torsions:
REMARK  status: ('A' for Active; 'I' for Inactive)
REMARK    1  A    between atoms: C_14  and  N_15
REMARK    2  A    between atoms: N_15  and  C_16
REMARK    3  A    between atoms: C_16  and  C_17
REMARK    4  A    between atoms: C_17  and  N_18
REMARK    5  A    between atoms: N_18  and  C_19
REMARK    6  A    between atoms: C_19  and  C_20
REMARK    7  A    between atoms: C_24  and  N_25
REMARK    8  A    between atoms: N_25  and  C_26
REMARK    9  A    between atoms: C_26  and  C_27
REMARK   10  A    between atoms: C_27  and  N_28
REMARK   11  A    between atoms: N_28  and  C_29
REMARK   12  A    between atoms: C_29  and  C_30
REMARK                            x       y       z     vdW  Elec       q    Type
REMARK                         _______ _______ _______ _____ _____    ______ ____
ROOT
ATOM      1  O   UNL     1       2.783   4.802  -7.871  0.00  0.00    -0.286 OA
ATOM      2  C   UNL     1       2.261   5.163  -6.780  0.00  0.00    +0.200 C 
ATOM      3  C   UNL     1       0.811   5.092  -6.552  0.00  0.00    +0.058 A 
ATOM      4  C   UNL     1       0.260   5.381  -5.312  0.00  0.00    +0.058 A 
ATOM      5  C   UNL     1      -1.069   5.753  -5.160  0.00  0.00    +0.069 A 
ATOM      6  C   UNL     1      -1.849   5.734  -6.297  0.00  0.00    +0.018 A 
ATOM      7  C   UNL     1      -1.345   5.397  -7.547  0.00  0.00    +0.018 A 
ATOM      8  C   UNL     1       1.147   5.377  -4.143  0.00  0.00    +0.200 C 
ATOM      9  O   UNL     1       0.657   5.802  -3.054  0.00  0.00    -0.286 OA
ATOM     10  C   UNL     1       2.597   5.422  -4.372  0.00  0.00    +0.084 A 
ATOM     11  C   UNL     1       3.378   5.791  -3.284  0.00  0.00    +0.199 A 
ATOM     12  O   UNL     1       2.935   5.313  -2.045  0.00  0.00    -0.286 OA
ATOM     13  C   UNL     1       4.688   6.211  -3.477  0.00  0.00    +0.045 A 
ATOM     14  C   UNL     1       5.121   6.366  -4.770  0.00  0.00    +0.045 A 
ATOM     15  C   UNL     1       4.408   5.988  -5.876  0.00  0.00    +0.199 A 
ATOM     16  O   UNL     1       4.951   5.761  -7.125  0.00  0.00    -0.286 OA
ATOM     17  C   UNL     1       0.014   5.198  -7.685  0.00  0.00    +0.069 A 
ATOM     18  C   UNL     1       3.087   5.619  -5.658  0.00  0.00    +0.084 A 
ENDROOT
BRANCH   5  19
ATOM     19  N   UNL     1      -1.396   6.671  -4.120  0.00  0.00    -0.236 NA
BRANCH  19  20
ATOM     20  C   UNL     1      -2.637   6.662  -3.395  0.00  0.00    +0.131 C 
BRANCH  20  21
ATOM     21  C   UNL     1      -2.863   5.400  -2.607  0.00  0.00    +0.112 C 
BRANCH  21  22
ATOM     22  N   UNL     1      -2.143   5.561  -1.345  0.00  0.00    -0.213 NA
BRANCH  22  23
ATOM     23  C   UNL     1      -2.378   6.919  -0.866  0.00  0.00    +0.124 C 
BRANCH  23  24
ATOM     24  C   UNL     1      -1.083   7.349  -0.186  0.00  0.00    +0.201 C 
ATOM     25  O   UNL     1      -1.213   8.698   0.137  0.00  0.00    -0.219 OA
ENDBRANCH  23  24
ENDBRANCH  22  23
ENDBRANCH  21  22
ENDBRANCH  20  21
ENDBRANCH  19  20
ENDBRANCH   5  19
BRANCH  17  26
ATOM     26  N   UNL     1       0.572   5.124  -9.002  0.00  0.00    -0.236 NA
BRANCH  26  27
ATOM     27  C   UNL     1       0.199   6.025 -10.062  0.00  0.00    +0.131 C 
BRANCH  27  28
ATOM     28  C   UNL     1       1.361   6.476 -10.902  0.00  0.00    +0.112 C 
BRANCH  28  29
ATOM     29  N   UNL     1       1.997   5.393 -11.606  0.00  0.00    -0.213 NA
BRANCH  29  30
ATOM     30  C   UNL     1       2.770   5.924 -12.726  0.00  0.00    +0.124 C 
BRANCH  30  31
ATOM     31  C   UNL     1       4.224   5.608 -12.405  0.00  0.00    +0.201 C 
ATOM     32  O   UNL     1       4.659   4.637 -13.301  0.00  0.00    -0.219 OA
ENDBRANCH  30  31
ENDBRANCH  29  30
ENDBRANCH  28  29
ENDBRANCH  27  28
ENDBRANCH  26  27
ENDBRANCH  17  26
TORSDOF 12
ENDMDL
MODEL 5
REMARK VINA RESULT:      -7.1      4.747      7.461
REMARK  Name = 
REMARK  12 active torsions:
REMARK  status: ('A' for Active; 'I' for Inactive)
REMARK    1  A    between atoms: C_14  and  N_15
REMARK    2  A    between atoms: N_15  and  C_16
REMARK    3  A    between atoms: C_16  and  C_17
REMARK    4  A    between atoms: C_17  and  N_18
REMARK    5  A    between atoms: N_18  and  C_19
REMARK    6  A    between atoms: C_19  and  C_20
REMARK    7  A    between atoms: C_24  and  N_25
REMARK    8  A    between atoms: N_25  and  C_26
REMARK    9  A    between atoms: C_26  and  C_27
REMARK   10  A    between atoms: C_27  and  N_28
REMARK   11  A    between atoms: N_28  and  C_29
REMARK   12  A    between atoms: C_29  and  C_30
REMARK                            x       y       z     vdW  Elec       q    Type
REMARK                         _______ _______ _______ _____ _____    ______ ____
ROOT
ATOM      1  O   UNL     1       3.842   6.053 -13.398  0.00  0.00    -0.286 OA
ATOM      2  C   UNL     1       3.786   5.956 -12.140  0.00  0.00    +0.200 C 
ATOM      3  C   UNL     1       2.548   5.580 -11.446  0.00  0.00    +0.058 A 
ATOM      4  C   UNL     1       2.525   5.362 -10.076  0.00  0.00    +0.058 A 
ATOM      5  C   UNL     1       1.357   5.444  -9.330  0.00  0.00    +0.069 A 
ATOM      6  C   UNL     1       0.190   5.662 -10.034  0.00  0.00    +0.018 A 
ATOM      7  C   UNL     1       0.167   5.829 -11.413  0.00  0.00    +0.018 A 
ATOM      8  C   UNL     1       3.803   5.130  -9.392  0.00  0.00    +0.200 C 
ATOM      9  O   UNL     1       3.774   5.099  -8.125  0.00  0.00    -0.286 OA
ATOM     10  C   UNL     1       5.042   5.483 -10.097  0.00  0.00    +0.084 A 
ATOM     11  C   UNL     1       6.181   5.608  -9.311  0.00  0.00    +0.199 A 
ATOM     12  O   UNL     1       6.277   4.693  -8.255  0.00  0.00    -0.286 OA
ATOM     13  C   UNL     1       7.296   6.275  -9.800  0.00  0.00    +0.045 A 
ATOM     14  C   UNL     1       7.177   6.904 -11.015  0.00  0.00    +0.045 A 
ATOM     15  C   UNL     1       6.094   6.789 -11.844  0.00  0.00    +0.199 A 
ATOM     16  O   UNL     1       6.103   7.065 -13.197  0.00  0.00    -0.286 OA
ATOM     17  C   UNL     1       1.364   5.911 -12.094  0.00  0.00    +0.069 A 
ATOM     18  C   UNL     1       4.977   6.158 -11.310  0.00  0.00    +0.084 A 
ENDROOT
BRANCH   5  19
ATOM     19  N   UNL     1       1.445   5.914  -7.988  0.00  0.00    -0.236 NA
BRANCH  19  20
ATOM     20  C   UNL     1       0.468   5.642  -6.970  0.00  0.00    +0.131 C 
BRANCH  20  21
ATOM     21  C   UNL     1       0.856   4.515  -6.051  0.00  0.00    +0.112 C 
BRANCH  21  22
ATOM     22  N   UNL     1       2.020   4.975  -5.295  0.00  0.00    -0.213 NA
BRANCH  22  23
ATOM     23  C   UNL     1       1.540   5.816  -4.203  0.00  0.00    +0.124 C 
BRANCH  23  24
ATOM     24  C   UNL     1       2.562   6.939  -4.064  0.00  0.00    +0.201 C 
ATOM     25  O   UNL     1       3.326   6.949  -5.229  0.00  0.00    -0.219 OA
ENDBRANCH  23  24
ENDBRANCH  22  23
ENDBRANCH  21  22
ENDBRANCH  20  21
ENDBRANCH  19  20
ENDBRANCH   5  19
BRANCH  17  26
ATOM     26  N   UNL     1       1.356   6.353 -13.456  0.00  0.00    -0.236 NA
BRANCH  26  27
ATOM     27  C   UNL     1       0.558   7.462 -13.914  0.00  0.00    +0.131 C 
BRANCH  27  28
ATOM     28  C   UNL     1       0.881   7.893 -15.317  0.00  0.00    +0.112 C 
BRANCH  28  29
ATOM     29  N   UNL     1       0.550   6.895 -16.301  0.00  0.00    -0.213 NA
BRANCH  29  30
ATOM     30  C   UNL     1      -0.714   7.242 -16.945  0.00  0.00    +0.124 C 
BRANCH  30  31
ATOM     31  C   UNL     1      -0.355   7.612 -18.377  0.00  0.00    +0.201 C 
ATOM     32  O   UNL     1       0.848   6.988 -18.692  0.00  0.00    -0.219 OA
ENDBRANCH  30  31
ENDBRANCH  29  30
ENDBRANCH  28  29
ENDBRANCH  27  28
ENDBRANCH  26  27
ENDBRANCH  17  26
TORSDOF 12
ENDMDL
MODEL 6
REMARK VINA RESULT:      -7.1      3.617      5.663
REMARK  Name = 
REMARK  12 active torsions:
REMARK  status: ('A' for Active; 'I' for Inactive)
REMARK    1  A    between atoms: C_14  and  N_15
REMARK    2  A    between atoms: N_15  and  C_16
REMARK    3  A    between atoms: C_16  and  C_17
REMARK    4  A    between atoms: C_17  and  N_18
REMARK    5  A    between atoms: N_18  and  C_19
REMARK    6  A    between atoms: C_19  and  C_20
REMARK    7  A    between atoms: C_24  and  N_25
REMARK    8  A    between atoms: N_25  and  C_26
REMARK    9  A    between atoms: C_26  and  C_27
REMARK   10  A    between atoms: C_27  and  N_28
REMARK   11  A    between atoms: N_28  and  C_29
REMARK   12  A    between atoms: C_29  and  C_30
REMARK                            x       y       z     vdW  Elec       q    Type
REMARK                         _______ _______ _______ _____ _____    ______ ____
ROOT
ATOM      1  O   UNL     1       4.771   6.164 -11.730  0.00  0.00    -0.286 OA
ATOM      2  C   UNL     1       3.624   6.145 -11.202  0.00  0.00    +0.200 C 
ATOM      3  C   UNL     1       3.440   6.122  -9.745  0.00  0.00    +0.058 A 
ATOM      4  C   UNL     1       2.180   6.219  -9.174  0.00  0.00    +0.058 A 
ATOM      5  C   UNL     1       1.911   5.771  -7.889  0.00  0.00    +0.069 A 
ATOM      6  C   UNL     1       2.987   5.304  -7.161  0.00  0.00    +0.018 A 
ATOM      7  C   UNL     1       4.274   5.244  -7.680  0.00  0.00    +0.018 A 
ATOM      8  C   UNL     1       1.082   6.731 -10.005  0.00  0.00    +0.200 C 
ATOM      9  O   UNL     1      -0.084   6.655  -9.517  0.00  0.00    -0.286 OA
ATOM     10  C   UNL     1       1.277   6.777 -11.460  0.00  0.00    +0.084 A 
ATOM     11  C   UNL     1       0.125   6.901 -12.228  0.00  0.00    +0.199 A 
ATOM     12  O   UNL     1      -0.867   7.723 -11.682  0.00  0.00    -0.286 OA
ATOM     13  C   UNL     1       0.155   6.596 -13.582  0.00  0.00    +0.045 A 
ATOM     14  C   UNL     1       1.312   6.053 -14.085  0.00  0.00    +0.045 A 
ATOM     15  C   UNL     1       2.482   5.939 -13.384  0.00  0.00    +0.199 A 
ATOM     16  O   UNL     1       3.731   5.781 -13.954  0.00  0.00    -0.286 OA
ATOM     17  C   UNL     1       4.468   5.538  -9.014  0.00  0.00    +0.069 A 
ATOM     18  C   UNL     1       2.411   6.205 -12.023  0.00  0.00    +0.084 A 
ENDROOT
BRANCH   5  19
ATOM     19  N   UNL     1       0.618   5.239  -7.617  0.00  0.00    -0.236 NA
BRANCH  19  20
ATOM     20  C   UNL     1       0.087   5.037  -6.296  0.00  0.00    +0.131 C 
BRANCH  20  21
ATOM     21  C   UNL     1      -1.165   5.826  -6.025  0.00  0.00    +0.112 C 
BRANCH  21  22
ATOM     22  N   UNL     1      -1.451   5.677  -4.599  0.00  0.00    -0.213 NA
BRANCH  22  23
ATOM     23  C   UNL     1      -2.621   6.493  -4.290  0.00  0.00    +0.124 C 
BRANCH  23  24
ATOM     24  C   UNL     1      -3.176   5.943  -2.981  0.00  0.00    +0.201 C 
ATOM     25  O   UNL     1      -2.707   4.637  -2.848  0.00  0.00    -0.219 OA
ENDBRANCH  23  24
ENDBRANCH  22  23
ENDBRANCH  21  22
ENDBRANCH  20  21
ENDBRANCH  19  20
ENDBRANCH   5  19
BRANCH  17  26
ATOM     26  N   UNL     1       5.726   5.216  -9.617  0.00  0.00    -0.236 NA
BRANCH  26  27
ATOM     27  C   UNL     1       6.982   5.718  -9.123  0.00  0.00    +0.131 C 
BRANCH  27  28
ATOM     28  C   UNL     1       8.122   5.532 -10.086  0.00  0.00    +0.112 C 
BRANCH  28  29
ATOM     29  N   UNL     1       8.104   6.483 -11.167  0.00  0.00    -0.213 NA
BRANCH  29  30
ATOM     30  C   UNL     1       8.847   5.946 -12.303  0.00  0.00    +0.124 C 
BRANCH  30  31
ATOM     31  C   UNL     1       7.848   5.875 -13.449  0.00  0.00    +0.201 C 
ATOM     32  O   UNL     1       7.122   4.696 -13.311  0.00  0.00    -0.219 OA
ENDBRANCH  30  31
ENDBRANCH  29  30
ENDBRANCH  28  29
ENDBRANCH  27  28
ENDBRANCH  26  27
ENDBRANCH  17  26
TORSDOF 12
ENDMDL
MODEL 7
REMARK VINA RESULT:      -7.1      2.420      7.599
REMARK  Name = 
REMARK  12 active torsions:
REMARK  status: ('A' for Active; 'I' for Inactive)
REMARK    1  A    between atoms: C_14  and  N_15
REMARK    2  A    between atoms: N_15  and  C_16
REMARK    3  A    between atoms: C_16  and  C_17
REMARK    4  A    between atoms: C_17  and  N_18
REMARK    5  A    between atoms: N_18  and  C_19
REMARK    6  A    between atoms: C_19  and  C_20
REMARK    7  A    between atoms: C_24  and  N_25
REMARK    8  A    between atoms: N_25  and  C_26
REMARK    9  A    between atoms: C_26  and  C_27
REMARK   10  A    between atoms: C_27  and  N_28
REMARK   11  A    between atoms: N_28  and  C_29
REMARK   12  A    between atoms: C_29  and  C_30
REMARK                            x       y       z     vdW  Elec       q    Type
REMARK                         _______ _______ _______ _____ _____    ______ ____
ROOT
ATOM      1  O   UNL     1       0.678   5.925  -1.809  0.00  0.00    -0.286 OA
ATOM      2  C   UNL     1       0.807   5.848  -3.062  0.00  0.00    +0.200 C 
ATOM      3  C   UNL     1       2.045   5.364  -3.687  0.00  0.00    +0.058 A 
ATOM      4  C   UNL     1       2.136   5.174  -5.059  0.00  0.00    +0.058 A 
ATOM      5  C   UNL     1       3.352   5.153  -5.726  0.00  0.00    +0.069 A 
ATOM      6  C   UNL     1       4.486   5.239  -4.944  0.00  0.00    +0.018 A 
ATOM      7  C   UNL     1       4.436   5.374  -3.562  0.00  0.00    +0.018 A 
ATOM      8  C   UNL     1       0.888   5.085  -5.828  0.00  0.00    +0.200 C 
ATOM      9  O   UNL     1       0.997   5.078  -7.090  0.00  0.00    -0.286 OA
ATOM     10  C   UNL     1      -0.353   5.546  -5.193  0.00  0.00    +0.084 A 
ATOM     11  C   UNL     1      -1.420   5.800  -6.046  0.00  0.00    +0.199 A 
ATOM     12  O   UNL     1      -1.536   4.922  -7.130  0.00  0.00    -0.286 OA
ATOM     13  C   UNL     1      -2.493   6.566  -5.610  0.00  0.00    +0.045 A 
ATOM     14  C   UNL     1      -2.392   7.155  -4.374  0.00  0.00    +0.045 A 
ATOM     15  C   UNL     1      -1.383   6.914  -3.482  0.00  0.00    +0.199 A 
ATOM     16  O   UNL     1      -1.453   7.161  -2.125  0.00  0.00    -0.286 OA
ATOM     17  C   UNL     1       3.210   5.561  -2.956  0.00  0.00    +0.069 A 
ATOM     18  C   UNL     1      -0.302   6.186  -3.960  0.00  0.00    +0.084 A 
ENDROOT
BRANCH   5  19
ATOM     19  N   UNL     1       3.399   5.658  -7.057  0.00  0.00    -0.236 NA
BRANCH  19  20
ATOM     20  C   UNL     1       4.285   5.168  -8.078  0.00  0.00    +0.131 C 
BRANCH  20  21
ATOM     21  C   UNL     1       3.637   5.054  -9.431  0.00  0.00    +0.112 C 
BRANCH  21  22
ATOM     22  N   UNL     1       3.054   6.362  -9.726  0.00  0.00    -0.213 NA
BRANCH  22  23
ATOM     23  C   UNL     1       1.970   6.163 -10.683  0.00  0.00    +0.124 C 
BRANCH  23  24
ATOM     24  C   UNL     1       1.395   4.785 -10.377  0.00  0.00    +0.201 C 
ATOM     25  O   UNL     1       0.011   4.874 -10.516  0.00  0.00    -0.219 OA
ENDBRANCH  23  24
ENDBRANCH  22  23
ENDBRANCH  21  22
ENDBRANCH  20  21
ENDBRANCH  19  20
ENDBRANCH   5  19
BRANCH  17  26
ATOM     26  N   UNL     1       3.172   5.973  -1.585  0.00  0.00    -0.236 NA
BRANCH  26  27
ATOM     27  C   UNL     1       3.940   7.081  -1.080  0.00  0.00    +0.131 C 
BRANCH  27  28
ATOM     28  C   UNL     1       3.151   8.002  -0.191  0.00  0.00    +0.112 C 
BRANCH  28  29
ATOM     29  N   UNL     1       2.473   7.309   0.873  0.00  0.00    -0.213 NA
BRANCH  29  30
ATOM     30  C   UNL     1       1.143   7.883   1.063  0.00  0.00    +0.124 C 
BRANCH  30  31
ATOM     31  C   UNL     1       1.326   9.389   0.937  0.00  0.00    +0.201 C 
ATOM     32  O   UNL     1       0.069   9.980   1.014  0.00  0.00    -0.219 OA
ENDBRANCH  30  31
ENDBRANCH  29  30
ENDBRANCH  28  29
ENDBRANCH  27  28
ENDBRANCH  26  27
ENDBRANCH  17  26
TORSDOF 12
ENDMDL
MODEL 8
REMARK VINA RESULT:      -7.1      3.226      5.325
REMARK  Name = 
REMARK  12 active torsions:
REMARK  status: ('A' for Active; 'I' for Inactive)
REMARK    1  A    between atoms: C_14  and  N_15
REMARK    2  A    between atoms: N_15  and  C_16
REMARK    3  A    between atoms: C_16  and  C_17
REMARK    4  A    between atoms: C_17  and  N_18
REMARK    5  A    between atoms: N_18  and  C_19
REMARK    6  A    between atoms: C_19  and  C_20
REMARK    7  A    between atoms: C_24  and  N_25
REMARK    8  A    between atoms: N_25  and  C_26
REMARK    9  A    between atoms: C_26  and  C_27
REMARK   10  A    between atoms: C_27  and  N_28
REMARK   11  A    between atoms: N_28  and  C_29
REMARK   12  A    between atoms: C_29  and  C_30
REMARK                            x       y       z     vdW  Elec       q    Type
REMARK                         _______ _______ _______ _____ _____    ______ ____
ROOT
ATOM      1  O   UNL     1       3.689   6.965  -6.028  0.00  0.00    -0.286 OA
ATOM      2  C   UNL     1       2.796   6.637  -5.198  0.00  0.00    +0.200 C 
ATOM      3  C   UNL     1       1.568   5.944  -5.611  0.00  0.00    +0.058 A 
ATOM      4  C   UNL     1       0.648   5.486  -4.679  0.00  0.00    +0.058 A 
ATOM      5  C   UNL     1      -0.678   5.240  -5.004  0.00  0.00    +0.069 A 
ATOM      6  C   UNL     1      -1.024   5.384  -6.332  0.00  0.00    +0.018 A 
ATOM      7  C   UNL     1      -0.117   5.788  -7.304  0.00  0.00    +0.018 A 
ATOM      8  C   UNL     1       1.087   5.350  -3.284  0.00  0.00    +0.200 C 
ATOM      9  O   UNL     1       0.190   5.090  -2.428  0.00  0.00    -0.286 OA
ATOM     10  C   UNL     1       2.328   6.022  -2.878  0.00  0.00    +0.084 A 
ATOM     11  C   UNL     1       2.514   6.191  -1.511  0.00  0.00    +0.199 A 
ATOM     12  O   UNL     1       2.063   5.132  -0.715  0.00  0.00    -0.286 OA
ATOM     13  C   UNL     1       3.445   7.110  -1.044  0.00  0.00    +0.045 A 
ATOM     14  C   UNL     1       4.061   7.917  -1.968  0.00  0.00    +0.045 A 
ATOM     15  C   UNL     1       3.939   7.773  -3.324  0.00  0.00    +0.199 A 
ATOM     16  O   UNL     1       4.824   8.283  -4.254  0.00  0.00    -0.286 OA
ATOM     17  C   UNL     1       1.145   6.185  -6.912  0.00  0.00    +0.069 A 
ATOM     18  C   UNL     1       2.968   6.882  -3.762  0.00  0.00    +0.084 A 
ENDROOT
BRANCH   5  19
ATOM     19  N   UNL     1      -1.671   5.473  -4.009  0.00  0.00    -0.236 NA
BRANCH  19  20
ATOM     20  C   UNL     1      -2.514   6.636  -3.963  0.00  0.00    +0.131 C 
BRANCH  20  21
ATOM     21  C   UNL     1      -3.062   6.927  -2.592  0.00  0.00    +0.112 C 
BRANCH  21  22
ATOM     22  N   UNL     1      -1.997   7.606  -1.854  0.00  0.00    -0.213 NA
BRANCH  22  23
ATOM     23  C   UNL     1      -1.944   7.028  -0.515  0.00  0.00    +0.124 C 
BRANCH  23  24
ATOM     24  C   UNL     1      -0.746   7.677   0.169  0.00  0.00    +0.201 C 
ATOM     25  O   UNL     1      -1.069   9.015   0.389  0.00  0.00    -0.219 OA
ENDBRANCH  23  24
ENDBRANCH  22  23
ENDBRANCH  21  22
ENDBRANCH  20  21
ENDBRANCH  19  20
ENDBRANCH   5  19
BRANCH  17  26
ATOM     26  N   UNL     1       1.984   6.856  -7.859  0.00  0.00    -0.236 NA
BRANCH  26  27
ATOM     27  C   UNL     1       2.663   6.168  -8.928  0.00  0.00    +0.131 C 
BRANCH  27  28
ATOM     28  C   UNL     1       1.994   6.330 -10.265  0.00  0.00    +0.112 C 
BRANCH  28  29
ATOM     29  N   UNL     1       1.244   5.166 -10.661  0.00  0.00    -0.213 NA
BRANCH  29  30
ATOM     30  C   UNL     1      -0.022   5.580 -11.258  0.00  0.00    +0.124 C 
BRANCH  30  31
ATOM     31  C   UNL     1       0.216   6.986 -11.789  0.00  0.00    +0.201 C 
ATOM     32  O   UNL     1      -0.927   7.738 -11.535  0.00  0.00    -0.219 OA
ENDBRANCH  30  31
ENDBRANCH  29  30
ENDBRANCH  28  29
ENDBRANCH  27  28
ENDBRANCH  26  27
ENDBRANCH  17  26
TORSDOF 12
ENDMDL
MODEL 9
REMARK VINA RESULT:      -7.1      2.450      7.931
REMARK  Name = 
REMARK  12 active torsions:
REMARK  status: ('A' for Active; 'I' for Inactive)
REMARK    1  A    between atoms: C_14  and  N_15
REMARK    2  A    between atoms: N_15  and  C_16
REMARK    3  A    between atoms: C_16  and  C_17
REMARK    4  A    between atoms: C_17  and  N_18
REMARK    5  A    between atoms: N_18  and  C_19
REMARK    6  A    between atoms: C_19  and  C_20
REMARK    7  A    between atoms: C_24  and  N_25
REMARK    8  A    between atoms: N_25  and  C_26
REMARK    9  A    between atoms: C_26  and  C_27
REMARK   10  A    between atoms: C_27  and  N_28
REMARK   11  A    between atoms: N_28  and  C_29
REMARK   12  A    between atoms: C_29  and  C_30
REMARK                            x       y       z     vdW  Elec       q    Type
REMARK                         _______ _______ _______ _____ _____    ______ ____
ROOT
ATOM      1  O   UNL     1       0.124   5.522  -3.769  0.00  0.00    -0.286 OA
ATOM      2  C   UNL     1       1.321   5.719  -4.117  0.00  0.00    +0.200 C 
ATOM      3  C   UNL     1       1.685   6.020  -5.508  0.00  0.00    +0.058 A 
ATOM      4  C   UNL     1       2.986   6.348  -5.860  0.00  0.00    +0.058 A 
ATOM      5  C   UNL     1       3.463   6.208  -7.155  0.00  0.00    +0.069 A 
ATOM      6  C   UNL     1       2.549   5.809  -8.109  0.00  0.00    +0.018 A 
ATOM      7  C   UNL     1       1.223   5.524  -7.804  0.00  0.00    +0.018 A 
ATOM      8  C   UNL     1       3.905   6.771  -4.794  0.00  0.00    +0.200 C 
ATOM      9  O   UNL     1       5.123   6.906  -5.113  0.00  0.00    -0.286 OA
ATOM     10  C   UNL     1       3.528   6.492  -3.403  0.00  0.00    +0.084 A 
ATOM     11  C   UNL     1       4.552   6.555  -2.466  0.00  0.00    +0.199 A 
ATOM     12  O   UNL     1       5.500   7.561  -2.690  0.00  0.00    -0.286 OA
ATOM     13  C   UNL     1       4.392   5.970  -1.217  0.00  0.00    +0.045 A 
ATOM     14  C   UNL     1       3.254   5.231  -1.004  0.00  0.00    +0.045 A 
ATOM     15  C   UNL     1       2.201   5.162  -1.876  0.00  0.00    +0.199 A 
ATOM     16  O   UNL     1       0.920   4.775  -1.536  0.00  0.00    -0.286 OA
ATOM     17  C   UNL     1       0.833   5.512  -6.481  0.00  0.00    +0.069 A 
ATOM     18  C   UNL     1       2.408   5.714  -3.133  0.00  0.00    +0.084 A 
ENDROOT
BRANCH   5  19
ATOM     19  N   UNL     1       4.834   5.864  -7.336  0.00  0.00    -0.236 NA
BRANCH  19  20
ATOM     20  C   UNL     1       5.324   5.017  -8.388  0.00  0.00    +0.131 C 
BRANCH  20  21
ATOM     21  C   UNL     1       5.778   5.774  -9.607  0.00  0.00    +0.112 C 
BRANCH  21  22
ATOM     22  N   UNL     1       7.225   5.944  -9.477  0.00  0.00    -0.213 NA
BRANCH  22  23
ATOM     23  C   UNL     1       7.707   6.602 -10.687  0.00  0.00    +0.124 C 
BRANCH  23  24
ATOM     24  C   UNL     1       6.643   7.631 -11.052  0.00  0.00    +0.201 C 
ATOM     25  O   UNL     1       6.505   7.609 -12.439  0.00  0.00    -0.219 OA
ENDBRANCH  23  24
ENDBRANCH  22  23
ENDBRANCH  21  22
ENDBRANCH  20  21
ENDBRANCH  19  20
ENDBRANCH   5  19
BRANCH  17  26
ATOM     26  N   UNL     1      -0.443   4.958  -6.142  0.00  0.00    -0.236 NA
BRANCH  26  27
ATOM     27  C   UNL     1      -1.642   5.239  -6.888  0.00  0.00    +0.131 C 
BRANCH  27  28
ATOM     28  C   UNL     1      -2.658   6.033  -6.114  0.00  0.00    +0.112 C 
BRANCH  28  29
ATOM     29  N   UNL     1      -2.843   5.549  -4.771  0.00  0.00    -0.213 NA
BRANCH  29  30
ATOM     30  C   UNL     1      -2.941   6.679  -3.852  0.00  0.00    +0.124 C 
BRANCH  30  31
ATOM     31  C   UNL     1      -3.128   6.068  -2.471  0.00  0.00    +0.201 C 
ATOM     32  O   UNL     1      -2.838   4.710  -2.561  0.00  0.00    -0.219 OA
ENDBRANCH  30  31
ENDBRANCH  29  30
ENDBRANCH  28  29
ENDBRANCH  27  28
ENDBRANCH  26  27
ENDBRANCH  17  26
TORSDOF 12
ENDMDL
