MODEL 1
REMARK VINA RESULT:      -5.6      0.000      0.000
REMARK  Name = 
REMARK  16 active torsions:
REMARK  status: ('A' for Active; 'I' for Inactive)
REMARK    1  A    between atoms: C_2  and  C_3
REMARK    2  A    between atoms: C_3  and  C_4
REMARK    3  A    between atoms: C_4  and  C_5
REMARK    4  A    between atoms: C_5  and  C_6
REMARK    5  A    between atoms: C_6  and  C_7
REMARK    6  A    between atoms: C_7  and  C_8
REMARK    7  A    between atoms: C_8  and  C_9
REMARK    8  A    between atoms: C_9  and  C_10
REMARK    9  A    between atoms: C_10  and  C_11
REMARK   10  A    between atoms: C_11  and  C_12
REMARK   11  A    between atoms: C_12  and  C_13
REMARK   12  A    between atoms: C_13  and  C_14
REMARK   13  A    between atoms: C_14  and  C_15
REMARK   14  A    between atoms: C_15  and  C_16
REMARK   15  A    between atoms: C_16  and  C_17
REMARK   16  A    between atoms: C_17  and  C_18
REMARK                            x       y       z     vdW  Elec       q    Type
REMARK                         _______ _______ _______ _____ _____    ______ ____
ROOT
ATOM      1  C   UNL     1       1.747   7.451  -7.460  0.00  0.00    +0.000 C 
ENDROOT
BRANCH   1   2
ATOM      2  C   UNL     1       2.236   6.790  -6.178  0.00  0.00    +0.000 C 
BRANCH   2   3
ATOM      3  C   UNL     1       3.740   6.822  -6.078  0.00  0.00    +0.000 C 
BRANCH   3   4
ATOM      4  C   UNL     1       4.297   5.472  -6.436  0.00  0.00    +0.000 C 
BRANCH   4   5
ATOM      5  C   UNL     1       4.953   5.436  -7.787  0.00  0.00    +0.000 C 
BRANCH   5   6
ATOM      6  C   UNL     1       4.057   4.740  -8.793  0.00  0.00    +0.000 C 
BRANCH   6   7
ATOM      7  C   UNL     1       4.466   5.113 -10.200  0.00  0.00    +0.000 C 
BRANCH   7   8
ATOM      8  C   UNL     1       4.866   6.563 -10.217  0.00  0.00    +0.000 C 
BRANCH   8  10
ATOM      9  C   UNL     1       6.424   8.182 -11.345  0.00  0.00    +0.000 C 
ATOM     10  C   UNL     1       6.077   6.743 -11.089  0.00  0.00    +0.000 C 
ENDBRANCH   8  10
ENDBRANCH   7   8
ENDBRANCH   6   7
ENDBRANCH   5   6
ENDBRANCH   4   5
ENDBRANCH   3   4
ENDBRANCH   2   3
ENDBRANCH   1   2
BRANCH   1  11
ATOM     11  C   UNL     1       0.995   6.372  -8.227  0.00  0.00    +0.000 C 
BRANCH  11  12
ATOM     12  C   UNL     1       0.414   5.437  -7.173  0.00  0.00    +0.000 C 
BRANCH  12  13
ATOM     13  C   UNL     1      -1.086   5.380  -7.421  0.00  0.00    +0.000 C 
BRANCH  13  14
ATOM     14  C   UNL     1      -1.798   5.409  -6.088  0.00  0.00    +0.000 C 
BRANCH  14  15
ATOM     15  C   UNL     1      -2.154   6.823  -5.658  0.00  0.00    +0.001 C 
BRANCH  15  16
ATOM     16  C   UNL     1      -1.441   7.071  -4.348  0.00  0.00    +0.012 C 
BRANCH  16  17
ATOM     17  C   UNL     1      -0.894   5.816  -3.730  0.00  0.00    +0.114 C 
BRANCH  17  18
ATOM     18  C   UNL     1      -1.578   5.467  -2.447  0.00  0.00    +0.365 C 
ATOM     19  O   UNL     1      -0.737   5.133  -1.380  0.00  0.00    -0.246 OA
ATOM     20  O   UNL     1      -2.606   4.732  -2.559  0.00  0.00    -0.246 OA
ENDBRANCH  17  18
ENDBRANCH  16  17
ENDBRANCH  15  16
ENDBRANCH  14  15
ENDBRANCH  13  14
ENDBRANCH  12  13
ENDBRANCH  11  12
ENDBRANCH   1  11
TORSDOF 16
ENDMDL
MODEL 2
REMARK VINA RESULT:      -5.5      1.490      2.140
REMARK  Name = 
REMARK  16 active torsions:
REMARK  status: ('A' for Active; 'I' for Inactive)
REMARK    1  A    between atoms: C_2  and  C_3
REMARK    2  A    between atoms: C_3  and  C_4
REMARK    3  A    between atoms: C_4  and  C_5
REMARK    4  A    between atoms: C_5  and  C_6
REMARK    5  A    between atoms: C_6  and  C_7
REMARK    6  A    between atoms: C_7  and  C_8
REMARK    7  A    between atoms: C_8  and  C_9
REMARK    8  A    between atoms: C_9  and  C_10
REMARK    9  A    between atoms: C_10  and  C_11
REMARK   10  A    between atoms: C_11  and  C_12
REMARK   11  A    between atoms: C_12  and  C_13
REMARK   12  A    between atoms: C_13  and  C_14
REMARK   13  A    between atoms: C_14  and  C_15
REMARK   14  A    between atoms: C_15  and  C_16
REMARK   15  A    between atoms: C_16  and  C_17
REMARK   16  A    between atoms: C_17  and  C_18
REMARK                            x       y       z     vdW  Elec       q    Type
REMARK                         _______ _______ _______ _____ _____    ______ ____
ROOT
ATOM      1  C   UNL     1       1.120   5.495  -8.595  0.00  0.00    +0.000 C 
ENDROOT
BRANCH   1   2
ATOM      2  C   UNL     1       1.654   6.917  -8.720  0.00  0.00    +0.000 C 
BRANCH   2   3
ATOM      3  C   UNL     1       3.161   6.946  -8.680  0.00  0.00    +0.000 C 
BRANCH   3   4
ATOM      4  C   UNL     1       3.710   6.001  -9.713  0.00  0.00    +0.000 C 
BRANCH   4   5
ATOM      5  C   UNL     1       5.092   6.362 -10.178  0.00  0.00    +0.000 C 
BRANCH   5   6
ATOM      6  C   UNL     1       6.131   5.552  -9.428  0.00  0.00    +0.000 C 
BRANCH   6   7
ATOM      7  C   UNL     1       7.493   6.192  -9.575  0.00  0.00    +0.000 C 
BRANCH   7   8
ATOM      8  C   UNL     1       7.619   6.747 -10.968  0.00  0.00    +0.000 C 
BRANCH   8  10
ATOM      9  C   UNL     1       7.683   5.455 -13.124  0.00  0.00    +0.000 C 
ATOM     10  C   UNL     1       8.377   5.778 -11.831  0.00  0.00    +0.000 C 
ENDBRANCH   8  10
ENDBRANCH   7   8
ENDBRANCH   6   7
ENDBRANCH   5   6
ENDBRANCH   4   5
ENDBRANCH   3   4
ENDBRANCH   2   3
ENDBRANCH   1   2
BRANCH   1  11
ATOM     11  C   UNL     1       1.237   5.133  -7.121  0.00  0.00    +0.000 C 
BRANCH  11  12
ATOM     12  C   UNL     1       0.060   5.808  -6.428  0.00  0.00    +0.000 C 
BRANCH  12  13
ATOM     13  C   UNL     1      -1.198   5.319  -7.132  0.00  0.00    +0.000 C 
BRANCH  13  14
ATOM     14  C   UNL     1      -2.399   5.706  -6.300  0.00  0.00    +0.000 C 
BRANCH  14  15
ATOM     15  C   UNL     1      -2.092   6.846  -5.344  0.00  0.00    +0.001 C 
BRANCH  15  16
ATOM     16  C   UNL     1      -2.739   6.493  -4.024  0.00  0.00    +0.012 C 
BRANCH  16  17
ATOM     17  C   UNL     1      -1.887   6.850  -2.839  0.00  0.00    +0.114 C 
BRANCH  17  18
ATOM     18  C   UNL     1      -1.671   5.690  -1.921  0.00  0.00    +0.365 C 
ATOM     19  O   UNL     1      -0.467   4.998  -2.086  0.00  0.00    -0.246 OA
ATOM     20  O   UNL     1      -2.684   4.949  -1.732  0.00  0.00    -0.246 OA
ENDBRANCH  17  18
ENDBRANCH  16  17
ENDBRANCH  15  16
ENDBRANCH  14  15
ENDBRANCH  13  14
ENDBRANCH  12  13
ENDBRANCH  11  12
ENDBRANCH   1  11
TORSDOF 16
ENDMDL
MODEL 3
REMARK VINA RESULT:      -5.4      4.822      8.694
REMARK  Name = 
REMARK  16 active torsions:
REMARK  status: ('A' for Active; 'I' for Inactive)
REMARK    1  A    between atoms: C_2  and  C_3
REMARK    2  A    between atoms: C_3  and  C_4
REMARK    3  A    between atoms: C_4  and  C_5
REMARK    4  A    between atoms: C_5  and  C_6
REMARK    5  A    between atoms: C_6  and  C_7
REMARK    6  A    between atoms: C_7  and  C_8
REMARK    7  A    between atoms: C_8  and  C_9
REMARK    8  A    between atoms: C_9  and  C_10
REMARK    9  A    between atoms: C_10  and  C_11
REMARK   10  A    between atoms: C_11  and  C_12
REMARK   11  A    between atoms: C_12  and  C_13
REMARK   12  A    between atoms: C_13  and  C_14
REMARK   13  A    between atoms: C_14  and  C_15
REMARK   14  A    between atoms: C_15  and  C_16
REMARK   15  A    between atoms: C_16  and  C_17
REMARK   16  A    between atoms: C_17  and  C_18
REMARK                            x       y       z     vdW  Elec       q    Type
REMARK                         _______ _______ _______ _____ _____    ______ ____
ROOT
ATOM      1  C   UNL     1       2.665   7.391  -7.078  0.00  0.00    +0.000 C 
ENDROOT
BRANCH   1   2
ATOM      2  C   UNL     1       3.501   6.257  -6.499  0.00  0.00    +0.000 C 
BRANCH   2   3
ATOM      3  C   UNL     1       2.753   5.512  -5.423  0.00  0.00    +0.000 C 
BRANCH   3   4
ATOM      4  C   UNL     1       1.808   4.528  -6.056  0.00  0.00    +0.000 C 
BRANCH   4   5
ATOM      5  C   UNL     1       0.364   4.804  -5.747  0.00  0.00    +0.000 C 
BRANCH   5   6
ATOM      6  C   UNL     1      -0.383   5.190  -7.008  0.00  0.00    +0.000 C 
BRANCH   6   7
ATOM      7  C   UNL     1      -1.817   5.536  -6.676  0.00  0.00    +0.000 C 
BRANCH   7   8
ATOM      8  C   UNL     1      -1.881   6.016  -5.252  0.00  0.00    +0.000 C 
BRANCH   8  10
ATOM      9  C   UNL     1      -1.910   8.365  -4.356  0.00  0.00    +0.000 C 
ATOM     10  C   UNL     1      -2.607   7.331  -5.193  0.00  0.00    +0.000 C 
ENDBRANCH   8  10
ENDBRANCH   7   8
ENDBRANCH   6   7
ENDBRANCH   5   6
ENDBRANCH   4   5
ENDBRANCH   3   4
ENDBRANCH   2   3
ENDBRANCH   1   2
BRANCH   1  11
ATOM     11  C   UNL     1       2.548   7.106  -8.568  0.00  0.00    +0.000 C 
BRANCH  11  12
ATOM     12  C   UNL     1       3.764   6.263  -8.930  0.00  0.00    +0.000 C 
BRANCH  12  13
ATOM     13  C   UNL     1       3.596   5.858 -10.387  0.00  0.00    +0.000 C 
BRANCH  13  14
ATOM     14  C   UNL     1       4.897   6.111 -11.113  0.00  0.00    +0.000 C 
BRANCH  14  15
ATOM     15  C   UNL     1       5.394   7.534 -10.919  0.00  0.00    +0.001 C 
BRANCH  15  16
ATOM     16  C   UNL     1       6.666   7.664 -11.727  0.00  0.00    +0.012 C 
BRANCH  16  17
ATOM     17  C   UNL     1       7.615   6.518 -11.518  0.00  0.00    +0.114 C 
BRANCH  17  18
ATOM     18  C   UNL     1       7.954   5.818 -12.795  0.00  0.00    +0.365 C 
ATOM     19  O   UNL     1       7.545   6.459 -13.968  0.00  0.00    -0.246 OA
ATOM     20  O   UNL     1       7.778   4.562 -12.791  0.00  0.00    -0.246 OA
ENDBRANCH  17  18
ENDBRANCH  16  17
ENDBRANCH  15  16
ENDBRANCH  14  15
ENDBRANCH  13  14
ENDBRANCH  12  13
ENDBRANCH  11  12
ENDBRANCH   1  11
TORSDOF 16
ENDMDL
MODEL 4
REMARK VINA RESULT:      -5.4      4.929      8.048
REMARK  Name = 
REMARK  16 active torsions:
REMARK  status: ('A' for Active; 'I' for Inactive)
REMARK    1  A    between atoms: C_2  and  C_3
REMARK    2  A    between atoms: C_3  and  C_4
REMARK    3  A    between atoms: C_4  and  C_5
REMARK    4  A    between atoms: C_5  and  C_6
REMARK    5  A    between atoms: C_6  and  C_7
REMARK    6  A    between atoms: C_7  and  C_8
REMARK    7  A    between atoms: C_8  and  C_9
REMARK    8  A    between atoms: C_9  and  C_10
REMARK    9  A    between atoms: C_10  and  C_11
REMARK   10  A    between atoms: C_11  and  C_12
REMARK   11  A    between atoms: C_12  and  C_13
REMARK   12  A    between atoms: C_13  and  C_14
REMARK   13  A    between atoms: C_14  and  C_15
REMARK   14  A    between atoms: C_15  and  C_16
REMARK   15  A    between atoms: C_16  and  C_17
REMARK   16  A    between atoms: C_17  and  C_18
REMARK                            x       y       z     vdW  Elec       q    Type
REMARK                         _______ _______ _______ _____ _____    ______ ____
ROOT
ATOM      1  C   UNL     1       4.450   5.879  -6.277  0.00  0.00    +0.000 C 
ENDROOT
BRANCH   1   2
ATOM      2  C   UNL     1       2.930   5.975  -6.319  0.00  0.00    +0.000 C 
BRANCH   2   3
ATOM      3  C   UNL     1       2.282   4.682  -5.893  0.00  0.00    +0.000 C 
BRANCH   3   4
ATOM      4  C   UNL     1       0.823   4.707  -6.255  0.00  0.00    +0.000 C 
BRANCH   4   5
ATOM      5  C   UNL     1       0.438   5.888  -7.100  0.00  0.00    +0.000 C 
BRANCH   5   6
ATOM      6  C   UNL     1      -0.262   5.430  -8.364  0.00  0.00    +0.000 C 
BRANCH   6   7
ATOM      7  C   UNL     1       0.741   4.836  -9.327  0.00  0.00    +0.000 C 
BRANCH   7   8
ATOM      8  C   UNL     1       0.504   5.422 -10.692  0.00  0.00    +0.000 C 
BRANCH   8  10
ATOM      9  C   UNL     1      -0.629   7.470 -11.611  0.00  0.00    +0.000 C 
ATOM     10  C   UNL     1       0.305   6.907 -10.578  0.00  0.00    +0.000 C 
ENDBRANCH   8  10
ENDBRANCH   7   8
ENDBRANCH   6   7
ENDBRANCH   5   6
ENDBRANCH   4   5
ENDBRANCH   3   4
ENDBRANCH   2   3
ENDBRANCH   1   2
BRANCH   1  11
ATOM     11  C   UNL     1       4.872   5.331  -7.633  0.00  0.00    +0.000 C 
BRANCH  11  12
ATOM     12  C   UNL     1       4.080   6.119  -8.668  0.00  0.00    +0.000 C 
BRANCH  12  13
ATOM     13  C   UNL     1       4.244   5.386  -9.992  0.00  0.00    +0.000 C 
BRANCH  13  14
ATOM     14  C   UNL     1       4.261   6.404 -11.110  0.00  0.00    +0.000 C 
BRANCH  14  15
ATOM     15  C   UNL     1       5.293   7.495 -10.876  0.00  0.00    +0.001 C 
BRANCH  15  16
ATOM     16  C   UNL     1       6.352   7.328 -11.943  0.00  0.00    +0.012 C 
BRANCH  16  17
ATOM     17  C   UNL     1       7.649   6.796 -11.404  0.00  0.00    +0.114 C 
BRANCH  17  18
ATOM     18  C   UNL     1       8.349   5.904 -12.380  0.00  0.00    +0.365 C 
ATOM     19  O   UNL     1       7.638   4.771 -12.787  0.00  0.00    -0.246 OA
ATOM     20  O   UNL     1       9.579   5.700 -12.147  0.00  0.00    -0.246 OA
ENDBRANCH  17  18
ENDBRANCH  16  17
ENDBRANCH  15  16
ENDBRANCH  14  15
ENDBRANCH  13  14
ENDBRANCH  12  13
ENDBRANCH  11  12
ENDBRANCH   1  11
TORSDOF 16
ENDMDL
MODEL 5
REMARK VINA RESULT:      -5.4      4.811      9.338
REMARK  Name = 
REMARK  16 active torsions:
REMARK  status: ('A' for Active; 'I' for Inactive)
REMARK    1  A    between atoms: C_2  and  C_3
REMARK    2  A    between atoms: C_3  and  C_4
REMARK    3  A    between atoms: C_4  and  C_5
REMARK    4  A    between atoms: C_5  and  C_6
REMARK    5  A    between atoms: C_6  and  C_7
REMARK    6  A    between atoms: C_7  and  C_8
REMARK    7  A    between atoms: C_8  and  C_9
REMARK    8  A    between atoms: C_9  and  C_10
REMARK    9  A    between atoms: C_10  and  C_11
REMARK   10  A    between atoms: C_11  and  C_12
REMARK   11  A    between atoms: C_12  and  C_13
REMARK   12  A    between atoms: C_13  and  C_14
REMARK   13  A    between atoms: C_14  and  C_15
REMARK   14  A    between atoms: C_15  and  C_16
REMARK   15  A    between atoms: C_16  and  C_17
REMARK   16  A    between atoms: C_17  and  C_18
REMARK                            x       y       z     vdW  Elec       q    Type
REMARK                         _______ _______ _______ _____ _____    ______ ____
ROOT
ATOM      1  C   UNL     1       1.443   6.723  -8.312  0.00  0.00    +0.000 C 
ENDROOT
BRANCH   1   2
ATOM      2  C   UNL     1       1.303   5.265  -7.893  0.00  0.00    +0.000 C 
BRANCH   2   3
ATOM      3  C   UNL     1       0.362   5.112  -6.726  0.00  0.00    +0.000 C 
BRANCH   3   4
ATOM      4  C   UNL     1      -1.044   5.404  -7.171  0.00  0.00    +0.000 C 
BRANCH   4   5
ATOM      5  C   UNL     1      -2.033   5.436  -6.041  0.00  0.00    +0.000 C 
BRANCH   5   6
ATOM      6  C   UNL     1      -2.577   6.839  -5.852  0.00  0.00    +0.000 C 
BRANCH   6   7
ATOM      7  C   UNL     1      -1.996   7.457  -4.600  0.00  0.00    +0.000 C 
BRANCH   7   8
ATOM      8  C   UNL     1      -1.482   6.356  -3.712  0.00  0.00    +0.000 C 
BRANCH   8  10
ATOM      9  C   UNL     1      -3.618   6.595  -2.407  0.00  0.00    +0.000 C 
ATOM     10  C   UNL     1      -2.122   6.460  -2.357  0.00  0.00    +0.000 C 
ENDBRANCH   8  10
ENDBRANCH   7   8
ENDBRANCH   6   7
ENDBRANCH   5   6
ENDBRANCH   4   5
ENDBRANCH   3   4
ENDBRANCH   2   3
ENDBRANCH   1   2
BRANCH   1  11
ATOM     11  C   UNL     1       2.840   6.857  -8.900  0.00  0.00    +0.000 C 
BRANCH  11  12
ATOM     12  C   UNL     1       3.653   5.707  -8.317  0.00  0.00    +0.000 C 
BRANCH  12  13
ATOM     13  C   UNL     1       4.731   5.374  -9.338  0.00  0.00    +0.000 C 
BRANCH  13  14
ATOM     14  C   UNL     1       6.072   5.363  -8.640  0.00  0.00    +0.000 C 
BRANCH  14  15
ATOM     15  C   UNL     1       7.202   5.788  -9.563  0.00  0.00    +0.001 C 
BRANCH  15  16
ATOM     16  C   UNL     1       6.588   6.678 -10.621  0.00  0.00    +0.012 C 
BRANCH  16  17
ATOM     17  C   UNL     1       7.409   6.751 -11.876  0.00  0.00    +0.114 C 
BRANCH  17  18
ATOM     18  C   UNL     1       8.306   5.566 -12.041  0.00  0.00    +0.365 C 
ATOM     19  O   UNL     1       9.662   5.850 -12.232  0.00  0.00    -0.246 OA
ATOM     20  O   UNL     1       7.852   4.637 -12.776  0.00  0.00    -0.246 OA
ENDBRANCH  17  18
ENDBRANCH  16  17
ENDBRANCH  15  16
ENDBRANCH  14  15
ENDBRANCH  13  14
ENDBRANCH  12  13
ENDBRANCH  11  12
ENDBRANCH   1  11
TORSDOF 16
ENDMDL
MODEL 6
REMARK VINA RESULT:      -5.4      4.803      8.447
REMARK  Name = 
REMARK  16 active torsions:
REMARK  status: ('A' for Active; 'I' for Inactive)
REMARK    1  A    between atoms: C_2  and  C_3
REMARK    2  A    between atoms: C_3  and  C_4
REMARK    3  A    between atoms: C_4  and  C_5
REMARK    4  A    between atoms: C_5  and  C_6
REMARK    5  A    between atoms: C_6  and  C_7
REMARK    6  A    between atoms: C_7  and  C_8
REMARK    7  A    between atoms: C_8  and  C_9
REMARK    8  A    between atoms: C_9  and  C_10
REMARK    9  A    between atoms: C_10  and  C_11
REMARK   10  A    between atoms: C_11  and  C_12
REMARK   11  A    between atoms: C_12  and  C_13
REMARK   12  A    between atoms: C_13  and  C_14
REMARK   13  A    between atoms: C_14  and  C_15
REMARK   14  A    between atoms: C_15  and  C_16
REMARK   15  A    between atoms: C_16  and  C_17
REMARK   16  A    between atoms: C_17  and  C_18
REMARK                            x       y       z     vdW  Elec       q    Type
REMARK                         _______ _______ _______ _____ _____    ______ ____
ROOT
ATOM      1  C   UNL     1       2.942   7.244  -6.597  0.00  0.00    +0.000 C 
ENDROOT
BRANCH   1   2
ATOM      2  C   UNL     1       2.870   5.790  -6.149  0.00  0.00    +0.000 C 
BRANCH   2   3
ATOM      3  C   UNL     1       2.715   5.679  -4.654  0.00  0.00    +0.000 C 
BRANCH   3   4
ATOM      4  C   UNL     1       1.825   6.785  -4.157  0.00  0.00    +0.000 C 
BRANCH   4   5
ATOM      5  C   UNL     1       0.404   6.354  -3.935  0.00  0.00    +0.000 C 
BRANCH   5   6
ATOM      6  C   UNL     1      -0.522   7.063  -4.904  0.00  0.00    +0.000 C 
BRANCH   6   7
ATOM      7  C   UNL     1      -1.813   6.289  -5.049  0.00  0.00    +0.000 C 
BRANCH   7   8
ATOM      8  C   UNL     1      -1.944   5.831  -6.476  0.00  0.00    +0.000 C 
BRANCH   8  10
ATOM      9  C   UNL     1      -0.439   5.340  -8.429  0.00  0.00    +0.000 C 
ATOM     10  C   UNL     1      -0.638   5.252  -6.943  0.00  0.00    +0.000 C 
ENDBRANCH   8  10
ENDBRANCH   7   8
ENDBRANCH   6   7
ENDBRANCH   5   6
ENDBRANCH   4   5
ENDBRANCH   3   4
ENDBRANCH   2   3
ENDBRANCH   1   2
BRANCH   1  11
ATOM     11  C   UNL     1       2.472   7.259  -8.045  0.00  0.00    +0.000 C 
BRANCH  11  12
ATOM     12  C   UNL     1       3.199   6.111  -8.734  0.00  0.00    +0.000 C 
BRANCH  12  13
ATOM     13  C   UNL     1       4.158   6.740  -9.734  0.00  0.00    +0.000 C 
BRANCH  13  14
ATOM     14  C   UNL     1       5.174   5.702 -10.149  0.00  0.00    +0.000 C 
BRANCH  14  15
ATOM     15  C   UNL     1       6.291   5.553  -9.129  0.00  0.00    +0.001 C 
BRANCH  15  16
ATOM     16  C   UNL     1       7.591   5.750  -9.876  0.00  0.00    +0.012 C 
BRANCH  16  17
ATOM     17  C   UNL     1       7.407   6.421 -11.207  0.00  0.00    +0.114 C 
BRANCH  17  18
ATOM     18  C   UNL     1       8.235   5.791 -12.282  0.00  0.00    +0.365 C 
ATOM     19  O   UNL     1       7.768   4.567 -12.771  0.00  0.00    -0.246 OA
ATOM     20  O   UNL     1       9.490   5.845 -12.106  0.00  0.00    -0.246 OA
ENDBRANCH  17  18
ENDBRANCH  16  17
ENDBRANCH  15  16
ENDBRANCH  14  15
ENDBRANCH  13  14
ENDBRANCH  12  13
ENDBRANCH  11  12
ENDBRANCH   1  11
TORSDOF 16
ENDMDL
MODEL 7
REMARK VINA RESULT:      -5.4      1.754      2.518
REMARK  Name = 
REMARK  16 active torsions:
REMARK  status: ('A' for Active; 'I' for Inactive)
REMARK    1  A    between atoms: C_2  and  C_3
REMARK    2  A    between atoms: C_3  and  C_4
REMARK    3  A    between atoms: C_4  and  C_5
REMARK    4  A    between atoms: C_5  and  C_6
REMARK    5  A    between atoms: C_6  and  C_7
REMARK    6  A    between atoms: C_7  and  C_8
REMARK    7  A    between atoms: C_8  and  C_9
REMARK    8  A    between atoms: C_9  and  C_10
REMARK    9  A    between atoms: C_10  and  C_11
REMARK   10  A    between atoms: C_11  and  C_12
REMARK   11  A    between atoms: C_12  and  C_13
REMARK   12  A    between atoms: C_13  and  C_14
REMARK   13  A    between atoms: C_14  and  C_15
REMARK   14  A    between atoms: C_15  and  C_16
REMARK   15  A    between atoms: C_16  and  C_17
REMARK   16  A    between atoms: C_17  and  C_18
REMARK                            x       y       z     vdW  Elec       q    Type
REMARK                         _______ _______ _______ _____ _____    ______ ____
ROOT
ATOM      1  C   UNL     1       2.237   4.646  -5.514  0.00  0.00    +0.000 C 
ENDROOT
BRANCH   1   2
ATOM      2  C   UNL     1       2.308   6.168  -5.501  0.00  0.00    +0.000 C 
BRANCH   2   3
ATOM      3  C   UNL     1       3.635   6.664  -6.016  0.00  0.00    +0.000 C 
BRANCH   3   4
ATOM      4  C   UNL     1       4.419   5.511  -6.578  0.00  0.00    +0.000 C 
BRANCH   4   5
ATOM      5  C   UNL     1       4.638   5.604  -8.061  0.00  0.00    +0.000 C 
BRANCH   5   6
ATOM      6  C   UNL     1       3.806   4.564  -8.785  0.00  0.00    +0.000 C 
BRANCH   6   7
ATOM      7  C   UNL     1       2.979   5.222  -9.866  0.00  0.00    +0.000 C 
BRANCH   7   8
ATOM      8  C   UNL     1       2.115   6.281  -9.236  0.00  0.00    +0.000 C 
BRANCH   8  10
ATOM      9  C   UNL     1       0.224   4.985 -10.268  0.00  0.00    +0.000 C 
ATOM     10  C   UNL     1       0.790   6.338  -9.942  0.00  0.00    +0.000 C 
ENDBRANCH   8  10
ENDBRANCH   7   8
ENDBRANCH   6   7
ENDBRANCH   5   6
ENDBRANCH   4   5
ENDBRANCH   3   4
ENDBRANCH   2   3
ENDBRANCH   1   2
BRANCH   1  11
ATOM     11  C   UNL     1       0.927   4.295  -6.205  0.00  0.00    +0.000 C 
BRANCH  11  12
ATOM     12  C   UNL     1       0.058   5.543  -6.116  0.00  0.00    +0.000 C 
BRANCH  12  13
ATOM     13  C   UNL     1      -1.205   5.252  -6.913  0.00  0.00    +0.000 C 
BRANCH  13  14
ATOM     14  C   UNL     1      -2.405   5.617  -6.070  0.00  0.00    +0.000 C 
BRANCH  14  15
ATOM     15  C   UNL     1      -2.140   6.830  -5.193  0.00  0.00    +0.001 C 
BRANCH  15  16
ATOM     16  C   UNL     1      -2.746   6.528  -3.840  0.00  0.00    +0.012 C 
BRANCH  16  17
ATOM     17  C   UNL     1      -2.099   5.358  -3.155  0.00  0.00    +0.114 C 
BRANCH  17  18
ATOM     18  C   UNL     1      -0.927   5.764  -2.319  0.00  0.00    +0.365 C 
ATOM     19  O   UNL     1      -0.348   4.750  -1.550  0.00  0.00    -0.246 OA
ATOM     20  O   UNL     1      -1.042   6.878  -1.724  0.00  0.00    -0.246 OA
ENDBRANCH  17  18
ENDBRANCH  16  17
ENDBRANCH  15  16
ENDBRANCH  14  15
ENDBRANCH  13  14
ENDBRANCH  12  13
ENDBRANCH  11  12
ENDBRANCH   1  11
TORSDOF 16
ENDMDL
MODEL 8
REMARK VINA RESULT:      -5.3      3.479      6.329
REMARK  Name = 
REMARK  16 active torsions:
REMARK  status: ('A' for Active; 'I' for Inactive)
REMARK    1  A    between atoms: C_2  and  C_3
REMARK    2  A    between atoms: C_3  and  C_4
REMARK    3  A    between atoms: C_4  and  C_5
REMARK    4  A    between atoms: C_5  and  C_6
REMARK    5  A    between atoms: C_6  and  C_7
REMARK    6  A    between atoms: C_7  and  C_8
REMARK    7  A    between atoms: C_8  and  C_9
REMARK    8  A    between atoms: C_9  and  C_10
REMARK    9  A    between atoms: C_10  and  C_11
REMARK   10  A    between atoms: C_11  and  C_12
REMARK   11  A    between atoms: C_12  and  C_13
REMARK   12  A    between atoms: C_13  and  C_14
REMARK   13  A    between atoms: C_14  and  C_15
REMARK   14  A    between atoms: C_15  and  C_16
REMARK   15  A    between atoms: C_16  and  C_17
REMARK   16  A    between atoms: C_17  and  C_18
REMARK                            x       y       z     vdW  Elec       q    Type
REMARK                         _______ _______ _______ _____ _____    ______ ____
ROOT
ATOM      1  C   UNL     1       7.022   6.757 -10.474  0.00  0.00    +0.000 C 
ENDROOT
BRANCH   1   2
ATOM      2  C   UNL     1       7.998   6.465 -11.607  0.00  0.00    +0.000 C 
BRANCH   2   3
ATOM      3  C   UNL     1       7.637   5.194 -12.334  0.00  0.00    +0.000 C 
BRANCH   3   4
ATOM      4  C   UNL     1       7.193   5.524 -13.732  0.00  0.00    +0.000 C 
BRANCH   4   5
ATOM      5  C   UNL     1       5.793   6.063 -13.803  0.00  0.00    +0.000 C 
BRANCH   5   6
ATOM      6  C   UNL     1       4.799   5.020 -13.331  0.00  0.00    +0.000 C 
BRANCH   6   7
ATOM      7  C   UNL     1       3.485   5.188 -14.060  0.00  0.00    +0.000 C 
BRANCH   7   8
ATOM      8  C   UNL     1       2.470   5.751 -13.102  0.00  0.00    +0.000 C 
BRANCH   8  10
ATOM      9  C   UNL     1       0.721   4.218 -14.055  0.00  0.00    +0.000 C 
ATOM     10  C   UNL     1       1.094   5.627 -13.693  0.00  0.00    +0.000 C 
ENDBRANCH   8  10
ENDBRANCH   7   8
ENDBRANCH   6   7
ENDBRANCH   5   6
ENDBRANCH   4   5
ENDBRANCH   3   4
ENDBRANCH   2   3
ENDBRANCH   1   2
BRANCH   1  11
ATOM     11  C   UNL     1       7.297   5.709  -9.405  0.00  0.00    +0.000 C 
BRANCH  11  12
ATOM     12  C   UNL     1       5.963   5.454  -8.715  0.00  0.00    +0.000 C 
BRANCH  12  13
ATOM     13  C   UNL     1       4.878   5.834  -9.712  0.00  0.00    +0.000 C 
BRANCH  13  14
ATOM     14  C   UNL     1       3.909   4.680  -9.836  0.00  0.00    +0.000 C 
BRANCH  14  15
ATOM     15  C   UNL     1       2.484   5.090  -9.503  0.00  0.00    +0.001 C 
BRANCH  15  16
ATOM     16  C   UNL     1       2.325   4.931  -8.007  0.00  0.00    +0.012 C 
BRANCH  16  17
ATOM     17  C   UNL     1       1.674   6.118  -7.356  0.00  0.00    +0.114 C 
BRANCH  17  18
ATOM     18  C   UNL     1       2.587   7.300  -7.283  0.00  0.00    +0.365 C 
ATOM     19  O   UNL     1       3.249   7.483  -6.065  0.00  0.00    -0.246 OA
ATOM     20  O   UNL     1       2.142   8.366  -7.808  0.00  0.00    -0.246 OA
ENDBRANCH  17  18
ENDBRANCH  16  17
ENDBRANCH  15  16
ENDBRANCH  14  15
ENDBRANCH  13  14
ENDBRANCH  12  13
ENDBRANCH  11  12
ENDBRANCH   1  11
TORSDOF 16
ENDMDL
MODEL 9
REMARK VINA RESULT:      -5.3      3.808      7.039
REMARK  Name = 
REMARK  16 active torsions:
REMARK  status: ('A' for Active; 'I' for Inactive)
REMARK    1  A    between atoms: C_2  and  C_3
REMARK    2  A    between atoms: C_3  and  C_4
REMARK    3  A    between atoms: C_4  and  C_5
REMARK    4  A    between atoms: C_5  and  C_6
REMARK    5  A    between atoms: C_6  and  C_7
REMARK    6  A    between atoms: C_7  and  C_8
REMARK    7  A    between atoms: C_8  and  C_9
REMARK    8  A    between atoms: C_9  and  C_10
REMARK    9  A    between atoms: C_10  and  C_11
REMARK   10  A    between atoms: C_11  and  C_12
REMARK   11  A    between atoms: C_12  and  C_13
REMARK   12  A    between atoms: C_13  and  C_14
REMARK   13  A    between atoms: C_14  and  C_15
REMARK   14  A    between atoms: C_15  and  C_16
REMARK   15  A    between atoms: C_16  and  C_17
REMARK   16  A    between atoms: C_17  and  C_18
REMARK                            x       y       z     vdW  Elec       q    Type
REMARK                         _______ _______ _______ _____ _____    ______ ____
ROOT
ATOM      1  C   UNL     1       3.885   7.170  -5.206  0.00  0.00    +0.000 C 
ENDROOT
BRANCH   1   2
ATOM      2  C   UNL     1       3.169   6.821  -3.908  0.00  0.00    +0.000 C 
BRANCH   2   3
ATOM      3  C   UNL     1       2.692   5.391  -3.906  0.00  0.00    +0.000 C 
BRANCH   3   4
ATOM      4  C   UNL     1       1.190   5.361  -3.954  0.00  0.00    +0.000 C 
BRANCH   4   5
ATOM      5  C   UNL     1       0.643   4.966  -5.296  0.00  0.00    +0.000 C 
BRANCH   5   6
ATOM      6  C   UNL     1      -0.610   5.760  -5.612  0.00  0.00    +0.000 C 
BRANCH   6   7
ATOM      7  C   UNL     1      -0.384   7.226  -5.316  0.00  0.00    +0.000 C 
BRANCH   7   8
ATOM      8  C   UNL     1      -1.603   7.771  -4.623  0.00  0.00    +0.000 C 
BRANCH   8  10
ATOM      9  C   UNL     1      -2.999   6.601  -2.890  0.00  0.00    +0.000 C 
ATOM     10  C   UNL     1      -2.560   6.651  -4.326  0.00  0.00    +0.000 C 
ENDBRANCH   8  10
ENDBRANCH   7   8
ENDBRANCH   6   7
ENDBRANCH   5   6
ENDBRANCH   4   5
ENDBRANCH   3   4
ENDBRANCH   2   3
ENDBRANCH   1   2
BRANCH   1  11
ATOM     11  C   UNL     1       4.141   5.845  -5.911  0.00  0.00    +0.000 C 
BRANCH  11  12
ATOM     12  C   UNL     1       3.712   6.050  -7.358  0.00  0.00    +0.000 C 
BRANCH  12  13
ATOM     13  C   UNL     1       2.799   7.267  -7.373  0.00  0.00    +0.000 C 
BRANCH  13  14
ATOM     14  C   UNL     1       1.857   7.152  -8.550  0.00  0.00    +0.000 C 
BRANCH  14  15
ATOM     15  C   UNL     1       1.453   5.712  -8.820  0.00  0.00    +0.001 C 
BRANCH  15  16
ATOM     16  C   UNL     1       0.069   5.756  -9.430  0.00  0.00    +0.012 C 
BRANCH  16  17
ATOM     17  C   UNL     1       0.065   5.441 -10.899  0.00  0.00    +0.114 C 
BRANCH  17  18
ATOM     18  C   UNL     1       0.130   6.671 -11.747  0.00  0.00    +0.365 C 
ATOM     19  O   UNL     1       1.325   6.865 -12.447  0.00  0.00    -0.246 OA
ATOM     20  O   UNL     1      -0.351   7.720 -11.222  0.00  0.00    -0.246 OA
ENDBRANCH  17  18
ENDBRANCH  16  17
ENDBRANCH  15  16
ENDBRANCH  14  15
ENDBRANCH  13  14
ENDBRANCH  12  13
ENDBRANCH  11  12
ENDBRANCH   1  11
TORSDOF 16
ENDMDL
