MODEL 1
REMARK VINA RESULT:      -8.6      0.000      0.000
REMARK  Name = 
REMARK  5 active torsions:
REMARK  status: ('A' for Active; 'I' for Inactive)
REMARK    1  A    between atoms: C_3  and  C_4
REMARK    2  A    between atoms: CA_5  and  C_6
REMARK    3  A    between atoms: CA_12  and  N_13
REMARK    4  A    between atoms: C_14  and  CA_16
REMARK    5  A    between atoms: CA_16  and  C_18
REMARK                            x       y       z     vdW  Elec       q    Type
REMARK                         _______ _______ _______ _____ _____    ______ ____
ROOT
ATOM      1  C   UNL     1      -0.103   5.716  -3.987  0.00  0.00    +0.009 C 
ATOM      2  C   UNL     1       1.280   6.210  -3.692  0.00  0.00    +0.087 C 
ATOM      3  S   UNL     1       2.360   5.878  -5.135  0.00  0.00    -0.114 S 
ATOM      4  C   UNL     1       1.445   4.369  -5.873  0.00  0.00    +0.157 C 
ATOM      5  N   UNL     1       0.312   5.275  -6.347  0.00  0.00    -0.242 N 
ATOM      6  C   UNL     1       1.096   5.910  -7.392  0.00  0.00    +0.253 C 
ATOM      7  O   UNL     1       0.654   6.399  -8.477  0.00  0.00    -0.273 OA
ATOM      8  CA  UNL     1       1.833   4.455  -7.530  0.00  0.00    +0.200 C 
ATOM      9  CA  UNL     1      -0.531   5.634  -5.245  0.00  0.00    +0.132 C 
ENDROOT
BRANCH   1  12
ATOM     10  C   UNL     1      -2.044   6.236  -1.089  0.00  0.00    +0.031 C 
ATOM     11  C   UNL     1      -1.428   6.262  -2.008  0.00  0.00    -0.026 C 
ATOM     12  C   UNL     1      -1.075   5.398  -2.949  0.00  0.00    -0.007 C 
ENDBRANCH   1  12
BRANCH   8  13
ATOM     13  N   UNL     1       3.321   5.033  -7.331  0.00  0.00    -0.194 NA
ATOM     14  C   UNL     1       4.126   4.996  -8.515  0.00  0.00    +0.264 C 
ATOM     15  O   UNL     1       3.849   4.024  -9.284  0.00  0.00    -0.271 OA
BRANCH  14  16
ATOM     16  CA  UNL     1       4.137   6.426  -9.348  0.00  0.00    +0.191 C 
ATOM     17  N   UNL     1       3.120   5.872 -10.473  0.00  0.00    -0.118 NA
BRANCH  16  18
ATOM     18  C   UNL     1       5.471   6.011 -10.219  0.00  0.00    +0.004 A 
ATOM     19  C   UNL     1       5.668   6.667 -11.376  0.00  0.00    +0.001 A 
ATOM     20  C   UNL     1       6.909   6.495 -11.981  0.00  0.00    +0.042 A 
ATOM     21  C   UNL     1       7.987   6.056 -11.221  0.00  0.00    +0.196 A 
ATOM     22  O   UNL     1       9.193   5.691 -11.824  0.00  0.00    -0.287 OA
ATOM     23  C   UNL     1       7.799   5.620  -9.918  0.00  0.00    +0.042 A 
ATOM     24  C   UNL     1       6.539   5.808  -9.373  0.00  0.00    +0.001 A 
ENDBRANCH  16  18
ENDBRANCH  14  16
ENDBRANCH   8  13
BRANCH   9  25
ATOM     25  C   UNL     1      -1.889   6.047  -5.601  0.00  0.00    +0.401 C 
ATOM     26  OXT UNL     1      -2.396   7.310  -5.295  0.00  0.00    -0.239 OA
ATOM     27  O   UNL     1      -2.655   5.171  -6.108  0.00  0.00    -0.239 OA
ENDBRANCH   9  25
TORSDOF 5
ENDMDL
MODEL 2
REMARK VINA RESULT:      -8.6      2.082      9.149
REMARK  Name = 
REMARK  5 active torsions:
REMARK  status: ('A' for Active; 'I' for Inactive)
REMARK    1  A    between atoms: C_3  and  C_4
REMARK    2  A    between atoms: CA_5  and  C_6
REMARK    3  A    between atoms: CA_12  and  N_13
REMARK    4  A    between atoms: C_14  and  CA_16
REMARK    5  A    between atoms: CA_16  and  C_18
REMARK                            x       y       z     vdW  Elec       q    Type
REMARK                         _______ _______ _______ _____ _____    ______ ____
ROOT
ATOM      1  C   UNL     1       5.185   5.910 -11.339  0.00  0.00    +0.009 C 
ATOM      2  C   UNL     1       3.805   6.474 -11.477  0.00  0.00    +0.087 C 
ATOM      3  S   UNL     1       2.816   6.015 -10.003  0.00  0.00    -0.114 S 
ATOM      4  C   UNL     1       3.722   4.407  -9.504  0.00  0.00    +0.157 C 
ATOM      5  N   UNL     1       4.918   5.220  -9.017  0.00  0.00    -0.242 N 
ATOM      6  C   UNL     1       4.233   5.757  -7.855  0.00  0.00    +0.253 C 
ATOM      7  O   UNL     1       4.767   6.109  -6.758  0.00  0.00    -0.273 OA
ATOM      8  CA  UNL     1       3.454   4.318  -7.824  0.00  0.00    +0.200 C 
ATOM      9  CA  UNL     1       5.696   5.675 -10.133  0.00  0.00    +0.132 C 
ENDROOT
BRANCH   1  12
ATOM     10  C   UNL     1       6.870   6.664 -14.343  0.00  0.00    +0.031 C 
ATOM     11  C   UNL     1       6.334   6.616 -13.377  0.00  0.00    -0.026 C 
ATOM     12  C   UNL     1       6.070   5.682 -12.474  0.00  0.00    -0.007 C 
ENDBRANCH   1  12
BRANCH   8  13
ATOM     13  N   UNL     1       1.978   4.958  -7.849  0.00  0.00    -0.194 NA
ATOM     14  C   UNL     1       1.222   4.733  -6.653  0.00  0.00    +0.264 C 
ATOM     15  O   UNL     1       1.500   3.634  -6.080  0.00  0.00    -0.271 OA
BRANCH  14  16
ATOM     16  CA  UNL     1       1.292   5.993  -5.584  0.00  0.00    +0.191 C 
ATOM     17  N   UNL     1       2.256   5.188  -4.571  0.00  0.00    -0.118 NA
BRANCH  16  18
ATOM     18  C   UNL     1      -0.077   5.522  -4.801  0.00  0.00    +0.004 A 
ATOM     19  C   UNL     1      -0.093   5.667  -3.464  0.00  0.00    +0.001 A 
ATOM     20  C   UNL     1      -1.325   5.504  -2.838  0.00  0.00    +0.042 A 
ATOM     21  C   UNL     1      -2.492   5.632  -3.581  0.00  0.00    +0.196 A 
ATOM     22  O   UNL     1      -3.733   5.291  -3.036  0.00  0.00    -0.287 OA
ATOM     23  C   UNL     1      -2.442   5.745  -4.961  0.00  0.00    +0.042 A 
ATOM     24  C   UNL     1      -1.185   5.894  -5.529  0.00  0.00    +0.001 A 
ENDBRANCH  16  18
ENDBRANCH  14  16
ENDBRANCH   8  13
BRANCH   9  25
ATOM     25  C   UNL     1       7.090   6.006  -9.833  0.00  0.00    +0.401 C 
ATOM     26  OXT UNL     1       7.647   7.250 -10.127  0.00  0.00    -0.239 OA
ATOM     27  O   UNL     1       7.832   5.076  -9.391  0.00  0.00    -0.239 OA
ENDBRANCH   9  25
TORSDOF 5
ENDMDL
MODEL 3
REMARK VINA RESULT:      -8.1      1.050      1.446
REMARK  Name = 
REMARK  5 active torsions:
REMARK  status: ('A' for Active; 'I' for Inactive)
REMARK    1  A    between atoms: C_3  and  C_4
REMARK    2  A    between atoms: CA_5  and  C_6
REMARK    3  A    between atoms: CA_12  and  N_13
REMARK    4  A    between atoms: C_14  and  CA_16
REMARK    5  A    between atoms: CA_16  and  C_18
REMARK                            x       y       z     vdW  Elec       q    Type
REMARK                         _______ _______ _______ _____ _____    ______ ____
ROOT
ATOM      1  C   UNL     1       1.214   6.091  -3.474  0.00  0.00    +0.009 C 
ATOM      2  C   UNL     1       2.627   6.585  -3.503  0.00  0.00    +0.087 C 
ATOM      3  S   UNL     1       3.373   6.182  -5.128  0.00  0.00    -0.114 S 
ATOM      4  C   UNL     1       2.323   4.650  -5.586  0.00  0.00    +0.157 C 
ATOM      5  N   UNL     1       1.115   5.545  -5.846  0.00  0.00    -0.242 N 
ATOM      6  C   UNL     1       1.657   6.127  -7.061  0.00  0.00    +0.253 C 
ATOM      7  O   UNL     1       0.992   6.574  -8.047  0.00  0.00    -0.273 OA
ATOM      8  CA  UNL     1       2.347   4.662  -7.289  0.00  0.00    +0.200 C 
ATOM      9  CA  UNL     1       0.526   5.959  -4.606  0.00  0.00    +0.132 C 
ENDROOT
BRANCH   1  12
ATOM     10  C   UNL     1       0.365   6.441  -0.069  0.00  0.00    +0.031 C 
ATOM     11  C   UNL     1       0.700   6.507  -1.121  0.00  0.00    -0.026 C 
ATOM     12  C   UNL     1       0.486   5.828  -2.239  0.00  0.00    -0.007 C 
ENDBRANCH   1  12
BRANCH   8  13
ATOM     13  N   UNL     1       3.843   5.234  -7.439  0.00  0.00    -0.194 NA
ATOM     14  C   UNL     1       4.366   5.165  -8.771  0.00  0.00    +0.264 C 
ATOM     15  O   UNL     1       3.923   4.177  -9.436  0.00  0.00    -0.271 OA
BRANCH  14  16
ATOM     16  CA  UNL     1       4.194   6.575  -9.619  0.00  0.00    +0.191 C 
ATOM     17  N   UNL     1       3.621   5.817 -10.924  0.00  0.00    -0.118 NA
BRANCH  16  18
ATOM     18  C   UNL     1       5.745   6.540 -10.166  0.00  0.00    +0.004 A 
ATOM     19  C   UNL     1       6.613   5.773  -9.482  0.00  0.00    +0.001 A 
ATOM     20  C   UNL     1       7.849   5.550 -10.082  0.00  0.00    +0.042 A 
ATOM     21  C   UNL     1       7.986   5.729 -11.454  0.00  0.00    +0.196 A 
ATOM     22  O   UNL     1       9.244   5.701 -12.061  0.00  0.00    -0.287 OA
ATOM     23  C   UNL     1       6.961   6.293 -12.197  0.00  0.00    +0.042 A 
ATOM     24  C   UNL     1       5.757   6.501 -11.542  0.00  0.00    +0.001 A 
ENDBRANCH  16  18
ENDBRANCH  14  16
ENDBRANCH   8  13
BRANCH   9  25
ATOM     25  C   UNL     1      -0.877   6.369  -4.682  0.00  0.00    +0.401 C 
ATOM     26  OXT UNL     1      -1.277   7.701  -4.576  0.00  0.00    -0.239 OA
ATOM     27  O   UNL     1      -1.754   5.453  -4.734  0.00  0.00    -0.239 OA
ENDBRANCH   9  25
TORSDOF 5
ENDMDL
MODEL 4
REMARK VINA RESULT:      -7.9      2.999      3.988
REMARK  Name = 
REMARK  5 active torsions:
REMARK  status: ('A' for Active; 'I' for Inactive)
REMARK    1  A    between atoms: C_3  and  C_4
REMARK    2  A    between atoms: CA_5  and  C_6
REMARK    3  A    between atoms: CA_12  and  N_13
REMARK    4  A    between atoms: C_14  and  CA_16
REMARK    5  A    between atoms: CA_16  and  C_18
REMARK                            x       y       z     vdW  Elec       q    Type
REMARK                         _______ _______ _______ _____ _____    ______ ____
ROOT
ATOM      1  C   UNL     1       2.704   6.432  -2.889  0.00  0.00    +0.009 C 
ATOM      2  C   UNL     1       3.442   7.328  -3.835  0.00  0.00    +0.087 C 
ATOM      3  S   UNL     1       3.247   6.691  -5.543  0.00  0.00    -0.114 S 
ATOM      4  C   UNL     1       2.970   4.838  -5.159  0.00  0.00    +0.157 C 
ATOM      5  N   UNL     1       1.575   5.147  -4.624  0.00  0.00    -0.242 N 
ATOM      6  C   UNL     1       1.011   5.450  -5.927  0.00  0.00    +0.253 C 
ATOM      7  O   UNL     1      -0.201   5.307  -6.278  0.00  0.00    -0.273 OA
ATOM      8  CA  UNL     1       2.040   4.305  -6.483  0.00  0.00    +0.200 C 
ATOM      9  CA  UNL     1       1.662   5.721  -3.312  0.00  0.00    +0.132 C 
ENDROOT
BRANCH   1  12
ATOM     10  C   UNL     1       4.675   6.635   0.029  0.00  0.00    +0.031 C 
ATOM     11  C   UNL     1       4.183   6.692  -0.960  0.00  0.00    -0.026 C 
ATOM     12  C   UNL     1       3.004   6.358  -1.464  0.00  0.00    -0.007 C 
ENDBRANCH   1  12
BRANCH   8  13
ATOM     13  N   UNL     1       2.731   5.258  -7.578  0.00  0.00    -0.194 NA
ATOM     14  C   UNL     1       2.308   5.007  -8.923  0.00  0.00    +0.264 C 
ATOM     15  O   UNL     1       2.010   3.792  -9.141  0.00  0.00    -0.271 OA
BRANCH  14  16
ATOM     16  CA  UNL     1       1.097   6.014  -9.430  0.00  0.00    +0.191 C 
ATOM     17  N   UNL     1       0.149   4.785  -9.872  0.00  0.00    -0.118 NA
BRANCH  16  18
ATOM     18  C   UNL     1       1.742   6.179 -10.935  0.00  0.00    +0.004 A 
ATOM     19  C   UNL     1       3.080   6.094 -11.036  0.00  0.00    +0.001 A 
ATOM     20  C   UNL     1       3.599   5.985 -12.322  0.00  0.00    +0.042 A 
ATOM     21  C   UNL     1       2.779   5.548 -13.356  0.00  0.00    +0.196 A 
ATOM     22  O   UNL     1       3.205   5.607 -14.685  0.00  0.00    -0.287 OA
ATOM     23  C   UNL     1       1.417   5.390 -13.158  0.00  0.00    +0.042 A 
ATOM     24  C   UNL     1       0.957   5.520 -11.856  0.00  0.00    +0.001 A 
ENDBRANCH  16  18
ENDBRANCH  14  16
ENDBRANCH   8  13
BRANCH   9  25
ATOM     25  C   UNL     1       0.457   5.596  -2.491  0.00  0.00    +0.401 C 
ATOM     26  OXT UNL     1       0.209   4.486  -1.684  0.00  0.00    -0.239 OA
ATOM     27  O   UNL     1      -0.435   6.490  -2.619  0.00  0.00    -0.239 OA
ENDBRANCH   9  25
TORSDOF 5
ENDMDL
MODEL 5
REMARK VINA RESULT:      -7.7      2.945      8.764
REMARK  Name = 
REMARK  5 active torsions:
REMARK  status: ('A' for Active; 'I' for Inactive)
REMARK    1  A    between atoms: C_3  and  C_4
REMARK    2  A    between atoms: CA_5  and  C_6
REMARK    3  A    between atoms: CA_12  and  N_13
REMARK    4  A    between atoms: C_14  and  CA_16
REMARK    5  A    between atoms: CA_16  and  C_18
REMARK                            x       y       z     vdW  Elec       q    Type
REMARK                         _______ _______ _______ _____ _____    ______ ____
ROOT
ATOM      1  C   UNL     1       1.813   6.307 -12.037  0.00  0.00    +0.009 C 
ATOM      2  C   UNL     1       0.590   6.940 -11.448  0.00  0.00    +0.087 C 
ATOM      3  S   UNL     1       0.424   6.418  -9.699  0.00  0.00    -0.114 S 
ATOM      4  C   UNL     1       1.336   4.739  -9.783  0.00  0.00    +0.157 C 
ATOM      5  N   UNL     1       2.673   5.461  -9.920  0.00  0.00    -0.242 N 
ATOM      6  C   UNL     1       2.691   5.941  -8.550  0.00  0.00    +0.253 C 
ATOM      7  O   UNL     1       3.721   6.188  -7.849  0.00  0.00    -0.273 OA
ATOM      8  CA  UNL     1       1.924   4.540  -8.197  0.00  0.00    +0.200 C 
ATOM      9  CA  UNL     1       2.833   5.962 -11.254  0.00  0.00    +0.132 C 
ENDROOT
BRANCH   1  12
ATOM     10  C   UNL     1       1.284   6.862 -15.479  0.00  0.00    +0.031 C 
ATOM     11  C   UNL     1       1.382   6.864 -14.377  0.00  0.00    -0.026 C 
ATOM     12  C   UNL     1       2.005   6.125 -13.470  0.00  0.00    -0.007 C 
ENDBRANCH   1  12
BRANCH   8  13
ATOM     13  N   UNL     1       0.680   5.243  -7.459  0.00  0.00    -0.194 NA
ATOM     14  C   UNL     1       0.642   5.031  -6.043  0.00  0.00    +0.264 C 
ATOM     15  O   UNL     1       1.125   3.911  -5.688  0.00  0.00    -0.271 OA
BRANCH  14  16
ATOM     16  CA  UNL     1       1.313   6.269  -5.174  0.00  0.00    +0.191 C 
ATOM     17  N   UNL     1       1.847   5.277  -4.018  0.00  0.00    -0.118 NA
BRANCH  16  18
ATOM     18  C   UNL     1      -0.091   6.590  -4.378  0.00  0.00    +0.004 A 
ATOM     19  C   UNL     1      -1.098   7.105  -5.105  0.00  0.00    +0.001 A 
ATOM     20  C   UNL     1      -2.347   7.144  -4.494  0.00  0.00    +0.042 A 
ATOM     21  C   UNL     1      -2.606   6.310  -3.412  0.00  0.00    +0.196 A 
ATOM     22  O   UNL     1      -3.772   6.452  -2.657  0.00  0.00    -0.287 OA
ATOM     23  C   UNL     1      -1.586   5.574  -2.829  0.00  0.00    +0.042 A 
ATOM     24  C   UNL     1      -0.361   5.583  -3.478  0.00  0.00    +0.001 A 
ENDBRANCH  16  18
ENDBRANCH  14  16
ENDBRANCH   8  13
BRANCH   9  25
ATOM     25  C   UNL     1       4.213   6.209 -11.672  0.00  0.00    +0.401 C 
ATOM     26  OXT UNL     1       4.944   5.296 -12.432  0.00  0.00    -0.239 OA
ATOM     27  O   UNL     1       4.786   7.248 -11.220  0.00  0.00    -0.239 OA
ENDBRANCH   9  25
TORSDOF 5
ENDMDL
MODEL 6
REMARK VINA RESULT:      -7.7      3.354      4.508
REMARK  Name = 
REMARK  5 active torsions:
REMARK  status: ('A' for Active; 'I' for Inactive)
REMARK    1  A    between atoms: C_3  and  C_4
REMARK    2  A    between atoms: CA_5  and  C_6
REMARK    3  A    between atoms: CA_12  and  N_13
REMARK    4  A    between atoms: C_14  and  CA_16
REMARK    5  A    between atoms: CA_16  and  C_18
REMARK                            x       y       z     vdW  Elec       q    Type
REMARK                         _______ _______ _______ _____ _____    ______ ____
ROOT
ATOM      1  C   UNL     1      -0.438   5.895  -2.152  0.00  0.00    +0.009 C 
ATOM      2  C   UNL     1      -1.376   5.358  -3.188  0.00  0.00    +0.087 C 
ATOM      3  S   UNL     1      -0.606   5.524  -4.843  0.00  0.00    -0.114 S 
ATOM      4  C   UNL     1       0.544   7.015  -4.507  0.00  0.00    +0.157 C 
ATOM      5  N   UNL     1       1.458   6.132  -3.663  0.00  0.00    -0.242 N 
ATOM      6  C   UNL     1       1.976   5.381  -4.793  0.00  0.00    +0.253 C 
ATOM      7  O   UNL     1       3.117   4.831  -4.877  0.00  0.00    -0.273 OA
ATOM      8  CA  UNL     1       1.812   6.783  -5.621  0.00  0.00    +0.200 C 
ATOM      9  CA  UNL     1       0.874   5.901  -2.374  0.00  0.00    +0.132 C 
ENDROOT
BRANCH   1  12
ATOM     10  C   UNL     1      -1.798   8.091   0.248  0.00  0.00    +0.031 C 
ATOM     11  C   UNL     1      -1.472   7.503  -0.630  0.00  0.00    -0.026 C 
ATOM     12  C   UNL     1      -0.874   6.338  -0.834  0.00  0.00    -0.007 C 
ENDBRANCH   1  12
BRANCH   8  13
ATOM     13  N   UNL     1       0.905   6.150  -6.789  0.00  0.00    -0.194 NA
ATOM     14  C   UNL     1       1.348   6.471  -8.113  0.00  0.00    +0.264 C 
ATOM     15  O   UNL     1       1.905   7.609  -8.198  0.00  0.00    -0.271 OA
BRANCH  14  16
ATOM     16  CA  UNL     1       2.295   5.296  -8.792  0.00  0.00    +0.191 C 
ATOM     17  N   UNL     1       3.587   6.261  -8.858  0.00  0.00    -0.118 NA
BRANCH  16  18
ATOM     18  C   UNL     1       1.821   5.672 -10.322  0.00  0.00    +0.004 A 
ATOM     19  C   UNL     1       2.794   5.937 -11.212  0.00  0.00    +0.001 A 
ATOM     20  C   UNL     1       2.409   6.010 -12.547  0.00  0.00    +0.042 A 
ATOM     21  C   UNL     1       1.221   5.413 -12.950  0.00  0.00    +0.196 A 
ATOM     22  O   UNL     1       0.708   5.625 -14.233  0.00  0.00    -0.287 OA
ATOM     23  C   UNL     1       0.334   4.903 -12.015  0.00  0.00    +0.042 A 
ATOM     24  C   UNL     1       0.770   4.866 -10.699  0.00  0.00    +0.001 A 
ENDBRANCH  16  18
ENDBRANCH  14  16
ENDBRANCH   8  13
BRANCH   9  25
ATOM     25  C   UNL     1       1.814   5.527  -1.317  0.00  0.00    +0.401 C 
ATOM     26  OXT UNL     1       1.820   4.263  -0.727  0.00  0.00    -0.239 OA
ATOM     27  O   UNL     1       2.570   6.437  -0.855  0.00  0.00    -0.239 OA
ENDBRANCH   9  25
TORSDOF 5
ENDMDL
MODEL 7
REMARK VINA RESULT:      -7.5      2.727      3.408
REMARK  Name = 
REMARK  5 active torsions:
REMARK  status: ('A' for Active; 'I' for Inactive)
REMARK    1  A    between atoms: C_3  and  C_4
REMARK    2  A    between atoms: CA_5  and  C_6
REMARK    3  A    between atoms: CA_12  and  N_13
REMARK    4  A    between atoms: C_14  and  CA_16
REMARK    5  A    between atoms: CA_16  and  C_18
REMARK                            x       y       z     vdW  Elec       q    Type
REMARK                         _______ _______ _______ _____ _____    ______ ____
ROOT
ATOM      1  C   UNL     1      -0.895   6.125  -4.291  0.00  0.00    +0.009 C 
ATOM      2  C   UNL     1      -1.402   5.573  -5.588  0.00  0.00    +0.087 C 
ATOM      3  S   UNL     1      -0.005   5.427  -6.766  0.00  0.00    -0.114 S 
ATOM      4  C   UNL     1       1.133   6.801  -6.077  0.00  0.00    +0.157 C 
ATOM      5  N   UNL     1       1.464   5.933  -4.866  0.00  0.00    -0.242 N 
ATOM      6  C   UNL     1       2.268   4.983  -5.615  0.00  0.00    +0.253 C 
ATOM      7  O   UNL     1       3.236   4.294  -5.168  0.00  0.00    -0.273 OA
ATOM      8  CA  UNL     1       2.689   6.274  -6.529  0.00  0.00    +0.200 C 
ATOM      9  CA  UNL     1       0.374   5.944  -3.934  0.00  0.00    +0.132 C 
ENDROOT
BRANCH   1  12
ATOM     10  C   UNL     1      -3.751   6.605  -2.278  0.00  0.00    +0.031 C 
ATOM     11  C   UNL     1      -2.905   6.272  -2.907  0.00  0.00    -0.026 C 
ATOM     12  C   UNL     1      -1.754   6.787  -3.316  0.00  0.00    -0.007 C 
ENDBRANCH   1  12
BRANCH   8  13
ATOM     13  N   UNL     1       2.250   5.607  -7.925  0.00  0.00    -0.194 NA
ATOM     14  C   UNL     1       2.983   6.085  -9.058  0.00  0.00    +0.264 C 
ATOM     15  O   UNL     1       3.354   7.294  -8.946  0.00  0.00    -0.271 OA
BRANCH  14  16
ATOM     16  CA  UNL     1       4.254   5.112  -9.478  0.00  0.00    +0.191 C 
ATOM     17  N   UNL     1       5.256   6.363  -9.668  0.00  0.00    -0.118 NA
BRANCH  16  18
ATOM     18  C   UNL     1       3.830   5.093 -11.068  0.00  0.00    +0.004 A 
ATOM     19  C   UNL     1       2.642   5.636 -11.387  0.00  0.00    +0.001 A 
ATOM     20  C   UNL     1       2.398   5.841 -12.741  0.00  0.00    +0.042 A 
ATOM     21  C   UNL     1       3.467   5.899 -13.628  0.00  0.00    +0.196 A 
ATOM     22  O   UNL     1       3.255   5.912 -15.009  0.00  0.00    -0.287 OA
ATOM     23  C   UNL     1       4.749   5.580 -13.210  0.00  0.00    +0.042 A 
ATOM     24  C   UNL     1       4.928   5.376 -11.850  0.00  0.00    +0.001 A 
ENDBRANCH  16  18
ENDBRANCH  14  16
ENDBRANCH   8  13
BRANCH   9  25
ATOM     25  C   UNL     1       0.723   5.603  -2.555  0.00  0.00    +0.401 C 
ATOM     26  OXT UNL     1       0.188   4.497  -1.895  0.00  0.00    -0.239 OA
ATOM     27  O   UNL     1       1.455   6.419  -1.916  0.00  0.00    -0.239 OA
ENDBRANCH   9  25
TORSDOF 5
ENDMDL
MODEL 8
REMARK VINA RESULT:      -7.3      3.572      4.534
REMARK  Name = 
REMARK  5 active torsions:
REMARK  status: ('A' for Active; 'I' for Inactive)
REMARK    1  A    between atoms: C_3  and  C_4
REMARK    2  A    between atoms: CA_5  and  C_6
REMARK    3  A    between atoms: CA_12  and  N_13
REMARK    4  A    between atoms: C_14  and  CA_16
REMARK    5  A    between atoms: CA_16  and  C_18
REMARK                            x       y       z     vdW  Elec       q    Type
REMARK                         _______ _______ _______ _____ _____    ______ ____
ROOT
ATOM      1  C   UNL     1      -1.302   5.961  -4.218  0.00  0.00    +0.009 C 
ATOM      2  C   UNL     1      -2.210   5.525  -5.325  0.00  0.00    +0.087 C 
ATOM      3  S   UNL     1      -1.227   5.294  -6.855  0.00  0.00    -0.114 S 
ATOM      4  C   UNL     1       0.204   6.511  -6.496  0.00  0.00    +0.157 C 
ATOM      5  N   UNL     1       0.764   5.558  -5.444  0.00  0.00    -0.242 N 
ATOM      6  C   UNL     1       1.215   4.568  -6.407  0.00  0.00    +0.253 C 
ATOM      7  O   UNL     1       2.188   3.765  -6.265  0.00  0.00    -0.273 OA
ATOM      8  CA  UNL     1       1.502   5.851  -7.381  0.00  0.00    +0.200 C 
ATOM      9  CA  UNL     1      -0.012   5.636  -4.240  0.00  0.00    +0.132 C 
ENDROOT
BRANCH   1  12
ATOM     10  C   UNL     1      -3.537   6.816  -1.627  0.00  0.00    +0.031 C 
ATOM     11  C   UNL     1      -2.931   6.384  -2.445  0.00  0.00    -0.026 C 
ATOM     12  C   UNL     1      -1.773   6.660  -3.028  0.00  0.00    -0.007 C 
ENDBRANCH   1  12
BRANCH   8  13
ATOM     13  N   UNL     1       0.617   5.299  -8.605  0.00  0.00    -0.194 NA
ATOM     14  C   UNL     1       0.863   5.960  -9.851  0.00  0.00    +0.264 C 
ATOM     15  O   UNL     1       1.191   7.180  -9.719  0.00  0.00    -0.271 OA
BRANCH  14  16
ATOM     16  CA  UNL     1       1.938   5.159 -10.820  0.00  0.00    +0.191 C 
ATOM     17  N   UNL     1       2.957   6.411 -10.864  0.00  0.00    -0.118 NA
BRANCH  16  18
ATOM     18  C   UNL     1       1.171   5.617 -12.202  0.00  0.00    +0.004 A 
ATOM     19  C   UNL     1       1.550   6.786 -12.748  0.00  0.00    +0.001 A 
ATOM     20  C   UNL     1       1.084   7.050 -14.033  0.00  0.00    +0.042 A 
ATOM     21  C   UNL     1       0.651   5.999 -14.833  0.00  0.00    +0.196 A 
ATOM     22  O   UNL     1       0.004   6.238 -16.047  0.00  0.00    -0.287 OA
ATOM     23  C   UNL     1       0.513   4.723 -14.308  0.00  0.00    +0.042 A 
ATOM     24  C   UNL     1       0.986   4.524 -13.020  0.00  0.00    +0.001 A 
ENDBRANCH  16  18
ENDBRANCH  14  16
ENDBRANCH   8  13
BRANCH   9  25
ATOM     25  C   UNL     1       0.672   5.197  -3.023  0.00  0.00    +0.401 C 
ATOM     26  OXT UNL     1       0.016   4.520  -1.995  0.00  0.00    -0.239 OA
ATOM     27  O   UNL     1       1.880   5.554  -2.868  0.00  0.00    -0.239 OA
ENDBRANCH   9  25
TORSDOF 5
ENDMDL
MODEL 9
REMARK VINA RESULT:      -7.2      3.287      8.244
REMARK  Name = 
REMARK  5 active torsions:
REMARK  status: ('A' for Active; 'I' for Inactive)
REMARK    1  A    between atoms: C_3  and  C_4
REMARK    2  A    between atoms: CA_5  and  C_6
REMARK    3  A    between atoms: CA_12  and  N_13
REMARK    4  A    between atoms: C_14  and  CA_16
REMARK    5  A    between atoms: CA_16  and  C_18
REMARK                            x       y       z     vdW  Elec       q    Type
REMARK                         _______ _______ _______ _____ _____    ______ ____
ROOT
ATOM      1  C   UNL     1       1.912   6.090 -11.997  0.00  0.00    +0.009 C 
ATOM      2  C   UNL     1       0.995   6.891 -11.125  0.00  0.00    +0.087 C 
ATOM      3  S   UNL     1       1.276   6.431  -9.373  0.00  0.00    -0.114 S 
ATOM      4  C   UNL     1       1.915   4.645  -9.615  0.00  0.00    +0.157 C 
ATOM      5  N   UNL     1       3.234   5.181 -10.164  0.00  0.00    -0.242 N 
ATOM      6  C   UNL     1       3.702   5.683  -8.884  0.00  0.00    +0.253 C 
ATOM      7  O   UNL     1       4.912   5.805  -8.516  0.00  0.00    -0.273 OA
ATOM      8  CA  UNL     1       2.905   4.402  -8.249  0.00  0.00    +0.200 C 
ATOM      9  CA  UNL     1       3.064   5.630 -11.515  0.00  0.00    +0.132 C 
ENDROOT
BRANCH   1  12
ATOM     10  C   UNL     1       0.532   6.672 -15.190  0.00  0.00    +0.031 C 
ATOM     11  C   UNL     1       0.935   6.674 -14.160  0.00  0.00    -0.026 C 
ATOM     12  C   UNL     1       1.662   5.855 -13.414  0.00  0.00    -0.007 C 
ENDBRANCH   1  12
BRANCH   8  13
ATOM     13  N   UNL     1       2.019   5.279  -7.233  0.00  0.00    -0.194 NA
ATOM     14  C   UNL     1       2.427   5.180  -5.864  0.00  0.00    +0.264 C 
ATOM     15  O   UNL     1       2.921   4.048  -5.565  0.00  0.00    -0.271 OA
BRANCH  14  16
ATOM     16  CA  UNL     1       3.428   6.407  -5.385  0.00  0.00    +0.191 C 
ATOM     17  N   UNL     1       4.588   5.388  -4.914  0.00  0.00    -0.118 NA
BRANCH  16  18
ATOM     18  C   UNL     1       2.761   6.486  -3.882  0.00  0.00    +0.004 A 
ATOM     19  C   UNL     1       1.442   6.239  -3.790  0.00  0.00    +0.001 A 
ATOM     20  C   UNL     1       0.933   6.063  -2.507  0.00  0.00    +0.042 A 
ATOM     21  C   UNL     1       1.794   5.723  -1.470  0.00  0.00    +0.196 A 
ATOM     22  O   UNL     1       1.358   5.723  -0.143  0.00  0.00    -0.287 OA
ATOM     23  C   UNL     1       3.167   5.731  -1.662  0.00  0.00    +0.042 A 
ATOM     24  C   UNL     1       3.614   5.922  -2.960  0.00  0.00    +0.001 A 
ENDBRANCH  16  18
ENDBRANCH  14  16
ENDBRANCH   8  13
BRANCH   9  25
ATOM     25  C   UNL     1       4.287   5.683 -12.318  0.00  0.00    +0.401 C 
ATOM     26  OXT UNL     1       4.684   4.639 -13.153  0.00  0.00    -0.239 OA
ATOM     27  O   UNL     1       5.057   6.677 -12.148  0.00  0.00    -0.239 OA
ENDBRANCH   9  25
TORSDOF 5
ENDMDL
