MODEL 1
REMARK VINA RESULT:      -7.5      0.000      0.000
REMARK  Name = 
REMARK  5 active torsions:
REMARK  status: ('A' for Active; 'I' for Inactive)
REMARK    1  A    between atoms: C_8  and  O_9
REMARK    2  A    between atoms: O_9  and  C_10
REMARK    3  A    between atoms: C_10  and  C_12
REMARK    4  A    between atoms: C_12  and  C_13
REMARK    5  A    between atoms: C_12  and  C_15
REMARK                            x       y       z     vdW  Elec       q    Type
REMARK                         _______ _______ _______ _____ _____    ______ ____
ROOT
ATOM      1  C   UNL     1       2.984   5.970  -8.811  0.00  0.00    +0.323 C 
ATOM      2  O   UNL     1       1.816   6.244  -9.053  0.00  0.00    -0.250 OA
ENDROOT
BRANCH   1   3
ATOM      3  O   UNL     1       2.934   5.004  -7.774  0.00  0.00    -0.452 OA
BRANCH   3   8
ATOM      4  C   UNL     1       2.383   6.965  -4.229  0.00  0.00    +0.090 C 
ATOM      5  N   UNL     1       2.755   6.576  -4.413  0.00  0.00    -0.274 NA
ATOM      6  C   UNL     1       4.048   7.196  -5.014  0.00  0.00    +0.061 C 
ATOM      7  C   UNL     1       4.196   6.136  -6.275  0.00  0.00    +0.060 C 
ATOM      8  C   UNL     1       2.599   5.779  -6.500  0.00  0.00    +0.172 C 
ATOM      9  C   UNL     1       2.734   4.436  -5.567  0.00  0.00    +0.060 C 
ATOM     10  C   UNL     1       5.029   6.398  -3.966  0.00  0.00    +0.017 C 
ATOM     11  C   UNL     1       4.707   5.103  -4.404  0.00  0.00    +0.017 C 
ATOM     12  C   UNL     1       3.100   5.087  -4.089  0.00  0.00    +0.061 C 
ENDBRANCH   3   8
ENDBRANCH   1   3
BRANCH   1  13
ATOM     13  C   UNL     1       3.818   5.297 -10.036  0.00  0.00    +0.154 C 
BRANCH  13  14
ATOM     14  C   UNL     1       5.106   6.271  -9.908  0.00  0.00    -0.009 A 
ATOM     15  C   UNL     1       5.363   7.010 -11.033  0.00  0.00    -0.004 A 
ATOM     16  C   UNL     1       6.592   7.669 -11.038  0.00  0.00    -0.000 A 
ATOM     17  C   UNL     1       7.672   6.904 -10.639  0.00  0.00    -0.000 A 
ATOM     18  C   UNL     1       7.450   5.985  -9.643  0.00  0.00    -0.000 A 
ATOM     19  C   UNL     1       6.153   5.624  -9.310  0.00  0.00    -0.004 A 
ENDBRANCH  13  14
BRANCH  13  20
ATOM     20  C   UNL     1       3.018   6.207 -11.082  0.00  0.00    +0.198 C 
ATOM     21  O   UNL     1       2.396   5.989 -12.097  0.00  0.00    -0.219 OA
ENDBRANCH  13  20
ENDBRANCH   1  13
TORSDOF 5
ENDMDL
MODEL 2
REMARK VINA RESULT:      -7.3      2.277      6.207
REMARK  Name = 
REMARK  5 active torsions:
REMARK  status: ('A' for Active; 'I' for Inactive)
REMARK    1  A    between atoms: C_8  and  O_9
REMARK    2  A    between atoms: O_9  and  C_10
REMARK    3  A    between atoms: C_10  and  C_12
REMARK    4  A    between atoms: C_12  and  C_13
REMARK    5  A    between atoms: C_12  and  C_15
REMARK                            x       y       z     vdW  Elec       q    Type
REMARK                         _______ _______ _______ _____ _____    ______ ____
ROOT
ATOM      1  C   UNL     1       3.309   5.431  -9.273  0.00  0.00    +0.323 C 
ATOM      2  O   UNL     1       2.709   6.018 -10.165  0.00  0.00    -0.250 OA
ENDROOT
BRANCH   1   3
ATOM      3  O   UNL     1       4.523   4.997  -9.864  0.00  0.00    -0.452 OA
BRANCH   3   8
ATOM      4  C   UNL     1       6.645   8.156 -11.360  0.00  0.00    +0.090 C 
ATOM      5  N   UNL     1       6.743   7.597 -11.317  0.00  0.00    -0.274 NA
ATOM      6  C   UNL     1       6.289   6.794 -12.569  0.00  0.00    +0.061 C 
ATOM      7  C   UNL     1       5.674   5.497 -11.747  0.00  0.00    +0.060 C 
ATOM      8  C   UNL     1       5.222   6.265 -10.357  0.00  0.00    +0.172 C 
ATOM      9  C   UNL     1       6.633   5.850  -9.629  0.00  0.00    +0.060 C 
ATOM     10  C   UNL     1       7.787   6.175 -12.830  0.00  0.00    +0.017 C 
ATOM     11  C   UNL     1       7.868   5.449 -11.630  0.00  0.00    +0.017 C 
ATOM     12  C   UNL     1       7.740   6.671 -10.548  0.00  0.00    +0.061 C 
ENDBRANCH   3   8
ENDBRANCH   1   3
BRANCH   1  13
ATOM     13  C   UNL     1       3.715   6.335  -7.983  0.00  0.00    +0.154 C 
BRANCH  13  14
ATOM     14  C   UNL     1       3.078   5.333  -6.879  0.00  0.00    -0.009 A 
ATOM     15  C   UNL     1       1.761   5.023  -7.099  0.00  0.00    -0.004 A 
ATOM     16  C   UNL     1       1.127   4.366  -6.046  0.00  0.00    -0.000 A 
ATOM     17  C   UNL     1       1.349   4.908  -4.793  0.00  0.00    -0.000 A 
ATOM     18  C   UNL     1       2.596   5.431  -4.555  0.00  0.00    -0.000 A 
ATOM     19  C   UNL     1       3.450   5.698  -5.614  0.00  0.00    -0.004 A 
ENDBRANCH  13  14
BRANCH  13  20
ATOM     20  C   UNL     1       2.398   7.222  -8.189  0.00  0.00    +0.198 C 
ATOM     21  O   UNL     1       2.073   8.345  -7.878  0.00  0.00    -0.219 OA
ENDBRANCH  13  20
ENDBRANCH   1  13
TORSDOF 5
ENDMDL
MODEL 3
REMARK VINA RESULT:      -7.3      1.057      1.598
REMARK  Name = 
REMARK  5 active torsions:
REMARK  status: ('A' for Active; 'I' for Inactive)
REMARK    1  A    between atoms: C_8  and  O_9
REMARK    2  A    between atoms: O_9  and  C_10
REMARK    3  A    between atoms: C_10  and  C_12
REMARK    4  A    between atoms: C_12  and  C_13
REMARK    5  A    between atoms: C_12  and  C_15
REMARK                            x       y       z     vdW  Elec       q    Type
REMARK                         _______ _______ _______ _____ _____    ______ ____
ROOT
ATOM      1  C   UNL     1       2.784   6.421  -9.709  0.00  0.00    +0.323 C 
ATOM      2  O   UNL     1       1.655   5.971  -9.558  0.00  0.00    -0.250 OA
ENDROOT
BRANCH   1   3
ATOM      3  O   UNL     1       3.238   6.735  -8.402  0.00  0.00    -0.452 OA
BRANCH   3   8
ATOM      4  C   UNL     1       1.221   4.566  -5.583  0.00  0.00    +0.090 C 
ATOM      5  N   UNL     1       1.639   4.952  -5.562  0.00  0.00    -0.274 NA
ATOM      6  C   UNL     1       1.124   6.409  -5.387  0.00  0.00    +0.061 C 
ATOM      7  C   UNL     1       2.198   7.114  -6.428  0.00  0.00    +0.060 C 
ATOM      8  C   UNL     1       2.433   5.844  -7.457  0.00  0.00    +0.172 C 
ATOM      9  C   UNL     1       3.777   5.384  -6.636  0.00  0.00    +0.060 C 
ATOM     10  C   UNL     1       1.989   6.648  -4.012  0.00  0.00    +0.017 C 
ATOM     11  C   UNL     1       3.257   6.511  -4.600  0.00  0.00    +0.017 C 
ATOM     12  C   UNL     1       3.148   4.976  -5.159  0.00  0.00    +0.061 C 
ENDBRANCH   3   8
ENDBRANCH   1   3
BRANCH   1  13
ATOM     13  C   UNL     1       3.874   5.394 -10.346  0.00  0.00    +0.154 C 
BRANCH  13  14
ATOM     14  C   UNL     1       5.160   6.343 -10.082  0.00  0.00    -0.009 A 
ATOM     15  C   UNL     1       5.485   7.153 -11.140  0.00  0.00    -0.004 A 
ATOM     16  C   UNL     1       6.717   7.796 -11.033  0.00  0.00    -0.000 A 
ATOM     17  C   UNL     1       7.768   6.994 -10.628  0.00  0.00    -0.000 A 
ATOM     18  C   UNL     1       7.484   6.012  -9.711  0.00  0.00    -0.000 A 
ATOM     19  C   UNL     1       6.168   5.644  -9.474  0.00  0.00    -0.004 A 
ENDBRANCH  13  14
BRANCH  13  20
ATOM     20  C   UNL     1       3.545   5.954 -11.810  0.00  0.00    +0.198 C 
ATOM     21  O   UNL     1       2.706   5.707 -12.646  0.00  0.00    -0.219 OA
ENDBRANCH  13  20
ENDBRANCH   1  13
TORSDOF 5
ENDMDL
MODEL 4
REMARK VINA RESULT:      -7.3      3.093      6.118
REMARK  Name = 
REMARK  5 active torsions:
REMARK  status: ('A' for Active; 'I' for Inactive)
REMARK    1  A    between atoms: C_8  and  O_9
REMARK    2  A    between atoms: O_9  and  C_10
REMARK    3  A    between atoms: C_10  and  C_12
REMARK    4  A    between atoms: C_12  and  C_13
REMARK    5  A    between atoms: C_12  and  C_15
REMARK                            x       y       z     vdW  Elec       q    Type
REMARK                         _______ _______ _______ _____ _____    ______ ____
ROOT
ATOM      1  C   UNL     1       3.657   5.304  -8.564  0.00  0.00    +0.323 C 
ATOM      2  O   UNL     1       4.187   5.296  -7.461  0.00  0.00    -0.250 OA
ENDROOT
BRANCH   1   3
ATOM      3  O   UNL     1       4.667   4.883  -9.467  0.00  0.00    -0.452 OA
BRANCH   3   8
ATOM      4  C   UNL     1       6.466   8.081 -11.270  0.00  0.00    +0.090 C 
ATOM      5  N   UNL     1       6.573   7.523 -11.255  0.00  0.00    -0.274 NA
ATOM      6  C   UNL     1       5.903   6.735 -12.417  0.00  0.00    +0.061 C 
ATOM      7  C   UNL     1       5.454   5.421 -11.519  0.00  0.00    +0.060 C 
ATOM      8  C   UNL     1       5.258   6.163 -10.057  0.00  0.00    +0.172 C 
ATOM      9  C   UNL     1       6.780   5.749  -9.605  0.00  0.00    +0.060 C 
ATOM     10  C   UNL     1       7.332   6.132 -12.955  0.00  0.00    +0.017 C 
ATOM     11  C   UNL     1       7.633   5.389 -11.802  0.00  0.00    +0.017 C 
ATOM     12  C   UNL     1       7.697   6.593 -10.696  0.00  0.00    +0.061 C 
ENDBRANCH   3   8
ENDBRANCH   1   3
BRANCH   1  13
ATOM     13  C   UNL     1       2.406   4.280  -8.754  0.00  0.00    +0.154 C 
BRANCH  13  14
ATOM     14  C   UNL     1       1.750   5.061 -10.013  0.00  0.00    -0.009 A 
ATOM     15  C   UNL     1       1.419   6.365  -9.752  0.00  0.00    -0.004 A 
ATOM     16  C   UNL     1       0.640   6.982 -10.730  0.00  0.00    -0.000 A 
ATOM     17  C   UNL     1      -0.431   6.238 -11.187  0.00  0.00    -0.000 A 
ATOM     18  C   UNL     1      -0.248   4.880 -11.286  0.00  0.00    -0.000 A 
ATOM     19  C   UNL     1       0.824   4.277 -10.647  0.00  0.00    -0.004 A 
ENDBRANCH  13  14
BRANCH  13  20
ATOM     20  C   UNL     1       1.591   5.066  -7.621  0.00  0.00    +0.198 C 
ATOM     21  O   UNL     1       1.013   4.740  -6.610  0.00  0.00    -0.219 OA
ENDBRANCH  13  20
ENDBRANCH   1  13
TORSDOF 5
ENDMDL
MODEL 5
REMARK VINA RESULT:      -7.3      3.322      5.175
REMARK  Name = 
REMARK  5 active torsions:
REMARK  status: ('A' for Active; 'I' for Inactive)
REMARK    1  A    between atoms: C_8  and  O_9
REMARK    2  A    between atoms: O_9  and  C_10
REMARK    3  A    between atoms: C_10  and  C_12
REMARK    4  A    between atoms: C_12  and  C_13
REMARK    5  A    between atoms: C_12  and  C_15
REMARK                            x       y       z     vdW  Elec       q    Type
REMARK                         _______ _______ _______ _____ _____    ______ ____
ROOT
ATOM      1  C   UNL     1       1.384   4.861  -5.869  0.00  0.00    +0.323 C 
ATOM      2  O   UNL     1       1.650   3.681  -6.052  0.00  0.00    -0.250 OA
ENDROOT
BRANCH   1   3
ATOM      3  O   UNL     1       0.748   4.909  -4.602  0.00  0.00    -0.452 OA
BRANCH   3   8
ATOM      4  C   UNL     1      -1.741   8.150  -4.451  0.00  0.00    +0.090 C 
ATOM      5  N   UNL     1      -1.818   7.588  -4.407  0.00  0.00    -0.274 NA
ATOM      6  C   UNL     1      -1.752   7.068  -2.943  0.00  0.00    +0.061 C 
ATOM      7  C   UNL     1      -0.913   5.681  -3.274  0.00  0.00    +0.060 C 
ATOM      8  C   UNL     1      -0.072   6.199  -4.597  0.00  0.00    +0.172 C 
ATOM      9  C   UNL     1      -1.201   5.564  -5.605  0.00  0.00    +0.060 C 
ATOM     10  C   UNL     1      -3.257   6.412  -3.010  0.00  0.00    +0.017 C 
ATOM     11  C   UNL     1      -2.972   5.469  -4.011  0.00  0.00    +0.017 C 
ATOM     12  C   UNL     1      -2.536   6.470  -5.230  0.00  0.00    +0.061 C 
ENDBRANCH   3   8
ENDBRANCH   1   3
BRANCH   1  13
ATOM     13  C   UNL     1       2.661   5.868  -5.788  0.00  0.00    +0.154 C 
BRANCH  13  14
ATOM     14  C   UNL     1       3.233   5.519  -7.263  0.00  0.00    -0.009 A 
ATOM     15  C   UNL     1       4.600   5.429  -7.326  0.00  0.00    -0.004 A 
ATOM     16  C   UNL     1       5.127   5.372  -8.615  0.00  0.00    -0.000 A 
ATOM     17  C   UNL     1       4.608   6.291  -9.507  0.00  0.00    -0.000 A 
ATOM     18  C   UNL     1       3.275   6.595  -9.381  0.00  0.00    -0.000 A 
ATOM     19  C   UNL     1       2.592   6.253  -8.224  0.00  0.00    -0.004 A 
ENDBRANCH  13  14
BRANCH  13  20
ATOM     20  C   UNL     1       3.497   4.745  -5.010  0.00  0.00    +0.198 C 
ATOM     21  O   UNL     1       4.049   4.689  -3.935  0.00  0.00    -0.219 OA
ENDBRANCH  13  20
ENDBRANCH   1  13
TORSDOF 5
ENDMDL
MODEL 6
REMARK VINA RESULT:      -7.2      2.311      6.215
REMARK  Name = 
REMARK  5 active torsions:
REMARK  status: ('A' for Active; 'I' for Inactive)
REMARK    1  A    between atoms: C_8  and  O_9
REMARK    2  A    between atoms: O_9  and  C_10
REMARK    3  A    between atoms: C_10  and  C_12
REMARK    4  A    between atoms: C_12  and  C_13
REMARK    5  A    between atoms: C_12  and  C_15
REMARK                            x       y       z     vdW  Elec       q    Type
REMARK                         _______ _______ _______ _____ _____    ______ ____
ROOT
ATOM      1  C   UNL     1       3.954   4.705  -7.968  0.00  0.00    +0.323 C 
ATOM      2  O   UNL     1       3.490   4.207  -8.986  0.00  0.00    -0.250 OA
ENDROOT
BRANCH   1   3
ATOM      3  O   UNL     1       4.929   5.633  -8.418  0.00  0.00    -0.452 OA
BRANCH   3   8
ATOM      4  C   UNL     1       5.487   5.347 -12.458  0.00  0.00    +0.090 C 
ATOM      5  N   UNL     1       5.673   5.704 -12.056  0.00  0.00    -0.274 NA
ATOM      6  C   UNL     1       7.034   5.281 -11.435  0.00  0.00    +0.061 C 
ATOM      7  C   UNL     1       6.660   5.679  -9.874  0.00  0.00    +0.060 C 
ATOM      8  C   UNL     1       5.028   5.431  -9.930  0.00  0.00    +0.172 C 
ATOM      9  C   UNL     1       4.763   7.023 -10.227  0.00  0.00    +0.060 C 
ATOM     10  C   UNL     1       7.762   6.698 -11.834  0.00  0.00    +0.017 C 
ATOM     11  C   UNL     1       6.951   7.521 -11.035  0.00  0.00    +0.017 C 
ATOM     12  C   UNL     1       5.489   7.215 -11.704  0.00  0.00    +0.061 C 
ENDBRANCH   3   8
ENDBRANCH   1   3
BRANCH   1  13
ATOM     13  C   UNL     1       2.903   5.542  -7.050  0.00  0.00    +0.154 C 
BRANCH  13  14
ATOM     14  C   UNL     1       3.967   5.909  -5.884  0.00  0.00    -0.009 A 
ATOM     15  C   UNL     1       4.208   4.885  -5.004  0.00  0.00    -0.004 A 
ATOM     16  C   UNL     1       4.924   5.246  -3.864  0.00  0.00    -0.000 A 
ATOM     17  C   UNL     1       4.496   6.401  -3.238  0.00  0.00    -0.000 A 
ATOM     18  C   UNL     1       4.041   7.414  -4.046  0.00  0.00    -0.000 A 
ATOM     19  C   UNL     1       3.721   7.154  -5.370  0.00  0.00    -0.004 A 
ENDBRANCH  13  14
BRANCH  13  20
ATOM     20  C   UNL     1       2.390   4.176  -6.391  0.00  0.00    +0.198 C 
ATOM     21  O   UNL     1       1.305   3.728  -6.099  0.00  0.00    -0.219 OA
ENDBRANCH  13  20
ENDBRANCH   1  13
TORSDOF 5
ENDMDL
MODEL 7
REMARK VINA RESULT:      -7.2      3.443      5.269
REMARK  Name = 
REMARK  5 active torsions:
REMARK  status: ('A' for Active; 'I' for Inactive)
REMARK    1  A    between atoms: C_8  and  O_9
REMARK    2  A    between atoms: O_9  and  C_10
REMARK    3  A    between atoms: C_10  and  C_12
REMARK    4  A    between atoms: C_12  and  C_13
REMARK    5  A    between atoms: C_12  and  C_15
REMARK                            x       y       z     vdW  Elec       q    Type
REMARK                         _______ _______ _______ _____ _____    ______ ____
ROOT
ATOM      1  C   UNL     1       1.917   4.897  -7.196  0.00  0.00    +0.323 C 
ATOM      2  O   UNL     1       2.218   4.146  -8.115  0.00  0.00    -0.250 OA
ENDROOT
BRANCH   1   3
ATOM      3  O   UNL     1       3.149   5.417  -6.721  0.00  0.00    -0.452 OA
BRANCH   3   8
ATOM      4  C   UNL     1       3.125   5.707  -2.642  0.00  0.00    +0.090 C 
ATOM      5  N   UNL     1       3.478   5.886  -3.051  0.00  0.00    -0.274 NA
ATOM      6  C   UNL     1       3.161   7.323  -3.554  0.00  0.00    +0.061 C 
ATOM      7  C   UNL     1       3.439   7.027  -5.157  0.00  0.00    +0.060 C 
ATOM      8  C   UNL     1       3.035   5.426  -5.197  0.00  0.00    +0.172 C 
ATOM      9  C   UNL     1       4.606   4.990  -5.010  0.00  0.00    +0.060 C 
ATOM     10  C   UNL     1       4.661   7.883  -3.190  0.00  0.00    +0.017 C 
ATOM     11  C   UNL     1       5.358   7.057  -4.087  0.00  0.00    +0.017 C 
ATOM     12  C   UNL     1       4.944   5.586  -3.501  0.00  0.00    +0.061 C 
ENDBRANCH   3   8
ENDBRANCH   1   3
BRANCH   1  13
ATOM     13  C   UNL     1       0.997   6.176  -7.603  0.00  0.00    +0.154 C 
BRANCH  13  14
ATOM     14  C   UNL     1      -0.164   5.892  -6.509  0.00  0.00    -0.009 A 
ATOM     15  C   UNL     1      -1.354   5.480  -7.050  0.00  0.00    -0.004 A 
ATOM     16  C   UNL     1      -2.430   5.463  -6.163  0.00  0.00    -0.000 A 
ATOM     17  C   UNL     1      -2.561   6.589  -5.373  0.00  0.00    -0.000 A 
ATOM     18  C   UNL     1      -1.401   7.190  -4.950  0.00  0.00    -0.000 A 
ATOM     19  C   UNL     1      -0.196   6.879  -5.561  0.00  0.00    -0.004 A 
ENDBRANCH  13  14
BRANCH  13  20
ATOM     20  C   UNL     1       0.332   5.323  -8.784  0.00  0.00    +0.198 C 
ATOM     21  O   UNL     1       0.148   5.507  -9.965  0.00  0.00    -0.219 OA
ENDBRANCH  13  20
ENDBRANCH   1  13
TORSDOF 5
ENDMDL
MODEL 8
REMARK VINA RESULT:      -7.2      5.083      7.309
REMARK  Name = 
REMARK  5 active torsions:
REMARK  status: ('A' for Active; 'I' for Inactive)
REMARK    1  A    between atoms: C_8  and  O_9
REMARK    2  A    between atoms: O_9  and  C_10
REMARK    3  A    between atoms: C_10  and  C_12
REMARK    4  A    between atoms: C_12  and  C_13
REMARK    5  A    between atoms: C_12  and  C_15
REMARK                            x       y       z     vdW  Elec       q    Type
REMARK                         _______ _______ _______ _____ _____    ______ ____
ROOT
ATOM      1  C   UNL     1       1.508   5.527  -1.669  0.00  0.00    +0.323 C 
ATOM      2  O   UNL     1       1.206   4.599  -0.930  0.00  0.00    -0.250 OA
ENDROOT
BRANCH   1   3
ATOM      3  O   UNL     1       0.463   6.475  -1.525  0.00  0.00    -0.452 OA
BRANCH   3   8
ATOM      4  C   UNL     1      -2.881   5.031  -3.382  0.00  0.00    +0.090 C 
ATOM      5  N   UNL     1      -2.619   5.536  -3.374  0.00  0.00    -0.274 NA
ATOM      6  C   UNL     1      -1.573   5.706  -4.512  0.00  0.00    +0.061 C 
ATOM      7  C   UNL     1      -0.431   6.483  -3.603  0.00  0.00    +0.060 C 
ATOM      8  C   UNL     1      -0.778   5.820  -2.131  0.00  0.00    +0.172 C 
ATOM      9  C   UNL     1      -1.727   7.101  -1.741  0.00  0.00    +0.060 C 
ATOM     10  C   UNL     1      -2.304   7.050  -5.109  0.00  0.00    +0.017 C 
ATOM     11  C   UNL     1      -2.111   7.851  -3.972  0.00  0.00    +0.017 C 
ATOM     12  C   UNL     1      -2.939   6.977  -2.863  0.00  0.00    +0.061 C 
ENDBRANCH   3   8
ENDBRANCH   1   3
BRANCH   1  13
ATOM     13  C   UNL     1       2.892   6.300  -1.301  0.00  0.00    +0.154 C 
BRANCH  13  14
ATOM     14  C   UNL     1       3.191   6.819  -2.806  0.00  0.00    -0.009 A 
ATOM     15  C   UNL     1       3.210   5.822  -3.748  0.00  0.00    -0.004 A 
ATOM     16  C   UNL     1       3.699   6.202  -4.997  0.00  0.00    -0.000 A 
ATOM     17  C   UNL     1       4.867   6.942  -4.974  0.00  0.00    -0.000 A 
ATOM     18  C   UNL     1       5.021   7.829  -3.937  0.00  0.00    -0.000 A 
ATOM     19  C   UNL     1       4.210   7.733  -2.817  0.00  0.00    -0.004 A 
ENDBRANCH  13  14
BRANCH  13  20
ATOM     20  C   UNL     1       3.697   4.922  -1.431  0.00  0.00    +0.198 C 
ATOM     21  O   UNL     1       4.469   4.319  -0.721  0.00  0.00    -0.219 OA
ENDBRANCH  13  20
ENDBRANCH   1  13
TORSDOF 5
ENDMDL
MODEL 9
REMARK VINA RESULT:      -7.1      1.590      2.729
REMARK  Name = 
REMARK  5 active torsions:
REMARK  status: ('A' for Active; 'I' for Inactive)
REMARK    1  A    between atoms: C_8  and  O_9
REMARK    2  A    between atoms: O_9  and  C_10
REMARK    3  A    between atoms: C_10  and  C_12
REMARK    4  A    between atoms: C_12  and  C_13
REMARK    5  A    between atoms: C_12  and  C_15
REMARK                            x       y       z     vdW  Elec       q    Type
REMARK                         _______ _______ _______ _____ _____    ______ ____
ROOT
ATOM      1  C   UNL     1       2.937   6.488 -11.038  0.00  0.00    +0.323 C 
ATOM      2  O   UNL     1       2.391   6.481 -12.133  0.00  0.00    -0.250 OA
ENDROOT
BRANCH   1   3
ATOM      3  O   UNL     1       1.901   6.235 -10.102  0.00  0.00    -0.452 OA
BRANCH   3   8
ATOM      4  C   UNL     1       3.441   5.278  -6.437  0.00  0.00    +0.090 C 
ATOM      5  N   UNL     1       2.964   5.533  -6.613  0.00  0.00    -0.274 NA
ATOM      6  C   UNL     1       1.778   4.548  -6.816  0.00  0.00    +0.061 C 
ATOM      7  C   UNL     1       1.190   5.243  -8.196  0.00  0.00    +0.060 C 
ATOM      8  C   UNL     1       2.602   5.851  -8.799  0.00  0.00    +0.172 C 
ATOM      9  C   UNL     1       2.298   7.316  -8.126  0.00  0.00    +0.060 C 
ATOM     10  C   UNL     1       0.809   5.350  -5.759  0.00  0.00    +0.017 C 
ATOM     11  C   UNL     1       0.744   6.549  -6.487  0.00  0.00    +0.017 C 
ATOM     12  C   UNL     1       2.329   6.957  -6.509  0.00  0.00    +0.061 C 
ENDBRANCH   3   8
ENDBRANCH   1   3
BRANCH   1  13
ATOM     13  C   UNL     1       4.067   5.340 -10.804  0.00  0.00    +0.154 C 
BRANCH  13  14
ATOM     14  C   UNL     1       5.239   6.360 -10.345  0.00  0.00    -0.009 A 
ATOM     15  C   UNL     1       5.632   7.237 -11.322  0.00  0.00    -0.004 A 
ATOM     16  C   UNL     1       6.793   7.956 -11.037  0.00  0.00    -0.000 A 
ATOM     17  C   UNL     1       7.840   7.208 -10.532  0.00  0.00    -0.000 A 
ATOM     18  C   UNL     1       7.517   6.169  -9.695  0.00  0.00    -0.000 A 
ATOM     19  C   UNL     1       6.212   5.704  -9.640  0.00  0.00    -0.004 A 
ENDBRANCH  13  14
BRANCH  13  20
ATOM     20  C   UNL     1       4.418   5.367 -12.366  0.00  0.00    +0.198 C 
ATOM     21  O   UNL     1       4.841   4.555 -13.156  0.00  0.00    -0.219 OA
ENDBRANCH  13  20
ENDBRANCH   1  13
TORSDOF 5
ENDMDL
