MODEL 1
REMARK VINA RESULT:     -10.3      0.000      0.000
REMARK  Name = 
REMARK  5 active torsions:
REMARK  status: ('A' for Active; 'I' for Inactive)
REMARK    1  A    between atoms: C_9  and  C_10
REMARK    2  A    between atoms: C_20  and  C_21
REMARK    3  A    between atoms: C_21  and  C_23
REMARK    4  A    between atoms: C_24  and  C_25
REMARK    5  A    between atoms: C_25  and  C_27
REMARK                            x       y       z     vdW  Elec       q    Type
REMARK                         _______ _______ _______ _____ _____    ______ ____
ROOT
ATOM      1  C   UNL     1      -0.064   6.637  -5.934  0.00  0.00    -0.009 C 
ATOM      2  C   UNL     1       0.671   5.969  -6.842  0.00  0.00    -0.045 C 
ATOM      3  C   UNL     1       1.757   6.855  -7.622  0.00  0.00    +0.018 C 
ATOM      4  C   UNL     1       1.177   6.535  -9.113  0.00  0.00    +0.004 C 
ATOM      5  C   UNL     1       2.400   6.320  -9.936  0.00  0.00    +0.001 C 
ATOM      6  C   UNL     1       3.638   6.411  -8.903  0.00  0.00    +0.004 C 
ATOM      7  C   UNL     1       2.796   5.617  -7.793  0.00  0.00    +0.004 C 
ATOM      8  C   UNL     1       2.187   4.490  -8.476  0.00  0.00    +0.000 C 
ATOM      9  C   UNL     1       3.448   5.528  -6.524  0.00  0.00    +0.001 C 
ATOM     10  C   UNL     1       2.496   4.685  -5.685  0.00  0.00    +0.004 C 
ATOM     11  C   UNL     1       1.111   4.685  -6.237  0.00  0.00    +0.022 C 
ENDROOT
BRANCH   1  15
ATOM     12  C   UNL     1      -1.560   8.310  -4.950  0.00  0.00    -0.005 C 
ATOM     13  C   UNL     1      -1.969   7.606  -4.087  0.00  0.00    -0.026 C 
ATOM     14  C   UNL     1      -1.723   6.167  -4.257  0.00  0.00    -0.024 C 
ATOM     15  C   UNL     1      -1.191   5.820  -5.431  0.00  0.00    -0.005 C 
ATOM     16  C   UNL     1      -2.096   5.141  -3.266  0.00  0.00    +0.059 C 
ATOM     17  C   UNL     1      -3.029   5.947  -2.175  0.00  0.00    +0.157 C 
ATOM     18  O   UNL     1      -2.638   4.983  -1.067  0.00  0.00    -0.223 OA
ATOM     19  C   UNL     1      -1.806   6.976  -1.766  0.00  0.00    +0.038 C 
ATOM     20  C   UNL     1      -1.995   8.160  -2.694  0.00  0.00    +0.029 C 
ENDBRANCH   1  15
BRANCH   6  21
ATOM     21  C   UNL     1       4.346   4.965  -9.459  0.00  0.00    +0.022 C 
ATOM     22  C   UNL     1       5.812   5.395  -8.905  0.00  0.00    +0.005 C 
BRANCH  21  23
ATOM     23  C   UNL     1       4.640   5.527 -10.915  0.00  0.00    -0.031 C 
ATOM     24  C   UNL     1       5.825   5.459 -11.430  0.00  0.00    -0.031 C 
BRANCH  24  25
ATOM     25  C   UNL     1       5.836   6.319 -12.792  0.00  0.00    +0.022 C 
ATOM     26  C   UNL     1       6.844   5.264 -13.529  0.00  0.00    +0.005 C 
BRANCH  25  27
ATOM     27  C   UNL     1       7.005   7.315 -12.247  0.00  0.00    +0.004 C 
ATOM     28  C   UNL     1       8.044   6.364 -11.752  0.00  0.00    +0.000 C 
ATOM     29  C   UNL     1       6.518   8.315 -11.319  0.00  0.00    +0.000 C 
ENDBRANCH  25  27
ENDBRANCH  24  25
ENDBRANCH  21  23
ENDBRANCH   6  21
TORSDOF 5
ENDMDL
MODEL 2
REMARK VINA RESULT:     -10.0      3.067      9.565
REMARK  Name = 
REMARK  5 active torsions:
REMARK  status: ('A' for Active; 'I' for Inactive)
REMARK    1  A    between atoms: C_9  and  C_10
REMARK    2  A    between atoms: C_20  and  C_21
REMARK    3  A    between atoms: C_21  and  C_23
REMARK    4  A    between atoms: C_24  and  C_25
REMARK    5  A    between atoms: C_25  and  C_27
REMARK                            x       y       z     vdW  Elec       q    Type
REMARK                         _______ _______ _______ _____ _____    ______ ____
ROOT
ATOM      1  C   UNL     1       4.517   5.289  -8.644  0.00  0.00    -0.009 C 
ATOM      2  C   UNL     1       3.213   5.294  -8.311  0.00  0.00    -0.045 C 
ATOM      3  C   UNL     1       2.912   5.380  -6.738  0.00  0.00    +0.018 C 
ATOM      4  C   UNL     1       2.051   3.997  -6.667  0.00  0.00    +0.004 C 
ATOM      5  C   UNL     1       0.908   4.330  -5.774  0.00  0.00    +0.001 C 
ATOM      6  C   UNL     1       1.066   5.902  -5.437  0.00  0.00    +0.004 C 
ATOM      7  C   UNL     1       1.524   6.199  -6.945  0.00  0.00    +0.004 C 
ATOM      8  C   UNL     1       0.595   5.481  -7.799  0.00  0.00    +0.000 C 
ATOM      9  C   UNL     1       1.940   7.548  -7.170  0.00  0.00    +0.001 C 
ATOM     10  C   UNL     1       2.251   7.588  -8.660  0.00  0.00    +0.004 C 
ATOM     11  C   UNL     1       2.500   6.229  -9.220  0.00  0.00    +0.022 C 
ENDROOT
BRANCH   1  15
ATOM     12  C   UNL     1       6.938   5.545  -8.928  0.00  0.00    -0.005 C 
ATOM     13  C   UNL     1       6.882   5.931 -10.048  0.00  0.00    -0.026 C 
ATOM     14  C   UNL     1       5.608   5.706 -10.746  0.00  0.00    -0.024 C 
ATOM     15  C   UNL     1       4.719   4.971 -10.075  0.00  0.00    -0.005 C 
ATOM     16  C   UNL     1       5.323   6.168 -12.117  0.00  0.00    +0.059 C 
ATOM     17  C   UNL     1       6.779   6.687 -12.684  0.00  0.00    +0.157 C 
ATOM     18  O   UNL     1       6.106   7.668 -13.630  0.00  0.00    -0.223 OA
ATOM     19  C   UNL     1       6.915   7.843 -11.516  0.00  0.00    +0.038 C 
ATOM     20  C   UNL     1       7.677   7.152 -10.402  0.00  0.00    +0.029 C 
ENDBRANCH   1  15
BRANCH   6  21
ATOM     21  C   UNL     1      -0.557   6.255  -5.817  0.00  0.00    +0.022 C 
ATOM     22  C   UNL     1      -0.435   7.762  -5.222  0.00  0.00    +0.005 C 
BRANCH  21  23
ATOM     23  C   UNL     1      -1.129   5.674  -4.453  0.00  0.00    -0.031 C 
ATOM     24  C   UNL     1      -2.355   5.887  -4.100  0.00  0.00    -0.031 C 
BRANCH  24  25
ATOM     25  C   UNL     1      -2.540   5.378  -2.583  0.00  0.00    +0.022 C 
ATOM     26  C   UNL     1      -3.751   6.440  -2.304  0.00  0.00    +0.005 C 
BRANCH  25  27
ATOM     27  C   UNL     1      -1.344   6.338  -2.031  0.00  0.00    +0.004 C 
ATOM     28  C   UNL     1      -0.435   5.372  -1.346  0.00  0.00    +0.000 C 
ATOM     29  C   UNL     1      -1.827   7.465  -1.259  0.00  0.00    +0.000 C 
ENDBRANCH  25  27
ENDBRANCH  24  25
ENDBRANCH  21  23
ENDBRANCH   6  21
TORSDOF 5
ENDMDL
MODEL 3
REMARK VINA RESULT:      -9.3      3.318      9.728
REMARK  Name = 
REMARK  5 active torsions:
REMARK  status: ('A' for Active; 'I' for Inactive)
REMARK    1  A    between atoms: C_9  and  C_10
REMARK    2  A    between atoms: C_20  and  C_21
REMARK    3  A    between atoms: C_21  and  C_23
REMARK    4  A    between atoms: C_24  and  C_25
REMARK    5  A    between atoms: C_25  and  C_27
REMARK                            x       y       z     vdW  Elec       q    Type
REMARK                         _______ _______ _______ _____ _____    ______ ____
ROOT
ATOM      1  C   UNL     1       3.632   6.235  -9.853  0.00  0.00    -0.009 C 
ATOM      2  C   UNL     1       2.972   5.629  -8.849  0.00  0.00    -0.045 C 
ATOM      3  C   UNL     1       2.505   6.598  -7.659  0.00  0.00    +0.018 C 
ATOM      4  C   UNL     1       3.302   5.797  -6.483  0.00  0.00    +0.004 C 
ATOM      5  C   UNL     1       2.339   5.774  -5.347  0.00  0.00    +0.001 C 
ATOM      6  C   UNL     1       0.988   6.455  -5.912  0.00  0.00    +0.004 C 
ATOM      7  C   UNL     1       1.182   5.717  -7.322  0.00  0.00    +0.004 C 
ATOM      8  C   UNL     1       1.515   4.337  -7.015  0.00  0.00    +0.000 C 
ATOM      9  C   UNL     1       0.235   6.110  -8.318  0.00  0.00    +0.001 C 
ATOM     10  C   UNL     1       0.582   5.233  -9.515  0.00  0.00    +0.004 C 
ATOM     11  C   UNL     1       1.972   4.701  -9.437  0.00  0.00    +0.022 C 
ENDROOT
BRANCH   1  15
ATOM     12  C   UNL     1       5.956   6.099  -9.089  0.00  0.00    -0.005 C 
ATOM     13  C   UNL     1       6.420   5.907 -10.163  0.00  0.00    -0.026 C 
ATOM     14  C   UNL     1       5.475   5.497 -11.211  0.00  0.00    -0.024 C 
ATOM     15  C   UNL     1       4.232   5.256 -10.786  0.00  0.00    -0.005 C 
ATOM     16  C   UNL     1       5.846   5.274 -12.620  0.00  0.00    +0.059 C 
ATOM     17  C   UNL     1       7.492   5.321 -12.620  0.00  0.00    +0.157 C 
ATOM     18  O   UNL     1       7.518   5.791 -14.066  0.00  0.00    -0.223 OA
ATOM     19  C   UNL     1       7.529   6.876 -12.072  0.00  0.00    +0.038 C 
ATOM     20  C   UNL     1       7.606   6.733 -10.565  0.00  0.00    +0.029 C 
ENDBRANCH   1  15
BRANCH   6  21
ATOM     21  C   UNL     1      -0.010   5.196  -5.344  0.00  0.00    +0.022 C 
ATOM     22  C   UNL     1      -1.350   6.102  -5.498  0.00  0.00    +0.005 C 
BRANCH  21  23
ATOM     23  C   UNL     1       0.173   5.579  -3.813  0.00  0.00    -0.031 C 
ATOM     24  C   UNL     1      -0.848   5.866  -3.072  0.00  0.00    -0.031 C 
BRANCH  24  25
ATOM     25  C   UNL     1      -0.306   6.434  -1.665  0.00  0.00    +0.022 C 
ATOM     26  C   UNL     1       0.482   5.041  -1.330  0.00  0.00    +0.005 C 
BRANCH  25  27
ATOM     27  C   UNL     1      -1.682   6.039  -0.885  0.00  0.00    +0.004 C 
ATOM     28  C   UNL     1      -2.741   6.470  -1.847  0.00  0.00    +0.000 C 
ATOM     29  C   UNL     1      -1.747   6.567   0.462  0.00  0.00    +0.000 C 
ENDBRANCH  25  27
ENDBRANCH  24  25
ENDBRANCH  21  23
ENDBRANCH   6  21
TORSDOF 5
ENDMDL
MODEL 4
REMARK VINA RESULT:      -9.3      3.299      9.288
REMARK  Name = 
REMARK  5 active torsions:
REMARK  status: ('A' for Active; 'I' for Inactive)
REMARK    1  A    between atoms: C_9  and  C_10
REMARK    2  A    between atoms: C_20  and  C_21
REMARK    3  A    between atoms: C_21  and  C_23
REMARK    4  A    between atoms: C_24  and  C_25
REMARK    5  A    between atoms: C_25  and  C_27
REMARK                            x       y       z     vdW  Elec       q    Type
REMARK                         _______ _______ _______ _____ _____    ______ ____
ROOT
ATOM      1  C   UNL     1       4.632   5.139  -8.215  0.00  0.00    -0.009 C 
ATOM      2  C   UNL     1       4.048   5.785  -7.190  0.00  0.00    -0.045 C 
ATOM      3  C   UNL     1       2.532   5.355  -6.890  0.00  0.00    +0.018 C 
ATOM      4  C   UNL     1       1.905   6.849  -7.076  0.00  0.00    +0.004 C 
ATOM      5  C   UNL     1       0.918   6.966  -5.968  0.00  0.00    +0.001 C 
ATOM      6  C   UNL     1       1.066   5.605  -5.112  0.00  0.00    +0.004 C 
ATOM      7  C   UNL     1       2.658   5.639  -5.295  0.00  0.00    +0.004 C 
ATOM      8  C   UNL     1       3.068   7.004  -5.020  0.00  0.00    +0.000 C 
ATOM      9  C   UNL     1       3.326   4.483  -4.783  0.00  0.00    +0.001 C 
ATOM     10  C   UNL     1       4.802   4.786  -5.011  0.00  0.00    +0.004 C 
ATOM     11  C   UNL     1       5.007   5.830  -6.055  0.00  0.00    +0.022 C 
ENDROOT
BRANCH   1  15
ATOM     12  C   UNL     1       4.053   6.570 -10.118  0.00  0.00    -0.005 C 
ATOM     13  C   UNL     1       5.088   6.438 -10.682  0.00  0.00    -0.026 C 
ATOM     14  C   UNL     1       6.194   5.894  -9.881  0.00  0.00    -0.024 C 
ATOM     15  C   UNL     1       5.931   5.748  -8.581  0.00  0.00    -0.005 C 
ATOM     16  C   UNL     1       7.536   5.598 -10.416  0.00  0.00    +0.059 C 
ATOM     17  C   UNL     1       7.528   6.256 -11.925  0.00  0.00    +0.157 C 
ATOM     18  O   UNL     1       8.559   5.251 -12.412  0.00  0.00    -0.223 OA
ATOM     19  C   UNL     1       6.289   5.291 -12.429  0.00  0.00    +0.038 C 
ATOM     20  C   UNL     1       5.045   6.109 -12.144  0.00  0.00    +0.029 C 
ENDBRANCH   1  15
BRANCH   6  21
ATOM     21  C   UNL     1       1.178   6.428  -3.624  0.00  0.00    +0.022 C 
ATOM     22  C   UNL     1       0.847   5.079  -2.781  0.00  0.00    +0.005 C 
BRANCH  21  23
ATOM     23  C   UNL     1      -0.340   6.896  -3.630  0.00  0.00    -0.031 C 
ATOM     24  C   UNL     1      -1.230   6.281  -2.921  0.00  0.00    -0.031 C 
BRANCH  24  25
ATOM     25  C   UNL     1      -2.682   6.843  -3.333  0.00  0.00    +0.022 C 
ATOM     26  C   UNL     1      -3.373   5.371  -3.167  0.00  0.00    +0.005 C 
BRANCH  25  27
ATOM     27  C   UNL     1      -2.371   6.704  -4.927  0.00  0.00    +0.004 C 
ATOM     28  C   UNL     1      -3.100   7.871  -5.508  0.00  0.00    +0.000 C 
ATOM     29  C   UNL     1      -2.679   5.392  -5.456  0.00  0.00    +0.000 C 
ENDBRANCH  25  27
ENDBRANCH  24  25
ENDBRANCH  21  23
ENDBRANCH   6  21
TORSDOF 5
ENDMDL
MODEL 5
REMARK VINA RESULT:      -9.2      3.656      9.498
REMARK  Name = 
REMARK  5 active torsions:
REMARK  status: ('A' for Active; 'I' for Inactive)
REMARK    1  A    between atoms: C_9  and  C_10
REMARK    2  A    between atoms: C_20  and  C_21
REMARK    3  A    between atoms: C_21  and  C_23
REMARK    4  A    between atoms: C_24  and  C_25
REMARK    5  A    between atoms: C_25  and  C_27
REMARK                            x       y       z     vdW  Elec       q    Type
REMARK                         _______ _______ _______ _____ _____    ______ ____
ROOT
ATOM      1  C   UNL     1       4.527   6.098  -9.310  0.00  0.00    -0.009 C 
ATOM      2  C   UNL     1       3.619   5.597  -8.451  0.00  0.00    -0.045 C 
ATOM      3  C   UNL     1       3.589   6.297  -7.008  0.00  0.00    +0.018 C 
ATOM      4  C   UNL     1       3.883   4.931  -6.166  0.00  0.00    +0.004 C 
ATOM      5  C   UNL     1       2.964   5.024  -4.998  0.00  0.00    +0.001 C 
ATOM      6  C   UNL     1       2.095   6.364  -5.237  0.00  0.00    +0.004 C 
ATOM      7  C   UNL     1       1.996   6.044  -6.806  0.00  0.00    +0.004 C 
ATOM      8  C   UNL     1       1.655   4.637  -6.911  0.00  0.00    +0.000 C 
ATOM      9  C   UNL     1       1.376   7.079  -7.571  0.00  0.00    +0.001 C 
ATOM     10  C   UNL     1       1.341   6.514  -8.985  0.00  0.00    +0.004 C 
ATOM     11  C   UNL     1       2.335   5.419  -9.177  0.00  0.00    +0.022 C 
ENDROOT
BRANCH   1  15
ATOM     12  C   UNL     1       6.933   5.643  -9.403  0.00  0.00    -0.005 C 
ATOM     13  C   UNL     1       6.999   5.612 -10.587  0.00  0.00    -0.026 C 
ATOM     14  C   UNL     1       5.722   5.473 -11.301  0.00  0.00    -0.024 C 
ATOM     15  C   UNL     1       4.660   5.259 -10.522  0.00  0.00    -0.005 C 
ATOM     16  C   UNL     1       5.590   5.479 -12.769  0.00  0.00    +0.059 C 
ATOM     17  C   UNL     1       7.140   5.396 -13.319  0.00  0.00    +0.157 C 
ATOM     18  O   UNL     1       6.765   6.114 -14.604  0.00  0.00    -0.223 OA
ATOM     19  C   UNL     1       7.559   6.818 -12.597  0.00  0.00    +0.038 C 
ATOM     20  C   UNL     1       8.093   6.400 -11.242  0.00  0.00    +0.029 C 
ENDBRANCH   1  15
BRANCH   6  21
ATOM     21  C   UNL     1       0.611   5.580  -4.943  0.00  0.00    +0.022 C 
ATOM     22  C   UNL     1      -0.095   6.962  -4.460  0.00  0.00    +0.005 C 
BRANCH  21  23
ATOM     23  C   UNL     1       0.989   5.159  -3.459  0.00  0.00    -0.031 C 
ATOM     24  C   UNL     1       0.290   5.568  -2.451  0.00  0.00    -0.031 C 
BRANCH  24  25
ATOM     25  C   UNL     1       1.069   5.167  -1.099  0.00  0.00    +0.022 C 
ATOM     26  C   UNL     1       0.450   6.443  -0.285  0.00  0.00    +0.005 C 
BRANCH  25  27
ATOM     27  C   UNL     1       2.437   5.916  -1.571  0.00  0.00    +0.004 C 
ATOM     28  C   UNL     1       3.497   4.933  -1.199  0.00  0.00    +0.000 C 
ATOM     29  C   UNL     1       2.560   7.262  -1.049  0.00  0.00    +0.000 C 
ENDBRANCH  25  27
ENDBRANCH  24  25
ENDBRANCH  21  23
ENDBRANCH   6  21
TORSDOF 5
ENDMDL
MODEL 6
REMARK VINA RESULT:      -9.1      4.150      8.485
REMARK  Name = 
REMARK  5 active torsions:
REMARK  status: ('A' for Active; 'I' for Inactive)
REMARK    1  A    between atoms: C_9  and  C_10
REMARK    2  A    between atoms: C_20  and  C_21
REMARK    3  A    between atoms: C_21  and  C_23
REMARK    4  A    between atoms: C_24  and  C_25
REMARK    5  A    between atoms: C_25  and  C_27
REMARK                            x       y       z     vdW  Elec       q    Type
REMARK                         _______ _______ _______ _____ _____    ______ ____
ROOT
ATOM      1  C   UNL     1       0.391   5.669  -9.743  0.00  0.00    -0.009 C 
ATOM      2  C   UNL     1       1.045   6.307  -8.755  0.00  0.00    -0.045 C 
ATOM      3  C   UNL     1       1.271   5.444  -7.421  0.00  0.00    +0.018 C 
ATOM      4  C   UNL     1       0.501   6.485  -6.429  0.00  0.00    +0.004 C 
ATOM      5  C   UNL     1       1.361   6.526  -5.214  0.00  0.00    +0.001 C 
ATOM      6  C   UNL     1       2.644   5.609  -5.561  0.00  0.00    +0.004 C 
ATOM      7  C   UNL     1       2.673   6.181  -7.059  0.00  0.00    +0.004 C 
ATOM      8  C   UNL     1       2.514   7.620  -6.946  0.00  0.00    +0.000 C 
ATOM      9  C   UNL     1       3.634   5.545  -7.904  0.00  0.00    +0.001 C 
ATOM     10  C   UNL     1       3.514   6.300  -9.222  0.00  0.00    +0.004 C 
ATOM     11  C   UNL     1       2.212   7.015  -9.344  0.00  0.00    +0.022 C 
ENDROOT
BRANCH   1  15
ATOM     12  C   UNL     1      -0.308   4.146 -11.530  0.00  0.00    -0.005 C 
ATOM     13  C   UNL     1       0.064   4.834 -12.421  0.00  0.00    -0.026 C 
ATOM     14  C   UNL     1       0.347   6.236 -12.080  0.00  0.00    -0.024 C 
ATOM     15  C   UNL     1       0.014   6.592 -10.837  0.00  0.00    -0.005 C 
ATOM     16  C   UNL     1       0.878   7.228 -13.032  0.00  0.00    +0.059 C 
ATOM     17  C   UNL     1       0.792   6.478 -14.495  0.00  0.00    +0.157 C 
ATOM     18  O   UNL     1       1.954   7.300 -15.029  0.00  0.00    -0.223 OA
ATOM     19  C   UNL     1       1.810   5.268 -14.026  0.00  0.00    +0.038 C 
ATOM     20  C   UNL     1       0.883   4.190 -13.500  0.00  0.00    +0.029 C 
ENDBRANCH   1  15
BRANCH   6  21
ATOM     21  C   UNL     1       3.760   6.789  -5.045  0.00  0.00    +0.022 C 
ATOM     22  C   UNL     1       4.872   5.665  -4.672  0.00  0.00    +0.005 C 
BRANCH  21  23
ATOM     23  C   UNL     1       3.198   6.845  -3.560  0.00  0.00    -0.031 C 
ATOM     24  C   UNL     1       3.991   7.023  -2.554  0.00  0.00    -0.031 C 
BRANCH  24  25
ATOM     25  C   UNL     1       3.150   6.791  -1.200  0.00  0.00    +0.022 C 
ATOM     26  C   UNL     1       4.503   6.496  -0.331  0.00  0.00    +0.005 C 
BRANCH  25  27
ATOM     27  C   UNL     1       2.842   5.232  -1.564  0.00  0.00    +0.004 C 
ATOM     28  C   UNL     1       1.468   5.030  -1.015  0.00  0.00    +0.000 C 
ATOM     29  C   UNL     1       3.880   4.326  -1.119  0.00  0.00    +0.000 C 
ENDBRANCH  25  27
ENDBRANCH  24  25
ENDBRANCH  21  23
ENDBRANCH   6  21
TORSDOF 5
ENDMDL
MODEL 7
REMARK VINA RESULT:      -8.7      4.039      9.299
REMARK  Name = 
REMARK  5 active torsions:
REMARK  status: ('A' for Active; 'I' for Inactive)
REMARK    1  A    between atoms: C_9  and  C_10
REMARK    2  A    between atoms: C_20  and  C_21
REMARK    3  A    between atoms: C_21  and  C_23
REMARK    4  A    between atoms: C_24  and  C_25
REMARK    5  A    between atoms: C_25  and  C_27
REMARK                            x       y       z     vdW  Elec       q    Type
REMARK                         _______ _______ _______ _____ _____    ______ ____
ROOT
ATOM      1  C   UNL     1       0.989   5.505  -9.808  0.00  0.00    -0.009 C 
ATOM      2  C   UNL     1       0.914   6.015  -8.564  0.00  0.00    -0.045 C 
ATOM      3  C   UNL     1       0.901   4.930  -7.383  0.00  0.00    +0.018 C 
ATOM      4  C   UNL     1      -0.523   5.407  -6.748  0.00  0.00    +0.004 C 
ATOM      5  C   UNL     1      -0.293   5.366  -5.277  0.00  0.00    +0.001 C 
ATOM      6  C   UNL     1       1.264   4.977  -5.094  0.00  0.00    +0.004 C 
ATOM      7  C   UNL     1       1.664   5.910  -6.335  0.00  0.00    +0.004 C 
ATOM      8  C   UNL     1       0.950   7.161  -6.148  0.00  0.00    +0.000 C 
ATOM      9  C   UNL     1       3.041   5.821  -6.708  0.00  0.00    +0.001 C 
ATOM     10  C   UNL     1       3.177   6.833  -7.839  0.00  0.00    +0.004 C 
ATOM     11  C   UNL     1       1.863   7.154  -8.466  0.00  0.00    +0.022 C 
ENDROOT
BRANCH   1  15
ATOM     12  C   UNL     1      -0.304   4.304 -11.508  0.00  0.00    -0.005 C 
ATOM     13  C   UNL     1       0.140   4.900 -12.433  0.00  0.00    -0.026 C 
ATOM     14  C   UNL     1       0.835   6.156 -12.118  0.00  0.00    -0.024 C 
ATOM     15  C   UNL     1       0.759   6.539 -10.841  0.00  0.00    -0.005 C 
ATOM     16  C   UNL     1       1.507   7.004 -13.119  0.00  0.00    +0.059 C 
ATOM     17  C   UNL     1       1.050   6.366 -14.566  0.00  0.00    +0.157 C 
ATOM     18  O   UNL     1       2.325   6.860 -15.232  0.00  0.00    -0.223 OA
ATOM     19  C   UNL     1       1.742   4.906 -14.234  0.00  0.00    +0.038 C 
ATOM     20  C   UNL     1       0.620   4.102 -13.607  0.00  0.00    +0.029 C 
ENDBRANCH   1  15
BRANCH   6  21
ATOM     21  C   UNL     1       1.561   6.243  -3.994  0.00  0.00    +0.022 C 
ATOM     22  C   UNL     1       2.837   5.470  -3.351  0.00  0.00    +0.005 C 
BRANCH  21  23
ATOM     23  C   UNL     1       0.562   5.682  -2.893  0.00  0.00    -0.031 C 
ATOM     24  C   UNL     1       0.048   6.464  -2.000  0.00  0.00    -0.031 C 
BRANCH  24  25
ATOM     25  C   UNL     1      -0.714   5.554  -0.910  0.00  0.00    +0.022 C 
ATOM     26  C   UNL     1      -2.160   5.772  -1.640  0.00  0.00    +0.005 C 
BRANCH  25  27
ATOM     27  C   UNL     1      -0.866   6.794   0.137  0.00  0.00    +0.004 C 
ATOM     28  C   UNL     1      -1.876   7.667  -0.531  0.00  0.00    +0.000 C 
ATOM     29  C   UNL     1       0.402   7.395   0.499  0.00  0.00    +0.000 C 
ENDBRANCH  25  27
ENDBRANCH  24  25
ENDBRANCH  21  23
ENDBRANCH   6  21
TORSDOF 5
ENDMDL
MODEL 8
REMARK VINA RESULT:      -8.5      2.292      3.574
REMARK  Name = 
REMARK  5 active torsions:
REMARK  status: ('A' for Active; 'I' for Inactive)
REMARK    1  A    between atoms: C_9  and  C_10
REMARK    2  A    between atoms: C_20  and  C_21
REMARK    3  A    between atoms: C_21  and  C_23
REMARK    4  A    between atoms: C_24  and  C_25
REMARK    5  A    between atoms: C_25  and  C_27
REMARK                            x       y       z     vdW  Elec       q    Type
REMARK                         _______ _______ _______ _____ _____    ______ ____
ROOT
ATOM      1  C   UNL     1       2.158   5.217  -5.582  0.00  0.00    -0.009 C 
ATOM      2  C   UNL     1       2.518   5.849  -6.714  0.00  0.00    -0.045 C 
ATOM      3  C   UNL     1       3.241   4.926  -7.808  0.00  0.00    +0.018 C 
ATOM      4  C   UNL     1       4.606   5.814  -7.885  0.00  0.00    +0.004 C 
ATOM      5  C   UNL     1       4.925   5.860  -9.339  0.00  0.00    +0.001 C 
ATOM      6  C   UNL     1       3.702   5.103 -10.073  0.00  0.00    +0.004 C 
ATOM      7  C   UNL     1       2.653   5.775  -9.063  0.00  0.00    +0.004 C 
ATOM      8  C   UNL     1       3.012   7.179  -8.981  0.00  0.00    +0.000 C 
ATOM      9  C   UNL     1       1.314   5.297  -9.214  0.00  0.00    +0.001 C 
ATOM     10  C   UNL     1       0.519   6.123  -8.211  0.00  0.00    +0.004 C 
ATOM     11  C   UNL     1       1.388   6.709  -7.151  0.00  0.00    +0.022 C 
ENDROOT
BRANCH   1  15
ATOM     12  C   UNL     1       4.185   5.541  -4.244  0.00  0.00    -0.005 C 
ATOM     13  C   UNL     1       3.620   5.691  -3.212  0.00  0.00    -0.026 C 
ATOM     14  C   UNL     1       2.181   5.976  -3.299  0.00  0.00    -0.024 C 
ATOM     15  C   UNL     1       1.718   6.168  -4.537  0.00  0.00    -0.005 C 
ATOM     16  C   UNL     1       1.296   6.130  -2.131  0.00  0.00    +0.059 C 
ATOM     17  C   UNL     1       2.322   6.181  -0.845  0.00  0.00    +0.157 C 
ATOM     18  O   UNL     1       1.254   5.622   0.081  0.00  0.00    -0.223 OA
ATOM     19  C   UNL     1       2.909   4.670  -1.148  0.00  0.00    +0.038 C 
ATOM     20  C   UNL     1       4.117   4.914  -2.030  0.00  0.00    +0.029 C 
ENDBRANCH   1  15
BRANCH   6  21
ATOM     21  C   UNL     1       3.470   6.352 -11.209  0.00  0.00    +0.022 C 
ATOM     22  C   UNL     1       2.752   5.346 -12.264  0.00  0.00    +0.005 C 
BRANCH  21  23
ATOM     23  C   UNL     1       4.898   6.170 -11.881  0.00  0.00    -0.031 C 
ATOM     24  C   UNL     1       5.694   7.177 -12.039  0.00  0.00    -0.031 C 
BRANCH  24  25
ATOM     25  C   UNL     1       6.934   6.704 -12.952  0.00  0.00    +0.022 C 
ATOM     26  C   UNL     1       6.253   5.245 -13.237  0.00  0.00    +0.005 C 
BRANCH  25  27
ATOM     27  C   UNL     1       7.808   6.232 -11.660  0.00  0.00    +0.004 C 
ATOM     28  C   UNL     1       7.731   7.420 -10.759  0.00  0.00    +0.000 C 
ATOM     29  C   UNL     1       9.125   5.742 -12.010  0.00  0.00    +0.000 C 
ENDBRANCH  25  27
ENDBRANCH  24  25
ENDBRANCH  21  23
ENDBRANCH   6  21
TORSDOF 5
ENDMDL
MODEL 9
REMARK VINA RESULT:      -8.2      3.482      9.808
REMARK  Name = 
REMARK  5 active torsions:
REMARK  status: ('A' for Active; 'I' for Inactive)
REMARK    1  A    between atoms: C_9  and  C_10
REMARK    2  A    between atoms: C_20  and  C_21
REMARK    3  A    between atoms: C_21  and  C_23
REMARK    4  A    between atoms: C_24  and  C_25
REMARK    5  A    between atoms: C_25  and  C_27
REMARK                            x       y       z     vdW  Elec       q    Type
REMARK                         _______ _______ _______ _____ _____    ______ ____
ROOT
ATOM      1  C   UNL     1       3.842   5.339  -7.394  0.00  0.00    -0.009 C 
ATOM      2  C   UNL     1       3.478   5.911  -6.232  0.00  0.00    -0.045 C 
ATOM      3  C   UNL     1       2.199   5.255  -5.522  0.00  0.00    +0.018 C 
ATOM      4  C   UNL     1       1.315   6.626  -5.493  0.00  0.00    +0.004 C 
ATOM      5  C   UNL     1       0.678   6.615  -4.147  0.00  0.00    +0.001 C 
ATOM      6  C   UNL     1       1.278   5.318  -3.395  0.00  0.00    +0.004 C 
ATOM      7  C   UNL     1       2.727   5.599  -4.023  0.00  0.00    +0.004 C 
ATOM      8  C   UNL     1       2.975   7.019  -3.850  0.00  0.00    +0.000 C 
ATOM      9  C   UNL     1       3.687   4.578  -3.746  0.00  0.00    +0.001 C 
ATOM     10  C   UNL     1       4.970   5.104  -4.378  0.00  0.00    +0.004 C 
ATOM     11  C   UNL     1       4.700   6.139  -5.417  0.00  0.00    +0.022 C 
ENDROOT
BRANCH   1  15
ATOM     12  C   UNL     1       2.568   6.401  -9.198  0.00  0.00    -0.005 C 
ATOM     13  C   UNL     1       3.457   6.401  -9.983  0.00  0.00    -0.026 C 
ATOM     14  C   UNL     1       4.802   6.175  -9.435  0.00  0.00    -0.024 C 
ATOM     15  C   UNL     1       4.869   6.135  -8.102  0.00  0.00    -0.005 C 
ATOM     16  C   UNL     1       6.024   6.078 -10.254  0.00  0.00    +0.059 C 
ATOM     17  C   UNL     1       5.544   6.540 -11.759  0.00  0.00    +0.157 C 
ATOM     18  O   UNL     1       6.630   5.698 -12.408  0.00  0.00    -0.223 OA
ATOM     19  C   UNL     1       4.457   5.305 -11.882  0.00  0.00    +0.038 C 
ATOM     20  C   UNL     1       3.163   5.900 -11.365  0.00  0.00    +0.029 C 
ENDBRANCH   1  15
BRANCH   6  21
ATOM     21  C   UNL     1       1.676   6.188  -1.985  0.00  0.00    +0.022 C 
ATOM     22  C   UNL     1       1.927   4.825  -1.138  0.00  0.00    +0.005 C 
BRANCH  21  23
ATOM     23  C   UNL     1       0.171   6.315  -1.493  0.00  0.00    -0.031 C 
ATOM     24  C   UNL     1      -0.109   6.779  -0.318  0.00  0.00    -0.031 C 
BRANCH  24  25
ATOM     25  C   UNL     1      -1.681   6.552  -0.047  0.00  0.00    +0.022 C 
ATOM     26  C   UNL     1      -2.100   7.373  -1.398  0.00  0.00    +0.005 C 
BRANCH  25  27
ATOM     27  C   UNL     1      -1.772   7.830   0.960  0.00  0.00    +0.004 C 
ATOM     28  C   UNL     1      -0.446   7.805   1.646  0.00  0.00    +0.000 C 
ATOM     29  C   UNL     1      -2.956   7.816   1.794  0.00  0.00    +0.000 C 
ENDBRANCH  25  27
ENDBRANCH  24  25
ENDBRANCH  21  23
ENDBRANCH   6  21
TORSDOF 5
ENDMDL
