MODEL 1
REMARK VINA RESULT:      -9.8      0.000      0.000
REMARK  Name = 
REMARK  4 active torsions:
REMARK  status: ('A' for Active; 'I' for Inactive)
REMARK    1  A    between atoms: C_3  and  C_4
REMARK    2  A    between atoms: C_4  and  N_5
REMARK    3  A    between atoms: N_19  and  C_20
REMARK    4  A    between atoms: C_20  and  C_21
REMARK                            x       y       z     vdW  Elec       q    Type
REMARK                         _______ _______ _______ _____ _____    ______ ____
ROOT
ATOM      1  N   UNL     1       1.647   5.810  -5.760  0.00  0.00    -0.282 N 
ATOM      2  C   UNL     1       2.123   6.168  -4.558  0.00  0.00    +0.154 A 
ATOM      3  C   UNL     1       1.674   6.073  -3.246  0.00  0.00    +0.284 A 
ATOM      4  N   UNL     1       2.378   6.610  -2.231  0.00  0.00    -0.240 N 
ATOM      5  C   UNL     1       3.414   7.394  -2.529  0.00  0.00    +0.335 A 
ATOM      6  N   UNL     1       3.911   7.467  -3.765  0.00  0.00    -0.263 N 
ATOM      7  C   UNL     1       5.145   8.156  -4.075  0.00  0.00    +0.137 C 
ATOM      8  O   UNL     1       3.828   8.210  -1.660  0.00  0.00    -0.246 OA
ATOM      9  O   UNL     1       0.555   5.516  -3.042  0.00  0.00    -0.265 OA
ATOM     10  C   UNL     1       3.287   6.853  -4.786  0.00  0.00    +0.171 A 
ATOM     11  N   UNL     1       3.242   7.194  -6.098  0.00  0.00    -0.196 NA
ATOM     12  C   UNL     1       2.429   6.330  -6.738  0.00  0.00    +0.203 A 
ATOM     13  N   UNL     1       2.564   5.872  -8.090  0.00  0.00    -0.278 N 
ATOM     14  C   UNL     1       2.700   4.523  -8.449  0.00  0.00    +0.112 C 
ATOM     15  C   UNL     1       4.181   4.238  -9.086  0.00  0.00    +0.112 C 
ATOM     16  N   UNL     1       4.902   5.352  -8.239  0.00  0.00    -0.131 NA
ATOM     17  C   UNL     1       3.914   5.206 -10.378  0.00  0.00    +0.023 C 
ATOM     18  C   UNL     1       3.768   6.604  -9.973  0.00  0.00    +0.023 C 
ATOM     19  C   UNL     1       2.563   6.901  -9.121  0.00  0.00    +0.094 C 
ENDROOT
BRANCH   1  20
ATOM     20  C   UNL     1       0.685   4.751  -5.945  0.00  0.00    +0.185 C 
BRANCH  20  23
ATOM     21  C   UNL     1      -2.838   6.042  -6.424  0.00  0.00    +0.090 C 
ATOM     22  C   UNL     1      -1.806   5.710  -6.270  0.00  0.00    -0.088 C 
ATOM     23  C   UNL     1      -0.669   5.272  -6.220  0.00  0.00    -0.066 C 
ENDBRANCH  20  23
ENDBRANCH   1  20
BRANCH   4  24
ATOM     24  C   UNL     1       2.158   6.140  -0.894  0.00  0.00    +0.179 C 
BRANCH  24  25
ATOM     25  C   UNL     1       1.376   7.063  -0.052  0.00  0.00    +0.162 A 
ATOM     26  N   UNL     1       1.965   7.470   1.101  0.00  0.00    -0.229 NA
ATOM     27  C   UNL     1       1.278   8.303   1.918  0.00  0.00    +0.084 A 
ATOM     28  C   UNL     1      -0.103   8.350   1.789  0.00  0.00    +0.031 A 
ATOM     29  C   UNL     1      -0.835   9.273   2.523  0.00  0.00    +0.003 A 
ATOM     30  C   UNL     1      -0.226  10.086   3.470  0.00  0.00    +0.000 A 
ATOM     31  C   UNL     1       1.119   9.846   3.712  0.00  0.00    +0.002 A 
ATOM     32  C   UNL     1      -0.727   7.517   0.892  0.00  0.00    +0.062 A 
ATOM     33  C   UNL     1      -2.215   7.502   0.780  0.00  0.00    +0.052 C 
ATOM     34  C   UNL     1       1.889   9.083   2.875  0.00  0.00    +0.019 A 
ATOM     35  N   UNL     1       0.051   6.793   0.067  0.00  0.00    -0.233 NA
ENDBRANCH  24  25
ENDBRANCH   4  24
TORSDOF 4
ENDMDL
MODEL 2
REMARK VINA RESULT:      -9.1      1.905      3.756
REMARK  Name = 
REMARK  4 active torsions:
REMARK  status: ('A' for Active; 'I' for Inactive)
REMARK    1  A    between atoms: C_3  and  C_4
REMARK    2  A    between atoms: C_4  and  N_5
REMARK    3  A    between atoms: N_19  and  C_20
REMARK    4  A    between atoms: C_20  and  C_21
REMARK                            x       y       z     vdW  Elec       q    Type
REMARK                         _______ _______ _______ _____ _____    ______ ____
ROOT
ATOM      1  N   UNL     1       1.933   4.890  -5.007  0.00  0.00    -0.282 N 
ATOM      2  C   UNL     1       1.004   5.234  -4.103  0.00  0.00    +0.154 A 
ATOM      3  C   UNL     1       0.859   5.094  -2.728  0.00  0.00    +0.284 A 
ATOM      4  N   UNL     1      -0.263   5.500  -2.103  0.00  0.00    -0.240 N 
ATOM      5  C   UNL     1      -1.304   5.865  -2.852  0.00  0.00    +0.335 A 
ATOM      6  N   UNL     1      -1.191   6.067  -4.166  0.00  0.00    -0.263 N 
ATOM      7  C   UNL     1      -2.250   6.646  -4.965  0.00  0.00    +0.137 C 
ATOM      8  O   UNL     1      -2.456   5.858  -2.336  0.00  0.00    -0.246 OA
ATOM      9  O   UNL     1       1.791   4.521  -2.090  0.00  0.00    -0.265 OA
ATOM     10  C   UNL     1      -0.045   5.770  -4.804  0.00  0.00    +0.171 A 
ATOM     11  N   UNL     1       0.148   5.368  -6.085  0.00  0.00    -0.196 NA
ATOM     12  C   UNL     1       1.459   5.106  -6.259  0.00  0.00    +0.203 A 
ATOM     13  N   UNL     1       2.216   5.297  -7.462  0.00  0.00    -0.278 N 
ATOM     14  C   UNL     1       3.348   6.119  -7.553  0.00  0.00    +0.112 C 
ATOM     15  C   UNL     1       3.055   7.405  -8.524  0.00  0.00    +0.112 C 
ATOM     16  N   UNL     1       1.521   7.477  -8.182  0.00  0.00    -0.131 NA
ATOM     17  C   UNL     1       2.851   6.472  -9.853  0.00  0.00    +0.023 C 
ATOM     18  C   UNL     1       1.669   5.620  -9.727  0.00  0.00    +0.023 C 
ATOM     19  C   UNL     1       1.742   4.581  -8.640  0.00  0.00    +0.094 C 
ENDROOT
BRANCH   1  20
ATOM     20  C   UNL     1       3.319   4.676  -4.673  0.00  0.00    +0.185 C 
BRANCH  20  23
ATOM     21  C   UNL     1       5.123   7.931  -3.992  0.00  0.00    +0.090 C 
ATOM     22  C   UNL     1       4.562   7.013  -4.198  0.00  0.00    -0.088 C 
ATOM     23  C   UNL     1       4.006   5.935  -4.318  0.00  0.00    -0.066 C 
ENDBRANCH  20  23
ENDBRANCH   1  20
BRANCH   4  24
ATOM     24  C   UNL     1      -0.231   5.761  -0.693  0.00  0.00    +0.179 C 
BRANCH  24  25
ATOM     25  C   UNL     1       0.301   7.089  -0.339  0.00  0.00    +0.162 A 
ATOM     26  N   UNL     1       1.649   7.181  -0.207  0.00  0.00    -0.229 NA
ATOM     27  C   UNL     1       2.184   8.376   0.136  0.00  0.00    +0.084 A 
ATOM     28  C   UNL     1       1.361   9.305   0.757  0.00  0.00    +0.031 A 
ATOM     29  C   UNL     1       1.835  10.583   1.021  0.00  0.00    +0.003 A 
ATOM     30  C   UNL     1       3.157  10.925   0.773  0.00  0.00    +0.000 A 
ATOM     31  C   UNL     1       3.991   9.897   0.356  0.00  0.00    +0.002 A 
ATOM     32  C   UNL     1       0.063   8.965   1.055  0.00  0.00    +0.062 A 
ATOM     33  C   UNL     1      -0.824   9.922   1.780  0.00  0.00    +0.052 C 
ATOM     34  C   UNL     1       3.506   8.695  -0.086  0.00  0.00    +0.019 A 
ATOM     35  N   UNL     1      -0.396   7.788   0.592  0.00  0.00    -0.233 NA
ENDBRANCH  24  25
ENDBRANCH   4  24
TORSDOF 4
ENDMDL
MODEL 3
REMARK VINA RESULT:      -9.0      5.543     12.688
REMARK  Name = 
REMARK  4 active torsions:
REMARK  status: ('A' for Active; 'I' for Inactive)
REMARK    1  A    between atoms: C_3  and  C_4
REMARK    2  A    between atoms: C_4  and  N_5
REMARK    3  A    between atoms: N_19  and  C_20
REMARK    4  A    between atoms: C_20  and  C_21
REMARK                            x       y       z     vdW  Elec       q    Type
REMARK                         _______ _______ _______ _____ _____    ______ ____
ROOT
ATOM      1  N   UNL     1       3.210   5.941  -9.682  0.00  0.00    -0.282 N 
ATOM      2  C   UNL     1       2.606   6.152 -10.861  0.00  0.00    +0.154 A 
ATOM      3  C   UNL     1       2.990   6.095 -12.195  0.00  0.00    +0.284 A 
ATOM      4  N   UNL     1       2.138   6.444 -13.178  0.00  0.00    -0.240 N 
ATOM      5  C   UNL     1       0.986   7.023 -12.838  0.00  0.00    +0.335 A 
ATOM      6  N   UNL     1       0.555   7.046 -11.575  0.00  0.00    -0.263 N 
ATOM      7  C   UNL     1      -0.771   7.494 -11.206  0.00  0.00    +0.137 C 
ATOM      8  O   UNL     1       0.371   7.708 -13.700  0.00  0.00    -0.246 OA
ATOM      9  O   UNL     1       4.183   5.759 -12.454  0.00  0.00    -0.265 OA
ATOM     10  C   UNL     1       1.344   6.606 -10.578  0.00  0.00    +0.171 A 
ATOM     11  N   UNL     1       1.396   7.001  -9.282  0.00  0.00    -0.196 NA
ATOM     12  C   UNL     1       2.398   6.338  -8.671  0.00  0.00    +0.203 A 
ATOM     13  N   UNL     1       2.432   5.916  -7.301  0.00  0.00    -0.278 N 
ATOM     14  C   UNL     1       2.585   4.581  -6.897  0.00  0.00    +0.112 C 
ATOM     15  C   UNL     1       1.227   4.039  -6.160  0.00  0.00    +0.112 C 
ATOM     16  N   UNL     1       0.255   4.957  -6.990  0.00  0.00    -0.131 NA
ATOM     17  C   UNL     1       1.372   5.091  -4.915  0.00  0.00    +0.023 C 
ATOM     18  C   UNL     1       1.216   6.473  -5.366  0.00  0.00    +0.023 C 
ATOM     19  C   UNL     1       2.289   6.965  -6.301  0.00  0.00    +0.094 C 
ENDROOT
BRANCH   1  20
ATOM     20  C   UNL     1       4.370   5.098  -9.528  0.00  0.00    +0.185 C 
BRANCH  20  23
ATOM     21  C   UNL     1       7.661   6.842 -10.189  0.00  0.00    +0.090 C 
ATOM     22  C   UNL     1       6.691   6.358 -10.035  0.00  0.00    -0.088 C 
ATOM     23  C   UNL     1       5.629   5.844  -9.726  0.00  0.00    -0.066 C 
ENDBRANCH  20  23
ENDBRANCH   1  20
BRANCH   4  24
ATOM     24  C   UNL     1       2.369   5.974 -14.513  0.00  0.00    +0.179 C 
BRANCH  24  25
ATOM     25  C   UNL     1       3.110   6.920 -15.365  0.00  0.00    +0.162 A 
ATOM     26  N   UNL     1       2.394   7.544 -16.334  0.00  0.00    -0.229 NA
ATOM     27  C   UNL     1       3.035   8.409 -17.156  0.00  0.00    +0.084 A 
ATOM     28  C   UNL     1       4.413   8.296 -17.276  0.00  0.00    +0.031 A 
ATOM     29  C   UNL     1       5.123   9.232 -18.013  0.00  0.00    +0.003 A 
ATOM     30  C   UNL     1       4.472  10.228 -18.729  0.00  0.00    +0.000 A 
ATOM     31  C   UNL     1       3.086  10.164 -18.750  0.00  0.00    +0.002 A 
ATOM     32  C   UNL     1       5.067   7.284 -16.614  0.00  0.00    +0.062 A 
ATOM     33  C   UNL     1       6.540   7.101 -16.776  0.00  0.00    +0.052 C 
ATOM     34  C   UNL     1       2.376   9.374 -17.886  0.00  0.00    +0.019 A 
ATOM     35  N   UNL     1       4.352   6.535 -15.754  0.00  0.00    -0.233 NA
ENDBRANCH  24  25
ENDBRANCH   4  24
TORSDOF 4
ENDMDL
MODEL 4
REMARK VINA RESULT:      -8.8      3.482     10.109
REMARK  Name = 
REMARK  4 active torsions:
REMARK  status: ('A' for Active; 'I' for Inactive)
REMARK    1  A    between atoms: C_3  and  C_4
REMARK    2  A    between atoms: C_4  and  N_5
REMARK    3  A    between atoms: N_19  and  C_20
REMARK    4  A    between atoms: C_20  and  C_21
REMARK                            x       y       z     vdW  Elec       q    Type
REMARK                         _______ _______ _______ _____ _____    ______ ____
ROOT
ATOM      1  N   UNL     1       1.332   6.121  -4.922  0.00  0.00    -0.282 N 
ATOM      2  C   UNL     1       1.643   5.772  -6.179  0.00  0.00    +0.154 A 
ATOM      3  C   UNL     1       2.809   5.426  -6.852  0.00  0.00    +0.284 A 
ATOM      4  N   UNL     1       2.801   5.188  -8.177  0.00  0.00    -0.240 N 
ATOM      5  C   UNL     1       1.693   5.473  -8.862  0.00  0.00    +0.335 A 
ATOM      6  N   UNL     1       0.540   5.751  -8.252  0.00  0.00    -0.263 N 
ATOM      7  C   UNL     1      -0.715   5.874  -8.964  0.00  0.00    +0.137 C 
ATOM      8  O   UNL     1       1.777   5.645 -10.109  0.00  0.00    -0.246 OA
ATOM      9  O   UNL     1       3.888   5.398  -6.190  0.00  0.00    -0.265 OA
ATOM     10  C   UNL     1       0.493   5.893  -6.915  0.00  0.00    +0.171 A 
ATOM     11  N   UNL     1      -0.328   6.662  -6.158  0.00  0.00    -0.196 NA
ATOM     12  C   UNL     1       0.045   6.547  -4.868  0.00  0.00    +0.203 A 
ATOM     13  N   UNL     1      -0.816   6.595  -3.722  0.00  0.00    -0.278 N 
ATOM     14  C   UNL     1      -0.930   5.557  -2.786  0.00  0.00    +0.112 C 
ATOM     15  C   UNL     1      -2.423   4.888  -2.840  0.00  0.00    +0.112 C 
ATOM     16  N   UNL     1      -2.637   5.175  -4.372  0.00  0.00    -0.131 NA
ATOM     17  C   UNL     1      -3.158   6.263  -2.344  0.00  0.00    +0.023 C 
ATOM     18  C   UNL     1      -3.017   7.329  -3.335  0.00  0.00    +0.023 C 
ATOM     19  C   UNL     1      -1.607   7.808  -3.562  0.00  0.00    +0.094 C 
ENDROOT
BRANCH   1  20
ATOM     20  C   UNL     1       2.129   5.751  -3.779  0.00  0.00    +0.185 C 
BRANCH  20  23
ATOM     21  C   UNL     1       3.935   8.602  -2.072  0.00  0.00    +0.090 C 
ATOM     22  C   UNL     1       3.453   7.757  -2.573  0.00  0.00    -0.088 C 
ATOM     23  C   UNL     1       2.831   6.910  -3.192  0.00  0.00    -0.066 C 
ENDBRANCH  20  23
ENDBRANCH   1  20
BRANCH   4  24
ATOM     24  C   UNL     1       3.863   4.423  -8.763  0.00  0.00    +0.179 C 
BRANCH  24  25
ATOM     25  C   UNL     1       4.672   5.168  -9.744  0.00  0.00    +0.162 A 
ATOM     26  N   UNL     1       4.558   4.777 -11.038  0.00  0.00    -0.229 NA
ATOM     27  C   UNL     1       5.296   5.419 -11.975  0.00  0.00    +0.084 A 
ATOM     28  C   UNL     1       6.425   6.109 -11.555  0.00  0.00    +0.031 A 
ATOM     29  C   UNL     1       7.144   6.876 -12.460  0.00  0.00    +0.003 A 
ATOM     30  C   UNL     1       6.821   6.886 -13.811  0.00  0.00    +0.000 A 
ATOM     31  C   UNL     1       5.821   6.010 -14.210  0.00  0.00    +0.002 A 
ATOM     32  C   UNL     1       6.787   6.068 -10.230  0.00  0.00    +0.062 A 
ATOM     33  C   UNL     1       8.031   6.749  -9.763  0.00  0.00    +0.052 C 
ATOM     34  C   UNL     1       4.985   5.397 -13.316  0.00  0.00    +0.019 A 
ATOM     35  N   UNL     1       5.939   5.478  -9.368  0.00  0.00    -0.233 NA
ENDBRANCH  24  25
ENDBRANCH   4  24
TORSDOF 4
ENDMDL
MODEL 5
REMARK VINA RESULT:      -8.6      5.116     12.019
REMARK  Name = 
REMARK  4 active torsions:
REMARK  status: ('A' for Active; 'I' for Inactive)
REMARK    1  A    between atoms: C_3  and  C_4
REMARK    2  A    between atoms: C_4  and  N_5
REMARK    3  A    between atoms: N_19  and  C_20
REMARK    4  A    between atoms: C_20  and  C_21
REMARK                            x       y       z     vdW  Elec       q    Type
REMARK                         _______ _______ _______ _____ _____    ______ ____
ROOT
ATOM      1  N   UNL     1       2.406   5.859  -8.660  0.00  0.00    -0.282 N 
ATOM      2  C   UNL     1       2.205   5.963  -9.982  0.00  0.00    +0.154 A 
ATOM      3  C   UNL     1       2.953   5.692 -11.122  0.00  0.00    +0.284 A 
ATOM      4  N   UNL     1       2.477   5.981 -12.348  0.00  0.00    -0.240 N 
ATOM      5  C   UNL     1       1.360   6.703 -12.437  0.00  0.00    +0.335 A 
ATOM      6  N   UNL     1       0.585   6.936 -11.376  0.00  0.00    -0.263 N 
ATOM      7  C   UNL     1      -0.723   7.547 -11.478  0.00  0.00    +0.137 C 
ATOM      8  O   UNL     1       1.118   7.319 -13.511  0.00  0.00    -0.246 OA
ATOM      9  O   UNL     1       4.116   5.216 -10.968  0.00  0.00    -0.265 OA
ATOM     10  C   UNL     1       0.985   6.563 -10.147  0.00  0.00    +0.171 A 
ATOM     11  N   UNL     1       0.704   7.123  -8.944  0.00  0.00    -0.196 NA
ATOM     12  C   UNL     1       1.390   6.460  -7.992  0.00  0.00    +0.203 A 
ATOM     13  N   UNL     1       0.968   6.225  -6.641  0.00  0.00    -0.278 N 
ATOM     14  C   UNL     1       0.824   4.949  -6.078  0.00  0.00    +0.112 C 
ATOM     15  C   UNL     1      -0.748   4.637  -5.741  0.00  0.00    +0.112 C 
ATOM     16  N   UNL     1      -1.309   5.519  -6.917  0.00  0.00    -0.131 NA
ATOM     17  C   UNL     1      -0.842   5.829  -4.624  0.00  0.00    +0.023 C 
ATOM     18  C   UNL     1      -0.681   7.147  -5.239  0.00  0.00    +0.023 C 
ATOM     19  C   UNL     1       0.673   7.409  -5.845  0.00  0.00    +0.094 C 
ENDROOT
BRANCH   1  20
ATOM     20  C   UNL     1       3.352   4.942  -8.074  0.00  0.00    +0.185 C 
BRANCH  20  23
ATOM     21  C   UNL     1       4.951   6.471  -5.006  0.00  0.00    +0.090 C 
ATOM     22  C   UNL     1       4.491   5.987  -5.874  0.00  0.00    -0.088 C 
ATOM     23  C   UNL     1       4.057   5.533  -6.919  0.00  0.00    -0.066 C 
ENDBRANCH  20  23
ENDBRANCH   1  20
BRANCH   4  24
ATOM     24  C   UNL     1       3.028   5.316 -13.493  0.00  0.00    +0.179 C 
BRANCH  24  25
ATOM     25  C   UNL     1       4.117   6.057 -14.155  0.00  0.00    +0.162 A 
ATOM     26  N   UNL     1       3.893   6.434 -15.439  0.00  0.00    -0.229 NA
ATOM     27  C   UNL     1       4.871   7.101 -16.097  0.00  0.00    +0.084 A 
ATOM     28  C   UNL     1       6.171   6.985 -15.623  0.00  0.00    +0.031 A 
ATOM     29  C   UNL     1       7.185   7.742 -16.193  0.00  0.00    +0.003 A 
ATOM     30  C   UNL     1       6.950   8.540 -17.304  0.00  0.00    +0.000 A 
ATOM     31  C   UNL     1       5.685   8.451 -17.868  0.00  0.00    +0.002 A 
ATOM     32  C   UNL     1       6.429   6.160 -14.555  0.00  0.00    +0.062 A 
ATOM     33  C   UNL     1       7.827   5.968 -14.066  0.00  0.00    +0.052 C 
ATOM     34  C   UNL     1       4.632   7.866 -17.217  0.00  0.00    +0.019 A 
ATOM     35  N   UNL     1       5.377   5.614 -13.919  0.00  0.00    -0.233 NA
ENDBRANCH  24  25
ENDBRANCH   4  24
TORSDOF 4
ENDMDL
MODEL 6
REMARK VINA RESULT:      -8.4      3.099      4.838
REMARK  Name = 
REMARK  4 active torsions:
REMARK  status: ('A' for Active; 'I' for Inactive)
REMARK    1  A    between atoms: C_3  and  C_4
REMARK    2  A    between atoms: C_4  and  N_5
REMARK    3  A    between atoms: N_19  and  C_20
REMARK    4  A    between atoms: C_20  and  C_21
REMARK                            x       y       z     vdW  Elec       q    Type
REMARK                         _______ _______ _______ _____ _____    ______ ____
ROOT
ATOM      1  N   UNL     1       3.068   6.079  -9.850  0.00  0.00    -0.282 N 
ATOM      2  C   UNL     1       2.874   5.800  -8.553  0.00  0.00    +0.154 A 
ATOM      3  C   UNL     1       1.784   5.442  -7.768  0.00  0.00    +0.284 A 
ATOM      4  N   UNL     1       1.907   5.294  -6.435  0.00  0.00    -0.240 N 
ATOM      5  C   UNL     1       3.046   5.682  -5.860  0.00  0.00    +0.335 A 
ATOM      6  N   UNL     1       4.132   5.977  -6.577  0.00  0.00    -0.263 N 
ATOM      7  C   UNL     1       5.428   6.212  -5.978  0.00  0.00    +0.137 C 
ATOM      8  O   UNL     1       3.049   5.934  -4.625  0.00  0.00    -0.246 OA
ATOM      9  O   UNL     1       0.661   5.313  -8.338  0.00  0.00    -0.265 OA
ATOM     10  C   UNL     1       4.068   6.029  -7.920  0.00  0.00    +0.171 A 
ATOM     11  N   UNL     1       4.784   6.787  -8.788  0.00  0.00    -0.196 NA
ATOM     12  C   UNL     1       4.320   6.565 -10.034  0.00  0.00    +0.203 A 
ATOM     13  N   UNL     1       5.087   6.579 -11.246  0.00  0.00    -0.278 N 
ATOM     14  C   UNL     1       5.187   5.487 -12.120  0.00  0.00    +0.112 C 
ATOM     15  C   UNL     1       6.716   4.901 -12.144  0.00  0.00    +0.112 C 
ATOM     16  N   UNL     1       7.030   5.302 -10.655  0.00  0.00    -0.131 NA
ATOM     17  C   UNL     1       7.332   6.274 -12.784  0.00  0.00    +0.023 C 
ATOM     18  C   UNL     1       7.207   7.397 -11.854  0.00  0.00    +0.023 C 
ATOM     19  C   UNL     1       5.794   7.817 -11.546  0.00  0.00    +0.094 C 
ENDROOT
BRANCH   1  20
ATOM     20  C   UNL     1       2.208   5.591 -10.900  0.00  0.00    +0.185 C 
BRANCH  20  23
ATOM     21  C   UNL     1      -0.766   7.790 -11.694  0.00  0.00    +0.090 C 
ATOM     22  C   UNL     1       0.066   7.118 -11.459  0.00  0.00    -0.088 C 
ATOM     23  C   UNL     1       1.045   6.474 -11.121  0.00  0.00    -0.066 C 
ENDBRANCH  20  23
ENDBRANCH   1  20
BRANCH   4  24
ATOM     24  C   UNL     1       0.938   4.518  -5.718  0.00  0.00    +0.179 C 
BRANCH  24  25
ATOM     25  C   UNL     1       0.078   5.308  -4.819  0.00  0.00    +0.162 A 
ATOM     26  N   UNL     1      -0.019   4.866  -3.539  0.00  0.00    -0.229 NA
ATOM     27  C   UNL     1      -0.813   5.548  -2.679  0.00  0.00    +0.084 A 
ATOM     28  C   UNL     1      -1.805   6.360  -3.211  0.00  0.00    +0.031 A 
ATOM     29  C   UNL     1      -2.564   7.165  -2.374  0.00  0.00    +0.003 A 
ATOM     30  C   UNL     1      -2.426   7.100  -0.994  0.00  0.00    +0.000 A 
ATOM     31  C   UNL     1      -1.575   6.118  -0.507  0.00  0.00    +0.002 A 
ATOM     32  C   UNL     1      -1.989   6.397  -4.573  0.00  0.00    +0.062 A 
ATOM     33  C   UNL     1      -3.089   7.212  -5.167  0.00  0.00    +0.052 C 
ATOM     34  C   UNL     1      -0.688   5.453  -1.311  0.00  0.00    +0.019 A 
ATOM     35  N   UNL     1      -1.092   5.754  -5.342  0.00  0.00    -0.233 NA
ENDBRANCH  24  25
ENDBRANCH   4  24
TORSDOF 4
ENDMDL
MODEL 7
REMARK VINA RESULT:      -8.1      5.897     12.567
REMARK  Name = 
REMARK  4 active torsions:
REMARK  status: ('A' for Active; 'I' for Inactive)
REMARK    1  A    between atoms: C_3  and  C_4
REMARK    2  A    between atoms: C_4  and  N_5
REMARK    3  A    between atoms: N_19  and  C_20
REMARK    4  A    between atoms: C_20  and  C_21
REMARK                            x       y       z     vdW  Elec       q    Type
REMARK                         _______ _______ _______ _____ _____    ______ ____
ROOT
ATOM      1  N   UNL     1       3.240   5.940  -9.731  0.00  0.00    -0.282 N 
ATOM      2  C   UNL     1       2.514   6.158 -10.837  0.00  0.00    +0.154 A 
ATOM      3  C   UNL     1       2.752   6.103 -12.205  0.00  0.00    +0.284 A 
ATOM      4  N   UNL     1       1.801   6.459 -13.090  0.00  0.00    -0.240 N 
ATOM      5  C   UNL     1       0.696   7.044 -12.626  0.00  0.00    +0.335 A 
ATOM      6  N   UNL     1       0.403   7.065 -11.324  0.00  0.00    -0.263 N 
ATOM      7  C   UNL     1      -0.873   7.519 -10.814  0.00  0.00    +0.137 C 
ATOM      8  O   UNL     1      -0.004   7.734 -13.416  0.00  0.00    -0.246 OA
ATOM      9  O   UNL     1       3.908   5.761 -12.592  0.00  0.00    -0.265 OA
ATOM     10  C   UNL     1       1.292   6.617 -10.419  0.00  0.00    +0.171 A 
ATOM     11  N   UNL     1       1.485   7.008  -9.135  0.00  0.00    -0.196 NA
ATOM     12  C   UNL     1       2.543   6.337  -8.637  0.00  0.00    +0.203 A 
ATOM     13  N   UNL     1       2.722   5.911  -7.279  0.00  0.00    -0.278 N 
ATOM     14  C   UNL     1       2.909   4.575  -6.898  0.00  0.00    +0.112 C 
ATOM     15  C   UNL     1       1.635   4.037  -6.021  0.00  0.00    +0.112 C 
ATOM     16  N   UNL     1       0.585   4.963  -6.739  0.00  0.00    -0.131 NA
ATOM     17  C   UNL     1       1.919   5.084  -4.796  0.00  0.00    +0.023 C 
ATOM     18  C   UNL     1       1.723   6.469  -5.224  0.00  0.00    +0.023 C 
ATOM     19  C   UNL     1       2.693   6.958  -6.267  0.00  0.00    +0.094 C 
ENDROOT
BRANCH   1  20
ATOM     20  C   UNL     1       4.404   5.090  -9.704  0.00  0.00    +0.185 C 
BRANCH  20  23
ATOM     21  C   UNL     1       7.724   6.846 -10.156  0.00  0.00    +0.090 C 
ATOM     22  C   UNL     1       6.764   6.325 -10.070  0.00  0.00    -0.088 C 
ATOM     23  C   UNL     1       5.654   5.853  -9.893  0.00  0.00    -0.066 C 
ENDBRANCH  20  23
ENDBRANCH   1  20
BRANCH   4  24
ATOM     24  C   UNL     1       1.885   5.992 -14.443  0.00  0.00    +0.179 C 
BRANCH  24  25
ATOM     25  C   UNL     1       1.208   6.859 -15.423  0.00  0.00    +0.162 A 
ATOM     26  N   UNL     1       0.086   6.356 -15.998  0.00  0.00    -0.229 NA
ATOM     27  C   UNL     1      -0.561   7.108 -16.920  0.00  0.00    +0.084 A 
ATOM     28  C   UNL     1       0.150   8.118 -17.553  0.00  0.00    +0.031 A 
ATOM     29  C   UNL     1      -0.501   8.987 -18.416  0.00  0.00    +0.003 A 
ATOM     30  C   UNL     1      -1.837   8.804 -18.748  0.00  0.00    +0.000 A 
ATOM     31  C   UNL     1      -2.440   7.654 -18.258  0.00  0.00    +0.002 A 
ATOM     32  C   UNL     1       1.486   8.281 -17.273  0.00  0.00    +0.062 A 
ATOM     33  C   UNL     1       2.289   9.318 -17.986  0.00  0.00    +0.052 C 
ATOM     34  C   UNL     1      -1.877   6.899 -17.265  0.00  0.00    +0.019 A 
ATOM     35  N   UNL     1       2.011   7.542 -16.278  0.00  0.00    -0.233 NA
ENDBRANCH  24  25
ENDBRANCH   4  24
TORSDOF 4
ENDMDL
MODEL 8
REMARK VINA RESULT:      -8.0      2.958      9.520
REMARK  Name = 
REMARK  4 active torsions:
REMARK  status: ('A' for Active; 'I' for Inactive)
REMARK    1  A    between atoms: C_3  and  C_4
REMARK    2  A    between atoms: C_4  and  N_5
REMARK    3  A    between atoms: N_19  and  C_20
REMARK    4  A    between atoms: C_20  and  C_21
REMARK                            x       y       z     vdW  Elec       q    Type
REMARK                         _______ _______ _______ _____ _____    ______ ____
ROOT
ATOM      1  N   UNL     1       1.352   5.920  -4.166  0.00  0.00    -0.282 N 
ATOM      2  C   UNL     1       1.360   5.432  -5.415  0.00  0.00    +0.154 A 
ATOM      3  C   UNL     1       2.335   4.978  -6.295  0.00  0.00    +0.284 A 
ATOM      4  N   UNL     1       2.017   4.604  -7.549  0.00  0.00    -0.240 N 
ATOM      5  C   UNL     1       0.784   4.855  -7.989  0.00  0.00    +0.335 A 
ATOM      6  N   UNL     1      -0.194   5.235  -7.165  0.00  0.00    -0.263 N 
ATOM      7  C   UNL     1      -1.578   5.327  -7.579  0.00  0.00    +0.137 C 
ATOM      8  O   UNL     1       0.578   4.894  -9.233  0.00  0.00    -0.246 OA
ATOM      9  O   UNL     1       3.537   4.981  -5.899  0.00  0.00    -0.265 OA
ATOM     10  C   UNL     1       0.072   5.516  -5.876  0.00  0.00    +0.171 A 
ATOM     11  N   UNL     1      -0.544   6.387  -5.040  0.00  0.00    -0.196 NA
ATOM     12  C   UNL     1       0.117   6.394  -3.865  0.00  0.00    +0.203 A 
ATOM     13  N   UNL     1      -0.455   6.590  -2.564  0.00  0.00    -0.278 N 
ATOM     14  C   UNL     1      -0.359   5.659  -1.519  0.00  0.00    +0.112 C 
ATOM     15  C   UNL     1      -1.831   5.040  -1.157  0.00  0.00    +0.112 C 
ATOM     16  N   UNL     1      -2.391   5.174  -2.621  0.00  0.00    -0.131 NA
ATOM     17  C   UNL     1      -2.417   6.484  -0.658  0.00  0.00    +0.023 C 
ATOM     18  C   UNL     1      -2.499   7.436  -1.765  0.00  0.00    +0.023 C 
ATOM     19  C   UNL     1      -1.176   7.839  -2.360  0.00  0.00    +0.094 C 
ENDROOT
BRANCH   1  20
ATOM     20  C   UNL     1       2.388   5.643  -3.202  0.00  0.00    +0.185 C 
BRANCH  20  23
ATOM     21  C   UNL     1       3.890   8.708  -1.573  0.00  0.00    +0.090 C 
ATOM     22  C   UNL     1       3.498   7.802  -2.047  0.00  0.00    -0.088 C 
ATOM     23  C   UNL     1       2.978   6.879  -2.649  0.00  0.00    -0.066 C 
ENDBRANCH  20  23
ENDBRANCH   1  20
BRANCH   4  24
ATOM     24  C   UNL     1       2.907   3.746  -8.276  0.00  0.00    +0.179 C 
BRANCH  24  25
ATOM     25  C   UNL     1       3.749   4.447  -9.263  0.00  0.00    +0.162 A 
ATOM     26  N   UNL     1       4.866   5.047  -8.780  0.00  0.00    -0.229 NA
ATOM     27  C   UNL     1       5.662   5.721  -9.645  0.00  0.00    +0.084 A 
ATOM     28  C   UNL     1       5.109   6.145 -10.845  0.00  0.00    +0.031 A 
ATOM     29  C   UNL     1       5.915   6.735 -11.809  0.00  0.00    +0.003 A 
ATOM     30  C   UNL     1       7.252   7.010 -11.558  0.00  0.00    +0.000 A 
ATOM     31  C   UNL     1       7.699   6.764 -10.266  0.00  0.00    +0.002 A 
ATOM     32  C   UNL     1       3.774   5.925 -11.088  0.00  0.00    +0.062 A 
ATOM     33  C   UNL     1       3.140   6.427 -12.343  0.00  0.00    +0.052 C 
ATOM     34  C   UNL     1       6.980   6.016  -9.373  0.00  0.00    +0.019 A 
ATOM     35  N   UNL     1       3.095   5.170 -10.207  0.00  0.00    -0.233 NA
ENDBRANCH  24  25
ENDBRANCH   4  24
TORSDOF 4
ENDMDL
MODEL 9
REMARK VINA RESULT:      -7.9      3.610      9.897
REMARK  Name = 
REMARK  4 active torsions:
REMARK  status: ('A' for Active; 'I' for Inactive)
REMARK    1  A    between atoms: C_3  and  C_4
REMARK    2  A    between atoms: C_4  and  N_5
REMARK    3  A    between atoms: N_19  and  C_20
REMARK    4  A    between atoms: C_20  and  C_21
REMARK                            x       y       z     vdW  Elec       q    Type
REMARK                         _______ _______ _______ _____ _____    ______ ____
ROOT
ATOM      1  N   UNL     1       1.200   5.211  -5.142  0.00  0.00    -0.282 N 
ATOM      2  C   UNL     1       1.236   5.370  -6.473  0.00  0.00    +0.154 A 
ATOM      3  C   UNL     1       0.331   5.207  -7.515  0.00  0.00    +0.284 A 
ATOM      4  N   UNL     1       0.707   5.388  -8.796  0.00  0.00    -0.240 N 
ATOM      5  C   UNL     1       2.006   5.542  -9.056  0.00  0.00    +0.335 A 
ATOM      6  N   UNL     1       2.897   5.760  -8.087  0.00  0.00    -0.263 N 
ATOM      7  C   UNL     1       4.273   6.120  -8.353  0.00  0.00    +0.137 C 
ATOM      8  O   UNL     1       2.424   5.312 -10.223  0.00  0.00    -0.246 OA
ATOM      9  O   UNL     1      -0.842   4.827  -7.227  0.00  0.00    -0.265 OA
ATOM     10  C   UNL     1       2.529   5.690  -6.795  0.00  0.00    +0.171 A 
ATOM     11  N   UNL     1       3.259   5.331  -5.709  0.00  0.00    -0.196 NA
ATOM     12  C   UNL     1       2.451   5.330  -4.631  0.00  0.00    +0.203 A 
ATOM     13  N   UNL     1       2.821   5.661  -3.285  0.00  0.00    -0.278 N 
ATOM     14  C   UNL     1       2.224   6.688  -2.540  0.00  0.00    +0.112 C 
ATOM     15  C   UNL     1       3.295   7.891  -2.246  0.00  0.00    +0.112 C 
ATOM     16  N   UNL     1       4.111   7.664  -3.573  0.00  0.00    -0.131 NA
ATOM     17  C   UNL     1       4.259   6.933  -1.333  0.00  0.00    +0.023 C 
ATOM     18  C   UNL     1       4.861   5.868  -2.134  0.00  0.00    +0.023 C 
ATOM     19  C   UNL     1       3.890   4.865  -2.698  0.00  0.00    +0.094 C 
ENDROOT
BRANCH   1  20
ATOM     20  C   UNL     1      -0.017   5.272  -4.371  0.00  0.00    +0.185 C 
BRANCH  20  23
ATOM     21  C   UNL     1      -1.873   8.563  -4.562  0.00  0.00    +0.090 C 
ATOM     22  C   UNL     1      -1.300   7.633  -4.488  0.00  0.00    -0.088 C 
ATOM     23  C   UNL     1      -0.713   6.565  -4.533  0.00  0.00    -0.066 C 
ENDBRANCH  20  23
ENDBRANCH   1  20
BRANCH   4  24
ATOM     24  C   UNL     1      -0.289   5.653  -9.793  0.00  0.00    +0.179 C 
BRANCH  24  25
ATOM     25  C   UNL     1       0.254   5.853 -11.149  0.00  0.00    +0.162 A 
ATOM     26  N   UNL     1      -0.068   7.022 -11.758  0.00  0.00    -0.229 NA
ATOM     27  C   UNL     1       0.392   7.245 -13.012  0.00  0.00    +0.084 A 
ATOM     28  C   UNL     1       0.771   6.147 -13.772  0.00  0.00    +0.031 A 
ATOM     29  C   UNL     1       1.357   6.335 -15.016  0.00  0.00    +0.003 A 
ATOM     30  C   UNL     1       1.476   7.602 -15.571  0.00  0.00    +0.000 A 
ATOM     31  C   UNL     1       0.884   8.640 -14.865  0.00  0.00    +0.002 A 
ATOM     32  C   UNL     1       0.613   4.882 -13.258  0.00  0.00    +0.062 A 
ATOM     33  C   UNL     1       0.954   3.682 -14.077  0.00  0.00    +0.052 C 
ATOM     34  C   UNL     1       0.477   8.503 -13.565  0.00  0.00    +0.019 A 
ATOM     35  N   UNL     1       0.233   4.774 -11.972  0.00  0.00    -0.233 NA
ENDBRANCH  24  25
ENDBRANCH   4  24
TORSDOF 4
ENDMDL
