MODEL 1
REMARK VINA RESULT:      -4.6      0.000      0.000
REMARK  Name = 
REMARK  1 active torsions:
REMARK  status: ('A' for Active; 'I' for Inactive)
REMARK    1  A    between atoms: C_2  and  C_3
REMARK                            x       y       z     vdW  Elec       q    Type
REMARK                         _______ _______ _______ _____ _____    ______ ____
ROOT
ATOM      1  C   UNL     1      -2.053   5.689  -4.597  0.00  0.00    +0.011 A 
ATOM      2  C   UNL     1      -0.702   5.659  -4.287  0.00  0.00    -0.002 A 
ATOM      3  C   UNL     1       0.195   5.794  -5.339  0.00  0.00    -0.000 A 
ATOM      4  C   UNL     1      -0.211   5.610  -6.654  0.00  0.00    -0.000 A 
ATOM      5  C   UNL     1      -1.539   5.244  -6.834  0.00  0.00    -0.000 A 
ATOM      6  C   UNL     1      -2.454   5.767  -5.926  0.00  0.00    -0.002 A 
ENDROOT
BRANCH   1   8
ATOM      7  O   UNL     1      -2.673   4.659  -2.575  0.00  0.00    -0.215 OA
ATOM      8  C   UNL     1      -3.079   5.563  -3.533  0.00  0.00    +0.209 C 
ENDBRANCH   1   8
TORSDOF 1
ENDMDL
MODEL 2
REMARK VINA RESULT:      -4.6     11.298     12.149
REMARK  Name = 
REMARK  1 active torsions:
REMARK  status: ('A' for Active; 'I' for Inactive)
REMARK    1  A    between atoms: C_2  and  C_3
REMARK                            x       y       z     vdW  Elec       q    Type
REMARK                         _______ _______ _______ _____ _____    ______ ____
ROOT
ATOM      1  C   UNL     1       7.123   6.568 -13.254  0.00  0.00    +0.011 A 
ATOM      2  C   UNL     1       8.183   5.823 -12.758  0.00  0.00    -0.002 A 
ATOM      3  C   UNL     1       8.323   5.758 -11.378  0.00  0.00    -0.000 A 
ATOM      4  C   UNL     1       7.673   6.662 -10.549  0.00  0.00    -0.000 A 
ATOM      5  C   UNL     1       6.925   7.644 -11.188  0.00  0.00    -0.000 A 
ATOM      6  C   UNL     1       6.308   7.274 -12.378  0.00  0.00    -0.002 A 
ENDROOT
BRANCH   1   8
ATOM      7  O   UNL     1       6.326   7.900 -15.021  0.00  0.00    -0.215 OA
ATOM      8  C   UNL     1       6.892   6.681 -14.715  0.00  0.00    +0.209 C 
ENDBRANCH   1   8
TORSDOF 1
ENDMDL
MODEL 3
REMARK VINA RESULT:      -4.6     10.907     11.394
REMARK  Name = 
REMARK  1 active torsions:
REMARK  status: ('A' for Active; 'I' for Inactive)
REMARK    1  A    between atoms: C_2  and  C_3
REMARK                            x       y       z     vdW  Elec       q    Type
REMARK                         _______ _______ _______ _____ _____    ______ ____
ROOT
ATOM      1  C   UNL     1       6.830   6.116 -12.654  0.00  0.00    +0.011 A 
ATOM      2  C   UNL     1       6.372   7.331 -12.168  0.00  0.00    -0.002 A 
ATOM      3  C   UNL     1       6.972   7.822 -11.015  0.00  0.00    -0.000 A 
ATOM      4  C   UNL     1       7.726   6.994 -10.193  0.00  0.00    -0.000 A 
ATOM      5  C   UNL     1       7.796   5.659 -10.575  0.00  0.00    -0.000 A 
ATOM      6  C   UNL     1       7.790   5.406 -11.942  0.00  0.00    -0.002 A 
ENDROOT
BRANCH   1   8
ATOM      7  O   UNL     1       5.207   4.683 -13.575  0.00  0.00    -0.215 OA
ATOM      8  C   UNL     1       6.253   5.525 -13.886  0.00  0.00    +0.209 C 
ENDBRANCH   1   8
TORSDOF 1
ENDMDL
MODEL 4
REMARK VINA RESULT:      -4.6      7.699      9.195
REMARK  Name = 
REMARK  1 active torsions:
REMARK  status: ('A' for Active; 'I' for Inactive)
REMARK    1  A    between atoms: C_2  and  C_3
REMARK                            x       y       z     vdW  Elec       q    Type
REMARK                         _______ _______ _______ _____ _____    ______ ____
ROOT
ATOM      1  C   UNL     1       5.696   5.820  -9.512  0.00  0.00    +0.011 A 
ATOM      2  C   UNL     1       4.930   6.711 -10.248  0.00  0.00    -0.002 A 
ATOM      3  C   UNL     1       5.586   7.471 -11.209  0.00  0.00    -0.000 A 
ATOM      4  C   UNL     1       6.968   7.602 -11.196  0.00  0.00    -0.000 A 
ATOM      5  C   UNL     1       7.629   6.970 -10.149  0.00  0.00    -0.000 A 
ATOM      6  C   UNL     1       7.073   5.778  -9.697  0.00  0.00    -0.002 A 
ENDROOT
BRANCH   1   8
ATOM      7  O   UNL     1       4.054   4.209  -9.019  0.00  0.00    -0.215 OA
ATOM      8  C   UNL     1       5.074   4.961  -8.475  0.00  0.00    +0.209 C 
ENDBRANCH   1   8
TORSDOF 1
ENDMDL
MODEL 5
REMARK VINA RESULT:      -4.5      8.864     10.507
REMARK  Name = 
REMARK  1 active torsions:
REMARK  status: ('A' for Active; 'I' for Inactive)
REMARK    1  A    between atoms: C_2  and  C_3
REMARK                            x       y       z     vdW  Elec       q    Type
REMARK                         _______ _______ _______ _____ _____    ______ ____
ROOT
ATOM      1  C   UNL     1       7.036   5.702 -10.969  0.00  0.00    +0.011 A 
ATOM      2  C   UNL     1       5.757   5.668 -11.504  0.00  0.00    -0.002 A 
ATOM      3  C   UNL     1       4.697   5.873 -10.630  0.00  0.00    -0.000 A 
ATOM      4  C   UNL     1       4.870   5.762  -9.257  0.00  0.00    -0.000 A 
ATOM      5  C   UNL     1       6.141   5.394  -8.832  0.00  0.00    -0.000 A 
ATOM      6  C   UNL     1       7.206   5.854  -9.598  0.00  0.00    -0.002 A 
ENDROOT
BRANCH   1   8
ATOM      7  O   UNL     1       7.919   4.681 -12.896  0.00  0.00    -0.215 OA
ATOM      8  C   UNL     1       8.226   5.505 -11.833  0.00  0.00    +0.209 C 
ENDBRANCH   1   8
TORSDOF 1
ENDMDL
MODEL 6
REMARK VINA RESULT:      -4.4      7.680      9.043
REMARK  Name = 
REMARK  1 active torsions:
REMARK  status: ('A' for Active; 'I' for Inactive)
REMARK    1  A    between atoms: C_2  and  C_3
REMARK                            x       y       z     vdW  Elec       q    Type
REMARK                         _______ _______ _______ _____ _____    ______ ____
ROOT
ATOM      1  C   UNL     1       5.616   5.856  -9.496  0.00  0.00    +0.011 A 
ATOM      2  C   UNL     1       7.001   5.822  -9.549  0.00  0.00    -0.002 A 
ATOM      3  C   UNL     1       7.635   6.820 -10.278  0.00  0.00    -0.000 A 
ATOM      4  C   UNL     1       6.933   7.592 -11.194  0.00  0.00    -0.000 A 
ATOM      5  C   UNL     1       5.590   7.271 -11.357  0.00  0.00    -0.000 A 
ATOM      6  C   UNL     1       4.922   6.814 -10.226  0.00  0.00    -0.002 A 
ENDROOT
BRANCH   1   8
ATOM      7  O   UNL     1       3.732   4.450  -9.421  0.00  0.00    -0.215 OA
ATOM      8  C   UNL     1       4.860   4.836  -8.729  0.00  0.00    +0.209 C 
ENDBRANCH   1   8
TORSDOF 1
ENDMDL
MODEL 7
REMARK VINA RESULT:      -4.4      2.197      3.518
REMARK  Name = 
REMARK  1 active torsions:
REMARK  status: ('A' for Active; 'I' for Inactive)
REMARK    1  A    between atoms: C_2  and  C_3
REMARK                            x       y       z     vdW  Elec       q    Type
REMARK                         _______ _______ _______ _____ _____    ______ ____
ROOT
ATOM      1  C   UNL     1      -0.174   5.764  -6.281  0.00  0.00    +0.011 A 
ATOM      2  C   UNL     1      -1.422   5.287  -6.650  0.00  0.00    -0.002 A 
ATOM      3  C   UNL     1      -2.528   6.038  -6.273  0.00  0.00    -0.000 A 
ATOM      4  C   UNL     1      -2.430   7.008  -5.285  0.00  0.00    -0.000 A 
ATOM      5  C   UNL     1      -1.184   7.139  -4.683  0.00  0.00    -0.000 A 
ATOM      6  C   UNL     1      -0.078   6.905  -5.493  0.00  0.00    -0.002 A 
ENDROOT
BRANCH   1   8
ATOM      7  O   UNL     1       1.150   3.848  -5.951  0.00  0.00    -0.215 OA
ATOM      8  C   UNL     1       1.060   5.031  -6.654  0.00  0.00    +0.209 C 
ENDBRANCH   1   8
TORSDOF 1
ENDMDL
MODEL 8
REMARK VINA RESULT:      -4.4      2.114      3.509
REMARK  Name = 
REMARK  1 active torsions:
REMARK  status: ('A' for Active; 'I' for Inactive)
REMARK    1  A    between atoms: C_2  and  C_3
REMARK                            x       y       z     vdW  Elec       q    Type
REMARK                         _______ _______ _______ _____ _____    ______ ____
ROOT
ATOM      1  C   UNL     1      -2.507   6.064  -5.045  0.00  0.00    +0.011 A 
ATOM      2  C   UNL     1      -2.899   5.220  -4.017  0.00  0.00    -0.002 A 
ATOM      3  C   UNL     1      -3.164   5.801  -2.783  0.00  0.00    -0.000 A 
ATOM      4  C   UNL     1      -2.723   7.084  -2.487  0.00  0.00    -0.000 A 
ATOM      5  C   UNL     1      -1.975   7.713  -3.476  0.00  0.00    -0.000 A 
ATOM      6  C   UNL     1      -2.316   7.417  -4.791  0.00  0.00    -0.002 A 
ENDROOT
BRANCH   1   8
ATOM      7  O   UNL     1      -0.898   5.131  -6.486  0.00  0.00    -0.215 OA
ATOM      8  C   UNL     1      -2.216   5.528  -6.397  0.00  0.00    +0.209 C 
ENDBRANCH   1   8
TORSDOF 1
ENDMDL
MODEL 9
REMARK VINA RESULT:      -4.4      7.977      9.358
REMARK  Name = 
REMARK  1 active torsions:
REMARK  status: ('A' for Active; 'I' for Inactive)
REMARK    1  A    between atoms: C_2  and  C_3
REMARK                            x       y       z     vdW  Elec       q    Type
REMARK                         _______ _______ _______ _____ _____    ______ ____
ROOT
ATOM      1  C   UNL     1       4.991   6.541 -10.313  0.00  0.00    +0.011 A 
ATOM      2  C   UNL     1       5.789   5.661  -9.600  0.00  0.00    -0.002 A 
ATOM      3  C   UNL     1       7.146   5.951  -9.522  0.00  0.00    -0.000 A 
ATOM      4  C   UNL     1       7.734   6.858 -10.394  0.00  0.00    -0.000 A 
ATOM      5  C   UNL     1       6.895   7.406 -11.357  0.00  0.00    -0.000 A 
ATOM      6  C   UNL     1       5.573   7.613 -10.981  0.00  0.00    -0.002 A 
ENDROOT
BRANCH   1   8
ATOM      7  O   UNL     1       3.139   6.392 -11.756  0.00  0.00    -0.215 OA
ATOM      8  C   UNL     1       3.530   6.313 -10.436  0.00  0.00    +0.209 C 
ENDBRANCH   1   8
TORSDOF 1
ENDMDL
