MODEL 1
REMARK VINA RESULT:      -5.4      0.000      0.000
REMARK  Name = 
REMARK  6 active torsions:
REMARK  status: ('A' for Active; 'I' for Inactive)
REMARK    1  A    between atoms: C_2  and  C_3
REMARK    2  A    between atoms: C_3  and  C_4
REMARK    3  A    between atoms: C_4  and  O_5
REMARK    4  A    between atoms: O_5  and  C_6
REMARK    5  A    between atoms: C_6  and  C_7
REMARK    6  A    between atoms: C_12  and  O_13
REMARK                            x       y       z     vdW  Elec       q    Type
REMARK                         _______ _______ _______ _____ _____    ______ ____
ROOT
ATOM      1  C   UNL     1       5.370   6.038 -10.445  0.00  0.00    +0.010 A 
ATOM      2  C   UNL     1       5.594   5.631 -11.743  0.00  0.00    +0.038 A 
ATOM      3  C   UNL     1       6.880   5.324 -12.165  0.00  0.00    +0.177 A 
ATOM      4  C   UNL     1       7.980   5.433 -11.323  0.00  0.00    +0.229 A 
ATOM      5  O   UNL     1       9.158   5.985 -11.838  0.00  0.00    -0.283 OA
ATOM      6  C   UNL     1       7.702   5.535  -9.965  0.00  0.00    +0.045 A 
ATOM      7  C   UNL     1       6.399   5.777  -9.547  0.00  0.00    +0.002 A 
ENDROOT
BRANCH   3   8
ATOM      8  O   UNL     1       7.150   4.850 -13.451  0.00  0.00    -0.468 OA
ATOM      9  C   UNL     1       6.935   5.662 -14.583  0.00  0.00    +0.253 C 
ENDBRANCH   3   8
BRANCH   1  10
ATOM     10  C   UNL     1       4.326   6.994 -10.039  0.00  0.00    +0.169 C 
BRANCH  10  11
ATOM     11  O   UNL     1       3.044   6.491 -10.087  0.00  0.00    -0.349 OA
BRANCH  11  12
ATOM     12  C   UNL     1       2.676   6.147  -8.780  0.00  0.00    +0.143 C 
BRANCH  12  13
ATOM     13  C   UNL     1       2.612   7.380  -7.886  0.00  0.00    +0.032 C 
BRANCH  13  15
ATOM     14  C   UNL     1       4.069   5.854  -6.551  0.00  0.00    +0.000 C 
ATOM     15  C   UNL     1       3.102   7.025  -6.502  0.00  0.00    +0.003 C 
ENDBRANCH  13  15
ENDBRANCH  12  13
ENDBRANCH  11  12
ENDBRANCH  10  11
ENDBRANCH   1  10
TORSDOF 6
ENDMDL
MODEL 2
REMARK VINA RESULT:      -5.3      1.709      6.188
REMARK  Name = 
REMARK  6 active torsions:
REMARK  status: ('A' for Active; 'I' for Inactive)
REMARK    1  A    between atoms: C_2  and  C_3
REMARK    2  A    between atoms: C_3  and  C_4
REMARK    3  A    between atoms: C_4  and  O_5
REMARK    4  A    between atoms: O_5  and  C_6
REMARK    5  A    between atoms: C_6  and  C_7
REMARK    6  A    between atoms: C_12  and  O_13
REMARK                            x       y       z     vdW  Elec       q    Type
REMARK                         _______ _______ _______ _____ _____    ______ ____
ROOT
ATOM      1  C   UNL     1       5.537   5.620  -9.165  0.00  0.00    +0.010 A 
ATOM      2  C   UNL     1       4.885   5.353  -7.980  0.00  0.00    +0.038 A 
ATOM      3  C   UNL     1       3.667   5.958  -7.703  0.00  0.00    +0.177 A 
ATOM      4  C   UNL     1       3.074   6.860  -8.578  0.00  0.00    +0.229 A 
ATOM      5  O   UNL     1       2.484   8.011  -8.044  0.00  0.00    -0.283 OA
ATOM      6  C   UNL     1       3.575   6.873  -9.874  0.00  0.00    +0.045 A 
ATOM      7  C   UNL     1       4.763   6.208 -10.158  0.00  0.00    +0.002 A 
ENDROOT
BRANCH   3   8
ATOM      8  O   UNL     1       2.940   5.674  -6.544  0.00  0.00    -0.468 OA
ATOM      9  C   UNL     1       2.211   4.474  -6.421  0.00  0.00    +0.253 C 
ENDBRANCH   3   8
BRANCH   1  10
ATOM     10  C   UNL     1       7.001   5.652  -9.323  0.00  0.00    +0.169 C 
BRANCH  10  11
ATOM     11  O   UNL     1       7.437   6.317 -10.449  0.00  0.00    -0.349 OA
BRANCH  11  12
ATOM     12  C   UNL     1       8.226   5.426 -11.187  0.00  0.00    +0.143 C 
BRANCH  12  13
ATOM     13  C   UNL     1       8.473   5.950 -12.596  0.00  0.00    +0.032 C 
BRANCH  13  15
ATOM     14  C   UNL     1       6.472   6.848 -13.789  0.00  0.00    +0.000 C 
ATOM     15  C   UNL     1       7.293   5.608 -13.476  0.00  0.00    +0.003 C 
ENDBRANCH  13  15
ENDBRANCH  12  13
ENDBRANCH  11  12
ENDBRANCH  10  11
ENDBRANCH   1  10
TORSDOF 6
ENDMDL
MODEL 3
REMARK VINA RESULT:      -5.3      5.106      9.054
REMARK  Name = 
REMARK  6 active torsions:
REMARK  status: ('A' for Active; 'I' for Inactive)
REMARK    1  A    between atoms: C_2  and  C_3
REMARK    2  A    between atoms: C_3  and  C_4
REMARK    3  A    between atoms: C_4  and  O_5
REMARK    4  A    between atoms: O_5  and  C_6
REMARK    5  A    between atoms: C_6  and  C_7
REMARK    6  A    between atoms: C_12  and  O_13
REMARK                            x       y       z     vdW  Elec       q    Type
REMARK                         _______ _______ _______ _____ _____    ______ ____
ROOT
ATOM      1  C   UNL     1       0.116   5.310  -6.680  0.00  0.00    +0.010 A 
ATOM      2  C   UNL     1       0.236   5.224  -5.310  0.00  0.00    +0.038 A 
ATOM      3  C   UNL     1      -0.848   5.517  -4.495  0.00  0.00    +0.177 A 
ATOM      4  C   UNL     1      -2.072   5.927  -5.011  0.00  0.00    +0.229 A 
ATOM      5  O   UNL     1      -2.747   6.971  -4.369  0.00  0.00    -0.283 OA
ATOM      6  C   UNL     1      -2.265   5.706  -6.370  0.00  0.00    +0.045 A 
ATOM      7  C   UNL     1      -1.186   5.347  -7.169  0.00  0.00    +0.002 A 
ENDROOT
BRANCH   3   8
ATOM      8  O   UNL     1      -0.794   5.387  -3.105  0.00  0.00    -0.468 OA
ATOM      9  C   UNL     1       0.442   5.332  -2.430  0.00  0.00    +0.253 C 
ENDBRANCH   3   8
BRANCH   1  10
ATOM     10  C   UNL     1       1.204   5.702  -7.591  0.00  0.00    +0.169 C 
BRANCH  10  11
ATOM     11  O   UNL     1       1.697   4.674  -8.366  0.00  0.00    -0.349 OA
BRANCH  11  12
ATOM     12  C   UNL     1       1.654   5.093  -9.701  0.00  0.00    +0.143 C 
BRANCH  12  13
ATOM     13  C   UNL     1       0.461   4.483 -10.428  0.00  0.00    +0.032 C 
BRANCH  13  15
ATOM     14  C   UNL     1      -0.095   6.863 -10.943  0.00  0.00    +0.000 C 
ATOM     15  C   UNL     1      -0.030   5.445 -11.485  0.00  0.00    +0.003 C 
ENDBRANCH  13  15
ENDBRANCH  12  13
ENDBRANCH  11  12
ENDBRANCH  10  11
ENDBRANCH   1  10
TORSDOF 6
ENDMDL
MODEL 4
REMARK VINA RESULT:      -5.3      1.329      2.079
REMARK  Name = 
REMARK  6 active torsions:
REMARK  status: ('A' for Active; 'I' for Inactive)
REMARK    1  A    between atoms: C_2  and  C_3
REMARK    2  A    between atoms: C_3  and  C_4
REMARK    3  A    between atoms: C_4  and  O_5
REMARK    4  A    between atoms: O_5  and  C_6
REMARK    5  A    between atoms: C_6  and  C_7
REMARK    6  A    between atoms: C_12  and  O_13
REMARK                            x       y       z     vdW  Elec       q    Type
REMARK                         _______ _______ _______ _____ _____    ______ ____
ROOT
ATOM      1  C   UNL     1       5.370   6.010 -10.318  0.00  0.00    +0.010 A 
ATOM      2  C   UNL     1       5.584   5.613 -11.621  0.00  0.00    +0.038 A 
ATOM      3  C   UNL     1       6.865   5.301 -12.054  0.00  0.00    +0.177 A 
ATOM      4  C   UNL     1       7.971   5.398 -11.218  0.00  0.00    +0.229 A 
ATOM      5  O   UNL     1       9.149   5.947 -11.737  0.00  0.00    -0.283 OA
ATOM      6  C   UNL     1       7.703   5.490  -9.858  0.00  0.00    +0.045 A 
ATOM      7  C   UNL     1       6.404   5.736  -9.429  0.00  0.00    +0.002 A 
ENDROOT
BRANCH   3   8
ATOM      8  O   UNL     1       7.123   4.837 -13.346  0.00  0.00    -0.468 OA
ATOM      9  C   UNL     1       6.905   5.658 -14.469  0.00  0.00    +0.253 C 
ENDBRANCH   3   8
BRANCH   1  10
ATOM     10  C   UNL     1       4.336   6.970  -9.897  0.00  0.00    +0.169 C 
BRANCH  10  11
ATOM     11  O   UNL     1       3.595   6.566  -8.807  0.00  0.00    -0.349 OA
BRANCH  11  12
ATOM     12  C   UNL     1       2.583   5.718  -9.273  0.00  0.00    +0.143 C 
BRANCH  12  13
ATOM     13  C   UNL     1       1.450   6.515  -9.907  0.00  0.00    +0.032 C 
BRANCH  13  15
ATOM     14  C   UNL     1       0.092   4.603 -10.764  0.00  0.00    +0.000 C 
ATOM     15  C   UNL     1       0.155   5.749  -9.767  0.00  0.00    +0.003 C 
ENDBRANCH  13  15
ENDBRANCH  12  13
ENDBRANCH  11  12
ENDBRANCH  10  11
ENDBRANCH   1  10
TORSDOF 6
ENDMDL
MODEL 5
REMARK VINA RESULT:      -5.2      5.746      9.113
REMARK  Name = 
REMARK  6 active torsions:
REMARK  status: ('A' for Active; 'I' for Inactive)
REMARK    1  A    between atoms: C_2  and  C_3
REMARK    2  A    between atoms: C_3  and  C_4
REMARK    3  A    between atoms: C_4  and  O_5
REMARK    4  A    between atoms: O_5  and  C_6
REMARK    5  A    between atoms: C_6  and  C_7
REMARK    6  A    between atoms: C_12  and  O_13
REMARK                            x       y       z     vdW  Elec       q    Type
REMARK                         _______ _______ _______ _____ _____    ______ ____
ROOT
ATOM      1  C   UNL     1       0.257   5.016  -5.998  0.00  0.00    +0.010 A 
ATOM      2  C   UNL     1       0.026   5.371  -4.687  0.00  0.00    +0.038 A 
ATOM      3  C   UNL     1      -1.153   6.013  -4.335  0.00  0.00    +0.177 A 
ATOM      4  C   UNL     1      -2.123   6.343  -5.274  0.00  0.00    +0.229 A 
ATOM      5  O   UNL     1      -2.737   7.597  -5.181  0.00  0.00    -0.283 OA
ATOM      6  C   UNL     1      -2.019   5.711  -6.507  0.00  0.00    +0.045 A 
ATOM      7  C   UNL     1      -0.861   5.012  -6.826  0.00  0.00    +0.002 A 
ENDROOT
BRANCH   3   8
ATOM      8  O   UNL     1      -1.460   6.339  -3.012  0.00  0.00    -0.468 OA
ATOM      9  C   UNL     1      -2.392   5.581  -2.275  0.00  0.00    +0.253 C 
ENDBRANCH   3   8
BRANCH   1  10
ATOM     10  C   UNL     1       1.585   4.987  -6.634  0.00  0.00    +0.169 C 
BRANCH  10  11
ATOM     11  O   UNL     1       2.611   4.616  -5.791  0.00  0.00    -0.349 OA
BRANCH  11  12
ATOM     12  C   UNL     1       3.723   5.406  -6.105  0.00  0.00    +0.143 C 
BRANCH  12  13
ATOM     13  C   UNL     1       3.420   6.885  -5.897  0.00  0.00    +0.032 C 
BRANCH  13  15
ATOM     14  C   UNL     1       5.222   7.518  -4.288  0.00  0.00    +0.000 C 
ATOM     15  C   UNL     1       3.733   7.268  -4.469  0.00  0.00    +0.003 C 
ENDBRANCH  13  15
ENDBRANCH  12  13
ENDBRANCH  11  12
ENDBRANCH  10  11
ENDBRANCH   1  10
TORSDOF 6
ENDMDL
MODEL 6
REMARK VINA RESULT:      -5.2      7.042      9.086
REMARK  Name = 
REMARK  6 active torsions:
REMARK  status: ('A' for Active; 'I' for Inactive)
REMARK    1  A    between atoms: C_2  and  C_3
REMARK    2  A    between atoms: C_3  and  C_4
REMARK    3  A    between atoms: C_4  and  O_5
REMARK    4  A    between atoms: O_5  and  C_6
REMARK    5  A    between atoms: C_6  and  C_7
REMARK    6  A    between atoms: C_12  and  O_13
REMARK                            x       y       z     vdW  Elec       q    Type
REMARK                         _______ _______ _______ _____ _____    ______ ____
ROOT
ATOM      1  C   UNL     1      -1.879   6.693  -5.108  0.00  0.00    +0.010 A 
ATOM      2  C   UNL     1      -0.570   7.104  -4.981  0.00  0.00    +0.038 A 
ATOM      3  C   UNL     1       0.441   6.436  -5.659  0.00  0.00    +0.177 A 
ATOM      4  C   UNL     1       0.187   5.330  -6.459  0.00  0.00    +0.229 A 
ATOM      5  O   UNL     1       1.064   4.241  -6.385  0.00  0.00    -0.283 OA
ATOM      6  C   UNL     1      -1.140   5.129  -6.820  0.00  0.00    +0.045 A 
ATOM      7  C   UNL     1      -2.143   5.850  -6.184  0.00  0.00    +0.002 A 
ENDROOT
BRANCH   3   8
ATOM      8  O   UNL     1       1.773   6.852  -5.609  0.00  0.00    -0.468 OA
ATOM      9  C   UNL     1       2.493   6.838  -4.398  0.00  0.00    +0.253 C 
ENDBRANCH   3   8
BRANCH   1  10
ATOM     10  C   UNL     1      -2.891   6.786  -4.043  0.00  0.00    +0.169 C 
BRANCH  10  11
ATOM     11  O   UNL     1      -3.239   5.576  -3.481  0.00  0.00    -0.349 OA
BRANCH  11  12
ATOM     12  C   UNL     1      -2.644   5.511  -2.215  0.00  0.00    +0.143 C 
BRANCH  12  13
ATOM     13  C   UNL     1      -2.564   6.893  -1.576  0.00  0.00    +0.032 C 
BRANCH  13  15
ATOM     14  C   UNL     1      -0.205   6.151  -1.228  0.00  0.00    +0.000 C 
ATOM     15  C   UNL     1      -1.363   6.956  -0.661  0.00  0.00    +0.003 C 
ENDBRANCH  13  15
ENDBRANCH  12  13
ENDBRANCH  11  12
ENDBRANCH  10  11
ENDBRANCH   1  10
TORSDOF 6
ENDMDL
MODEL 7
REMARK VINA RESULT:      -5.2      2.261      6.276
REMARK  Name = 
REMARK  6 active torsions:
REMARK  status: ('A' for Active; 'I' for Inactive)
REMARK    1  A    between atoms: C_2  and  C_3
REMARK    2  A    between atoms: C_3  and  C_4
REMARK    3  A    between atoms: C_4  and  O_5
REMARK    4  A    between atoms: O_5  and  C_6
REMARK    5  A    between atoms: C_6  and  C_7
REMARK    6  A    between atoms: C_12  and  O_13
REMARK                            x       y       z     vdW  Elec       q    Type
REMARK                         _______ _______ _______ _____ _____    ______ ____
ROOT
ATOM      1  C   UNL     1       4.631   4.954  -8.991  0.00  0.00    +0.010 A 
ATOM      2  C   UNL     1       5.012   5.445  -7.761  0.00  0.00    +0.038 A 
ATOM      3  C   UNL     1       4.117   5.439  -6.700  0.00  0.00    +0.177 A 
ATOM      4  C   UNL     1       2.815   4.971  -6.834  0.00  0.00    +0.229 A 
ATOM      5  O   UNL     1       1.784   5.697  -6.227  0.00  0.00    -0.283 OA
ATOM      6  C   UNL     1       2.555   4.207  -7.965  0.00  0.00    +0.045 A 
ATOM      7  C   UNL     1       3.486   4.164  -8.995  0.00  0.00    +0.002 A 
ENDROOT
BRANCH   3   8
ATOM      8  O   UNL     1       4.475   5.870  -5.420  0.00  0.00    -0.468 OA
ATOM      9  C   UNL     1       4.712   4.945  -4.384  0.00  0.00    +0.253 C 
ENDBRANCH   3   8
BRANCH   1  10
ATOM     10  C   UNL     1       5.116   5.470 -10.282  0.00  0.00    +0.169 C 
BRANCH  10  11
ATOM     11  O   UNL     1       5.298   6.836 -10.317  0.00  0.00    -0.349 OA
BRANCH  11  12
ATOM     12  C   UNL     1       6.439   7.090 -11.088  0.00  0.00    +0.143 C 
BRANCH  12  13
ATOM     13  C   UNL     1       7.639   6.310 -10.565  0.00  0.00    +0.032 C 
BRANCH  13  15
ATOM     14  C   UNL     1       7.706   5.598 -12.958  0.00  0.00    +0.000 C 
ATOM     15  C   UNL     1       8.530   5.921 -11.722  0.00  0.00    +0.003 C 
ENDBRANCH  13  15
ENDBRANCH  12  13
ENDBRANCH  11  12
ENDBRANCH  10  11
ENDBRANCH   1  10
TORSDOF 6
ENDMDL
MODEL 8
REMARK VINA RESULT:      -5.2      2.752      5.071
REMARK  Name = 
REMARK  6 active torsions:
REMARK  status: ('A' for Active; 'I' for Inactive)
REMARK    1  A    between atoms: C_2  and  C_3
REMARK    2  A    between atoms: C_3  and  C_4
REMARK    3  A    between atoms: C_4  and  O_5
REMARK    4  A    between atoms: O_5  and  C_6
REMARK    5  A    between atoms: C_6  and  C_7
REMARK    6  A    between atoms: C_12  and  O_13
REMARK                            x       y       z     vdW  Elec       q    Type
REMARK                         _______ _______ _______ _____ _____    ______ ____
ROOT
ATOM      1  C   UNL     1       3.074   6.597  -6.300  0.00  0.00    +0.010 A 
ATOM      2  C   UNL     1       4.145   5.839  -6.723  0.00  0.00    +0.038 A 
ATOM      3  C   UNL     1       4.377   5.655  -8.079  0.00  0.00    +0.177 A 
ATOM      4  C   UNL     1       3.542   6.192  -9.051  0.00  0.00    +0.229 A 
ATOM      5  O   UNL     1       3.207   5.396 -10.152  0.00  0.00    -0.283 OA
ATOM      6  C   UNL     1       2.674   7.190  -8.626  0.00  0.00    +0.045 A 
ATOM      7  C   UNL     1       2.497   7.415  -7.265  0.00  0.00    +0.002 A 
ENDROOT
BRANCH   3   8
ATOM      8  O   UNL     1       5.482   4.947  -8.557  0.00  0.00    -0.468 OA
ATOM      9  C   UNL     1       6.533   5.606  -9.225  0.00  0.00    +0.253 C 
ENDBRANCH   3   8
BRANCH   1  10
ATOM     10  C   UNL     1       2.314   6.350  -5.063  0.00  0.00    +0.169 C 
BRANCH  10  11
ATOM     11  O   UNL     1       2.079   5.018  -4.796  0.00  0.00    -0.349 OA
BRANCH  11  12
ATOM     12  C   UNL     1       0.934   4.639  -5.509  0.00  0.00    +0.143 C 
BRANCH  12  13
ATOM     13  C   UNL     1      -0.266   5.488  -5.107  0.00  0.00    +0.032 C 
BRANCH  13  15
ATOM     14  C   UNL     1      -0.561   5.403  -7.585  0.00  0.00    +0.000 C 
ATOM     15  C   UNL     1      -1.263   5.521  -6.242  0.00  0.00    +0.003 C 
ENDBRANCH  13  15
ENDBRANCH  12  13
ENDBRANCH  11  12
ENDBRANCH  10  11
ENDBRANCH   1  10
TORSDOF 6
ENDMDL
MODEL 9
REMARK VINA RESULT:      -5.1      6.658      9.319
REMARK  Name = 
REMARK  6 active torsions:
REMARK  status: ('A' for Active; 'I' for Inactive)
REMARK    1  A    between atoms: C_2  and  C_3
REMARK    2  A    between atoms: C_3  and  C_4
REMARK    3  A    between atoms: C_4  and  O_5
REMARK    4  A    between atoms: O_5  and  C_6
REMARK    5  A    between atoms: C_6  and  C_7
REMARK    6  A    between atoms: C_12  and  O_13
REMARK                            x       y       z     vdW  Elec       q    Type
REMARK                         _______ _______ _______ _____ _____    ______ ____
ROOT
ATOM      1  C   UNL     1       1.239   5.682  -4.122  0.00  0.00    +0.010 A 
ATOM      2  C   UNL     1       0.106   5.917  -4.871  0.00  0.00    +0.038 A 
ATOM      3  C   UNL     1      -1.147   5.864  -4.277  0.00  0.00    +0.177 A 
ATOM      4  C   UNL     1      -1.315   5.553  -2.933  0.00  0.00    +0.229 A 
ATOM      5  O   UNL     1      -2.356   4.688  -2.577  0.00  0.00    -0.283 OA
ATOM      6  C   UNL     1      -0.175   5.630  -2.142  0.00  0.00    +0.045 A 
ATOM      7  C   UNL     1       1.072   5.750  -2.743  0.00  0.00    +0.002 A 
ENDROOT
BRANCH   3   8
ATOM      8  O   UNL     1      -2.319   6.154  -4.980  0.00  0.00    -0.468 OA
ATOM      9  C   UNL     1      -2.483   5.742  -6.317  0.00  0.00    +0.253 C 
ENDBRANCH   3   8
BRANCH   1  10
ATOM     10  C   UNL     1       2.463   5.047  -4.637  0.00  0.00    +0.169 C 
BRANCH  10  11
ATOM     11  O   UNL     1       3.433   4.823  -3.683  0.00  0.00    -0.349 OA
BRANCH  11  12
ATOM     12  C   UNL     1       4.667   5.174  -4.244  0.00  0.00    +0.143 C 
BRANCH  12  13
ATOM     13  C   UNL     1       4.570   6.494  -4.999  0.00  0.00    +0.032 C 
BRANCH  13  15
ATOM     14  C   UNL     1       4.326   8.007  -3.027  0.00  0.00    +0.000 C 
ATOM     15  C   UNL     1       5.218   7.589  -4.184  0.00  0.00    +0.003 C 
ENDBRANCH  13  15
ENDBRANCH  12  13
ENDBRANCH  11  12
ENDBRANCH  10  11
ENDBRANCH   1  10
TORSDOF 6
ENDMDL
