MODEL 1
REMARK VINA RESULT:      -6.7      0.000      0.000
REMARK  Name = 
REMARK  10 active torsions:
REMARK  status: ('A' for Active; 'I' for Inactive)
REMARK    1  A    between atoms: C_2  and  C_3
REMARK    2  A    between atoms: C_3  and  C_4
REMARK    3  A    between atoms: C_4  and  C_5
REMARK    4  A    between atoms: C_5  and  C_6
REMARK    5  A    between atoms: C_5  and  C_8
REMARK    6  A    between atoms: C_8  and  O_9
REMARK    7  A    between atoms: O_9  and  C_10
REMARK    8  A    between atoms: C_10  and  C_12
REMARK    9  A    between atoms: C_13  and  C_14
REMARK   10  A    between atoms: C_17  and  O_18
REMARK                            x       y       z     vdW  Elec       q    Type
REMARK                         _______ _______ _______ _____ _____    ______ ____
ROOT
ATOM      1  C   UNL     1       2.638   4.763  -8.369  0.00  0.00    +0.341 C 
ATOM      2  O   UNL     1       2.057   4.241  -9.370  0.00  0.00    -0.245 OA
ENDROOT
BRANCH   1   3
ATOM      3  C   UNL     1       2.383   6.143  -7.933  0.00  0.00    +0.082 C 
ATOM      4  C   UNL     1       1.122   6.454  -7.812  0.00  0.00    +0.007 C 
BRANCH   4   5
ATOM      5  C   UNL     1       0.389   5.653  -6.823  0.00  0.00    +0.000 A 
ATOM      6  C   UNL     1      -0.922   5.376  -7.200  0.00  0.00    +0.003 A 
ATOM      7  C   UNL     1      -1.993   5.535  -6.330  0.00  0.00    +0.037 A 
ATOM      8  C   UNL     1      -1.753   5.786  -4.991  0.00  0.00    +0.139 A 
ATOM      9  C   UNL     1      -0.466   5.532  -4.559  0.00  0.00    +0.037 A 
ATOM     10  C   UNL     1       0.569   5.770  -5.457  0.00  0.00    +0.003 A 
BRANCH   8  11
ATOM     11  O   UNL     1      -2.714   6.398  -4.181  0.00  0.00    -0.471 OA
ATOM     12  C   UNL     1      -3.338   5.742  -3.096  0.00  0.00    +0.252 C 
ENDBRANCH   8  11
ENDBRANCH   4   5
ENDBRANCH   1   3
BRANCH   1  13
ATOM     13  O   UNL     1       4.017   4.526  -8.397  0.00  0.00    -0.445 OA
BRANCH  13  14
ATOM     14  C   UNL     1       5.032   5.411  -8.522  0.00  0.00    +0.209 C 
BRANCH  14  15
ATOM     15  C   UNL     1       5.628   5.394 -10.060  0.00  0.00    +0.044 C 
BRANCH  15  16
ATOM     16  C   UNL     1       5.042   6.885 -10.468  0.00  0.00    +0.004 C 
ATOM     17  C   UNL     1       3.958   6.485 -11.443  0.00  0.00    +0.000 C 
ENDBRANCH  15  16
BRANCH  15  18
ATOM     18  C   UNL     1       7.080   6.024  -9.580  0.00  0.00    +0.004 C 
BRANCH  18  19
ATOM     19  C   UNL     1       7.632   6.758 -10.758  0.00  0.00    +0.000 C 
BRANCH  19  21
ATOM     20  C   UNL     1       8.800   5.844 -12.371  0.00  0.00    +0.000 C 
ATOM     21  C   UNL     1       8.445   5.914 -11.697  0.00  0.00    +0.000 C 
ENDBRANCH  19  21
ENDBRANCH  18  19
ENDBRANCH  15  18
ENDBRANCH  14  15
ENDBRANCH  13  14
ENDBRANCH   1  13
TORSDOF 10
ENDMDL
MODEL 2
REMARK VINA RESULT:      -6.6      2.161      8.099
REMARK  Name = 
REMARK  10 active torsions:
REMARK  status: ('A' for Active; 'I' for Inactive)
REMARK    1  A    between atoms: C_2  and  C_3
REMARK    2  A    between atoms: C_3  and  C_4
REMARK    3  A    between atoms: C_4  and  C_5
REMARK    4  A    between atoms: C_5  and  C_6
REMARK    5  A    between atoms: C_5  and  C_8
REMARK    6  A    between atoms: C_8  and  O_9
REMARK    7  A    between atoms: O_9  and  C_10
REMARK    8  A    between atoms: C_10  and  C_12
REMARK    9  A    between atoms: C_13  and  C_14
REMARK   10  A    between atoms: C_17  and  O_18
REMARK                            x       y       z     vdW  Elec       q    Type
REMARK                         _______ _______ _______ _____ _____    ______ ____
ROOT
ATOM      1  C   UNL     1       2.103   5.392  -4.965  0.00  0.00    +0.341 C 
ATOM      2  O   UNL     1       3.016   4.812  -4.301  0.00  0.00    -0.245 OA
ENDROOT
BRANCH   1   3
ATOM      3  C   UNL     1       2.217   6.782  -5.427  0.00  0.00    +0.082 C 
ATOM      4  C   UNL     1       3.289   7.039  -6.126  0.00  0.00    +0.007 C 
BRANCH   4   5
ATOM      5  C   UNL     1       3.405   6.266  -7.369  0.00  0.00    +0.000 A 
ATOM      6  C   UNL     1       4.531   5.449  -7.406  0.00  0.00    +0.003 A 
ATOM      7  C   UNL     1       5.369   5.391  -8.513  0.00  0.00    +0.037 A 
ATOM      8  C   UNL     1       4.986   6.004  -9.691  0.00  0.00    +0.139 A 
ATOM      9  C   UNL     1       3.650   6.345  -9.779  0.00  0.00    +0.037 A 
ATOM     10  C   UNL     1       3.014   6.743  -8.607  0.00  0.00    +0.003 A 
BRANCH   8  11
ATOM     11  O   UNL     1       5.925   6.382 -10.655  0.00  0.00    -0.471 OA
ATOM     12  C   UNL     1       6.031   7.700 -11.153  0.00  0.00    +0.252 C 
ENDBRANCH   8  11
ENDBRANCH   4   5
ENDBRANCH   1   3
BRANCH   1  13
ATOM     13  O   UNL     1       0.844   5.191  -4.386  0.00  0.00    -0.445 OA
BRANCH  13  14
ATOM     14  C   UNL     1       0.073   6.063  -3.697  0.00  0.00    +0.209 C 
BRANCH  14  15
ATOM     15  C   UNL     1      -1.525   5.718  -3.915  0.00  0.00    +0.044 C 
BRANCH  15  16
ATOM     16  C   UNL     1      -2.079   6.977  -2.997  0.00  0.00    +0.004 C 
ATOM     17  C   UNL     1      -3.410   6.414  -2.553  0.00  0.00    +0.000 C 
ENDBRANCH  15  16
BRANCH  15  18
ATOM     18  C   UNL     1      -1.600   6.613  -5.304  0.00  0.00    +0.004 C 
BRANCH  18  19
ATOM     19  C   UNL     1      -2.016   5.674  -6.390  0.00  0.00    +0.000 C 
BRANCH  19  21
ATOM     20  C   UNL     1      -0.351   5.488  -7.802  0.00  0.00    +0.000 C 
ATOM     21  C   UNL     1      -0.915   5.277  -7.329  0.00  0.00    +0.000 C 
ENDBRANCH  19  21
ENDBRANCH  18  19
ENDBRANCH  15  18
ENDBRANCH  14  15
ENDBRANCH  13  14
ENDBRANCH   1  13
TORSDOF 10
ENDMDL
MODEL 3
REMARK VINA RESULT:      -6.6      2.307      8.255
REMARK  Name = 
REMARK  10 active torsions:
REMARK  status: ('A' for Active; 'I' for Inactive)
REMARK    1  A    between atoms: C_2  and  C_3
REMARK    2  A    between atoms: C_3  and  C_4
REMARK    3  A    between atoms: C_4  and  C_5
REMARK    4  A    between atoms: C_5  and  C_6
REMARK    5  A    between atoms: C_5  and  C_8
REMARK    6  A    between atoms: C_8  and  O_9
REMARK    7  A    between atoms: O_9  and  C_10
REMARK    8  A    between atoms: C_10  and  C_12
REMARK    9  A    between atoms: C_13  and  C_14
REMARK   10  A    between atoms: C_17  and  O_18
REMARK                            x       y       z     vdW  Elec       q    Type
REMARK                         _______ _______ _______ _____ _____    ______ ____
ROOT
ATOM      1  C   UNL     1       2.713   5.984  -3.785  0.00  0.00    +0.341 C 
ATOM      2  O   UNL     1       3.254   5.197  -2.950  0.00  0.00    -0.245 OA
ENDROOT
BRANCH   1   3
ATOM      3  C   UNL     1       3.371   7.206  -4.268  0.00  0.00    +0.082 C 
ATOM      4  C   UNL     1       4.134   7.039  -5.313  0.00  0.00    +0.007 C 
BRANCH   4   5
ATOM      5  C   UNL     1       3.434   6.546  -6.505  0.00  0.00    +0.000 A 
ATOM      6  C   UNL     1       4.119   5.531  -7.167  0.00  0.00    +0.003 A 
ATOM      7  C   UNL     1       4.298   5.533  -8.545  0.00  0.00    +0.037 A 
ATOM      8  C   UNL     1       3.618   6.454  -9.320  0.00  0.00    +0.139 A 
ATOM      9  C   UNL     1       2.559   7.089  -8.699  0.00  0.00    +0.037 A 
ATOM     10  C   UNL     1       2.680   7.352  -7.340  0.00  0.00    +0.003 A 
BRANCH   8  11
ATOM     11  O   UNL     1       4.076   6.817 -10.590  0.00  0.00    -0.471 OA
ATOM     12  C   UNL     1       5.348   7.390 -10.815  0.00  0.00    +0.252 C 
ENDBRANCH   8  11
ENDBRANCH   4   5
ENDBRANCH   1   3
BRANCH   1  13
ATOM     13  O   UNL     1       1.389   6.271  -3.432  0.00  0.00    -0.445 OA
BRANCH  13  14
ATOM     14  C   UNL     1       0.242   5.783  -3.957  0.00  0.00    +0.209 C 
BRANCH  14  15
ATOM     15  C   UNL     1      -0.182   6.630  -5.308  0.00  0.00    +0.044 C 
BRANCH  15  16
ATOM     16  C   UNL     1      -0.239   5.312  -6.304  0.00  0.00    +0.004 C 
ATOM     17  C   UNL     1      -1.674   5.395  -6.772  0.00  0.00    +0.000 C 
ENDBRANCH  15  16
BRANCH  15  18
ATOM     18  C   UNL     1      -1.794   6.518  -4.958  0.00  0.00    +0.004 C 
BRANCH  18  19
ATOM     19  C   UNL     1      -2.033   7.399  -3.776  0.00  0.00    +0.000 C 
BRANCH  19  21
ATOM     20  C   UNL     1      -3.434   6.287  -2.509  0.00  0.00    +0.000 C 
ATOM     21  C   UNL     1      -3.060   6.884  -2.809  0.00  0.00    +0.000 C 
ENDBRANCH  19  21
ENDBRANCH  18  19
ENDBRANCH  15  18
ENDBRANCH  14  15
ENDBRANCH  13  14
ENDBRANCH   1  13
TORSDOF 10
ENDMDL
MODEL 4
REMARK VINA RESULT:      -6.5      2.678      4.516
REMARK  Name = 
REMARK  10 active torsions:
REMARK  status: ('A' for Active; 'I' for Inactive)
REMARK    1  A    between atoms: C_2  and  C_3
REMARK    2  A    between atoms: C_3  and  C_4
REMARK    3  A    between atoms: C_4  and  C_5
REMARK    4  A    between atoms: C_5  and  C_6
REMARK    5  A    between atoms: C_5  and  C_8
REMARK    6  A    between atoms: C_8  and  O_9
REMARK    7  A    between atoms: O_9  and  C_10
REMARK    8  A    between atoms: C_10  and  C_12
REMARK    9  A    between atoms: C_13  and  C_14
REMARK   10  A    between atoms: C_17  and  O_18
REMARK                            x       y       z     vdW  Elec       q    Type
REMARK                         _______ _______ _______ _____ _____    ______ ____
ROOT
ATOM      1  C   UNL     1       0.420   5.727  -5.074  0.00  0.00    +0.341 C 
ATOM      2  O   UNL     1       0.925   4.575  -4.898  0.00  0.00    -0.245 OA
ENDROOT
BRANCH   1   3
ATOM      3  C   UNL     1      -0.336   6.088  -6.281  0.00  0.00    +0.082 C 
ATOM      4  C   UNL     1      -1.566   5.654  -6.306  0.00  0.00    +0.007 C 
BRANCH   4   5
ATOM      5  C   UNL     1      -2.413   6.163  -5.220  0.00  0.00    +0.000 A 
ATOM      6  C   UNL     1      -2.247   7.525  -4.985  0.00  0.00    +0.003 A 
ATOM      7  C   UNL     1      -2.087   8.043  -3.705  0.00  0.00    +0.037 A 
ATOM      8  C   UNL     1      -2.291   7.225  -2.608  0.00  0.00    +0.139 A 
ATOM      9  C   UNL     1      -2.960   6.043  -2.862  0.00  0.00    +0.037 A 
ATOM     10  C   UNL     1      -2.733   5.432  -4.090  0.00  0.00    +0.003 A 
BRANCH   8  11
ATOM     11  O   UNL     1      -1.721   7.517  -1.366  0.00  0.00    -0.471 OA
ATOM     12  C   UNL     1      -0.655   6.772  -0.813  0.00  0.00    +0.252 C 
ENDBRANCH   8  11
ENDBRANCH   4   5
ENDBRANCH   1   3
BRANCH   1  13
ATOM     13  O   UNL     1       1.340   6.739  -4.774  0.00  0.00    -0.445 OA
BRANCH  13  14
ATOM     14  C   UNL     1       2.616   6.630  -4.339  0.00  0.00    +0.209 C 
BRANCH  14  15
ATOM     15  C   UNL     1       3.666   7.185  -5.483  0.00  0.00    +0.044 C 
BRANCH  15  16
ATOM     16  C   UNL     1       4.920   7.432  -4.434  0.00  0.00    +0.004 C 
ATOM     17  C   UNL     1       4.792   6.196  -3.573  0.00  0.00    +0.000 C 
ENDBRANCH  15  16
BRANCH  15  18
ATOM     18  C   UNL     1       4.187   5.659  -5.847  0.00  0.00    +0.004 C 
BRANCH  18  19
ATOM     19  C   UNL     1       3.733   5.379  -7.243  0.00  0.00    +0.000 C 
BRANCH  19  21
ATOM     20  C   UNL     1       5.535   5.352  -8.491  0.00  0.00    +0.000 C 
ATOM     21  C   UNL     1       4.843   5.154  -8.229  0.00  0.00    +0.000 C 
ENDBRANCH  19  21
ENDBRANCH  18  19
ENDBRANCH  15  18
ENDBRANCH  14  15
ENDBRANCH  13  14
ENDBRANCH   1  13
TORSDOF 10
ENDMDL
MODEL 5
REMARK VINA RESULT:      -6.5      1.963      2.905
REMARK  Name = 
REMARK  10 active torsions:
REMARK  status: ('A' for Active; 'I' for Inactive)
REMARK    1  A    between atoms: C_2  and  C_3
REMARK    2  A    between atoms: C_3  and  C_4
REMARK    3  A    between atoms: C_4  and  C_5
REMARK    4  A    between atoms: C_5  and  C_6
REMARK    5  A    between atoms: C_5  and  C_8
REMARK    6  A    between atoms: C_8  and  O_9
REMARK    7  A    between atoms: O_9  and  C_10
REMARK    8  A    between atoms: C_10  and  C_12
REMARK    9  A    between atoms: C_13  and  C_14
REMARK   10  A    between atoms: C_17  and  O_18
REMARK                            x       y       z     vdW  Elec       q    Type
REMARK                         _______ _______ _______ _____ _____    ______ ____
ROOT
ATOM      1  C   UNL     1       1.905   5.823 -11.885  0.00  0.00    +0.341 C 
ATOM      2  O   UNL     1       1.709   5.076 -12.892  0.00  0.00    -0.245 OA
ENDROOT
BRANCH   1   3
ATOM      3  C   UNL     1       0.947   6.854 -11.462  0.00  0.00    +0.082 C 
ATOM      4  C   UNL     1       0.227   6.538 -10.421  0.00  0.00    +0.007 C 
BRANCH   4   5
ATOM      5  C   UNL     1       1.001   6.284  -9.200  0.00  0.00    +0.000 A 
ATOM      6  C   UNL     1       0.427   5.322  -8.374  0.00  0.00    +0.003 A 
ATOM      7  C   UNL     1       0.287   5.509  -7.004  0.00  0.00    +0.037 A 
ATOM      8  C   UNL     1       0.905   6.587  -6.396  0.00  0.00    +0.139 A 
ATOM      9  C   UNL     1       1.885   7.211  -7.143  0.00  0.00    +0.037 A 
ATOM     10  C   UNL     1       1.703   7.263  -8.520  0.00  0.00    +0.003 A 
BRANCH   8  11
ATOM     11  O   UNL     1       0.452   7.091  -5.173  0.00  0.00    -0.471 OA
ATOM     12  C   UNL     1      -0.901   7.417  -4.927  0.00  0.00    +0.252 C 
ENDBRANCH   8  11
ENDBRANCH   4   5
ENDBRANCH   1   3
BRANCH   1  13
ATOM     13  O   UNL     1       3.199   6.357 -11.887  0.00  0.00    -0.445 OA
BRANCH  13  14
ATOM     14  C   UNL     1       4.366   5.764 -11.545  0.00  0.00    +0.209 C 
BRANCH  14  15
ATOM     15  C   UNL     1       4.886   6.315 -10.080  0.00  0.00    +0.044 C 
BRANCH  15  16
ATOM     16  C   UNL     1       4.448   4.958  -9.242  0.00  0.00    +0.004 C 
ATOM     17  C   UNL     1       4.976   5.312  -7.871  0.00  0.00    +0.000 C 
ENDBRANCH  15  16
BRANCH  15  18
ATOM     18  C   UNL     1       6.418   5.746 -10.330  0.00  0.00    +0.004 C 
BRANCH  18  19
ATOM     19  C   UNL     1       6.885   6.340 -11.619  0.00  0.00    +0.000 C 
BRANCH  19  21
ATOM     20  C   UNL     1       8.893   5.896 -12.377  0.00  0.00    +0.000 C 
ATOM     21  C   UNL     1       8.176   5.775 -12.137  0.00  0.00    +0.000 C 
ENDBRANCH  19  21
ENDBRANCH  18  19
ENDBRANCH  15  18
ENDBRANCH  14  15
ENDBRANCH  13  14
ENDBRANCH   1  13
TORSDOF 10
ENDMDL
MODEL 6
REMARK VINA RESULT:      -6.4      2.511      7.960
REMARK  Name = 
REMARK  10 active torsions:
REMARK  status: ('A' for Active; 'I' for Inactive)
REMARK    1  A    between atoms: C_2  and  C_3
REMARK    2  A    between atoms: C_3  and  C_4
REMARK    3  A    between atoms: C_4  and  C_5
REMARK    4  A    between atoms: C_5  and  C_6
REMARK    5  A    between atoms: C_5  and  C_8
REMARK    6  A    between atoms: C_8  and  O_9
REMARK    7  A    between atoms: O_9  and  C_10
REMARK    8  A    between atoms: C_10  and  C_12
REMARK    9  A    between atoms: C_13  and  C_14
REMARK   10  A    between atoms: C_17  and  O_18
REMARK                            x       y       z     vdW  Elec       q    Type
REMARK                         _______ _______ _______ _____ _____    ______ ____
ROOT
ATOM      1  C   UNL     1       3.471   5.616  -3.632  0.00  0.00    +0.341 C 
ATOM      2  O   UNL     1       4.194   5.113  -2.718  0.00  0.00    -0.245 OA
ENDROOT
BRANCH   1   3
ATOM      3  C   UNL     1       3.559   7.029  -4.027  0.00  0.00    +0.082 C 
ATOM      4  C   UNL     1       4.146   7.241  -5.172  0.00  0.00    +0.007 C 
BRANCH   4   5
ATOM      5  C   UNL     1       3.482   6.616  -6.322  0.00  0.00    +0.000 A 
ATOM      6  C   UNL     1       4.275   5.676  -6.973  0.00  0.00    +0.003 A 
ATOM      7  C   UNL     1       4.410   5.649  -8.356  0.00  0.00    +0.037 A 
ATOM      8  C   UNL     1       3.590   6.443  -9.136  0.00  0.00    +0.139 A 
ATOM      9  C   UNL     1       2.475   6.955  -8.500  0.00  0.00    +0.037 A 
ATOM     10  C   UNL     1       2.602   7.283  -7.155  0.00  0.00    +0.003 A 
BRANCH   8  11
ATOM     11  O   UNL     1       3.956   6.816 -10.433  0.00  0.00    -0.471 OA
ATOM     12  C   UNL     1       5.248   7.284 -10.765  0.00  0.00    +0.252 C 
ENDBRANCH   8  11
ENDBRANCH   4   5
ENDBRANCH   1   3
BRANCH   1  13
ATOM     13  O   UNL     1       2.127   5.253  -3.478  0.00  0.00    -0.445 OA
BRANCH  13  14
ATOM     14  C   UNL     1       1.100   5.977  -2.978  0.00  0.00    +0.209 C 
BRANCH  14  15
ATOM     15  C   UNL     1      -0.327   5.492  -3.646  0.00  0.00    +0.044 C 
BRANCH  15  16
ATOM     16  C   UNL     1      -1.263   6.561  -2.801  0.00  0.00    +0.004 C 
ATOM     17  C   UNL     1      -2.420   5.662  -2.427  0.00  0.00    +0.000 C 
ENDBRANCH  15  16
BRANCH  15  18
ATOM     18  C   UNL     1      -0.168   6.536  -4.918  0.00  0.00    +0.004 C 
BRANCH  18  19
ATOM     19  C   UNL     1      -0.502   5.758  -6.149  0.00  0.00    +0.000 C 
BRANCH  19  21
ATOM     20  C   UNL     1      -2.673   5.838  -6.436  0.00  0.00    +0.000 C 
ATOM     21  C   UNL     1      -1.971   5.541  -6.374  0.00  0.00    +0.000 C 
ENDBRANCH  19  21
ENDBRANCH  18  19
ENDBRANCH  15  18
ENDBRANCH  14  15
ENDBRANCH  13  14
ENDBRANCH   1  13
TORSDOF 10
ENDMDL
MODEL 7
REMARK VINA RESULT:      -6.4      3.417      7.142
REMARK  Name = 
REMARK  10 active torsions:
REMARK  status: ('A' for Active; 'I' for Inactive)
REMARK    1  A    between atoms: C_2  and  C_3
REMARK    2  A    between atoms: C_3  and  C_4
REMARK    3  A    between atoms: C_4  and  C_5
REMARK    4  A    between atoms: C_5  and  C_6
REMARK    5  A    between atoms: C_5  and  C_8
REMARK    6  A    between atoms: C_8  and  O_9
REMARK    7  A    between atoms: O_9  and  C_10
REMARK    8  A    between atoms: C_10  and  C_12
REMARK    9  A    between atoms: C_13  and  C_14
REMARK   10  A    between atoms: C_17  and  O_18
REMARK                            x       y       z     vdW  Elec       q    Type
REMARK                         _______ _______ _______ _____ _____    ______ ____
ROOT
ATOM      1  C   UNL     1       3.888   5.532  -4.556  0.00  0.00    +0.341 C 
ATOM      2  O   UNL     1       4.367   4.653  -3.776  0.00  0.00    -0.245 OA
ENDROOT
BRANCH   1   3
ATOM      3  C   UNL     1       4.674   6.152  -5.633  0.00  0.00    +0.082 C 
ATOM      4  C   UNL     1       4.455   5.660  -6.821  0.00  0.00    +0.007 C 
BRANCH   4   5
ATOM      5  C   UNL     1       3.073   5.804  -7.295  0.00  0.00    +0.000 A 
ATOM      6  C   UNL     1       2.542   4.626  -7.811  0.00  0.00    +0.003 A 
ATOM      7  C   UNL     1       1.853   4.589  -9.018  0.00  0.00    +0.037 A 
ATOM      8  C   UNL     1       1.505   5.774  -9.640  0.00  0.00    +0.139 A 
ATOM      9  C   UNL     1       1.578   6.906  -8.852  0.00  0.00    +0.037 A 
ATOM     10  C   UNL     1       2.582   6.952  -7.892  0.00  0.00    +0.003 A 
BRANCH   8  11
ATOM     11  O   UNL     1       1.246   5.826 -11.013  0.00  0.00    -0.471 OA
ATOM     12  C   UNL     1       0.303   4.990 -11.653  0.00  0.00    +0.252 C 
ENDBRANCH   8  11
ENDBRANCH   4   5
ENDBRANCH   1   3
BRANCH   1  13
ATOM     13  O   UNL     1       3.198   6.523  -3.848  0.00  0.00    -0.445 OA
BRANCH  13  14
ATOM     14  C   UNL     1       2.011   6.440  -3.204  0.00  0.00    +0.209 C 
BRANCH  14  15
ATOM     15  C   UNL     1       0.959   5.495  -4.052  0.00  0.00    +0.044 C 
BRANCH  15  16
ATOM     16  C   UNL     1      -0.267   5.603  -2.948  0.00  0.00    +0.004 C 
ATOM     17  C   UNL     1       0.405   4.988  -1.743  0.00  0.00    +0.000 C 
ENDBRANCH  15  16
BRANCH  15  18
ATOM     18  C   UNL     1       0.385   6.784  -4.914  0.00  0.00    +0.004 C 
BRANCH  18  19
ATOM     19  C   UNL     1      -0.976   6.399  -5.396  0.00  0.00    +0.000 C 
BRANCH  19  21
ATOM     20  C   UNL     1      -1.379   5.188  -7.178  0.00  0.00    +0.000 C 
ATOM     21  C   UNL     1      -0.983   5.518  -6.612  0.00  0.00    +0.000 C 
ENDBRANCH  19  21
ENDBRANCH  18  19
ENDBRANCH  15  18
ENDBRANCH  14  15
ENDBRANCH  13  14
ENDBRANCH   1  13
TORSDOF 10
ENDMDL
MODEL 8
REMARK VINA RESULT:      -6.3      1.444      1.897
REMARK  Name = 
REMARK  10 active torsions:
REMARK  status: ('A' for Active; 'I' for Inactive)
REMARK    1  A    between atoms: C_2  and  C_3
REMARK    2  A    between atoms: C_3  and  C_4
REMARK    3  A    between atoms: C_4  and  C_5
REMARK    4  A    between atoms: C_5  and  C_6
REMARK    5  A    between atoms: C_5  and  C_8
REMARK    6  A    between atoms: C_8  and  O_9
REMARK    7  A    between atoms: O_9  and  C_10
REMARK    8  A    between atoms: C_10  and  C_12
REMARK    9  A    between atoms: C_13  and  C_14
REMARK   10  A    between atoms: C_17  and  O_18
REMARK                            x       y       z     vdW  Elec       q    Type
REMARK                         _______ _______ _______ _____ _____    ______ ____
ROOT
ATOM      1  C   UNL     1       2.211   7.072  -8.193  0.00  0.00    +0.341 C 
ATOM      2  O   UNL     1       2.242   8.306  -7.896  0.00  0.00    -0.245 OA
ENDROOT
BRANCH   1   3
ATOM      3  C   UNL     1       2.286   6.009  -7.181  0.00  0.00    +0.082 C 
ATOM      4  C   UNL     1       1.659   6.269  -6.067  0.00  0.00    +0.007 C 
BRANCH   4   5
ATOM      5  C   UNL     1       0.214   6.482  -6.218  0.00  0.00    +0.000 A 
ATOM      6  C   UNL     1      -0.323   7.329  -5.253  0.00  0.00    +0.003 A 
ATOM      7  C   UNL     1      -1.490   7.023  -4.563  0.00  0.00    +0.037 A 
ATOM      8  C   UNL     1      -2.260   5.949  -4.970  0.00  0.00    +0.139 A 
ATOM      9  C   UNL     1      -1.985   5.462  -6.233  0.00  0.00    +0.037 A 
ATOM     10  C   UNL     1      -0.662   5.507  -6.661  0.00  0.00    +0.003 A 
BRANCH   8  11
ATOM     11  O   UNL     1      -3.148   5.316  -4.095  0.00  0.00    -0.471 OA
ATOM     12  C   UNL     1      -3.495   5.847  -2.832  0.00  0.00    +0.252 C 
ENDBRANCH   8  11
ENDBRANCH   4   5
ENDBRANCH   1   3
BRANCH   1  13
ATOM     13  O   UNL     1       3.083   6.778  -9.249  0.00  0.00    -0.445 OA
BRANCH  13  14
ATOM     14  C   UNL     1       4.386   6.418  -9.203  0.00  0.00    +0.209 C 
BRANCH  14  15
ATOM     15  C   UNL     1       4.887   5.878 -10.679  0.00  0.00    +0.044 C 
BRANCH  15  16
ATOM     16  C   UNL     1       3.525   6.354 -11.486  0.00  0.00    +0.004 C 
ATOM     17  C   UNL     1       3.800   5.755 -12.847  0.00  0.00    +0.000 C 
ENDBRANCH  15  16
BRANCH  15  18
ATOM     18  C   UNL     1       5.661   7.301 -11.015  0.00  0.00    +0.004 C 
BRANCH  18  19
ATOM     19  C   UNL     1       7.120   7.045 -10.817  0.00  0.00    +0.000 C 
BRANCH  19  21
ATOM     20  C   UNL     1       8.421   6.019 -12.251  0.00  0.00    +0.000 C 
ATOM     21  C   UNL     1       7.798   6.362 -11.970  0.00  0.00    +0.000 C 
ENDBRANCH  19  21
ENDBRANCH  18  19
ENDBRANCH  15  18
ENDBRANCH  14  15
ENDBRANCH  13  14
ENDBRANCH   1  13
TORSDOF 10
ENDMDL
MODEL 9
REMARK VINA RESULT:      -6.3      3.191      5.760
REMARK  Name = 
REMARK  10 active torsions:
REMARK  status: ('A' for Active; 'I' for Inactive)
REMARK    1  A    between atoms: C_2  and  C_3
REMARK    2  A    between atoms: C_3  and  C_4
REMARK    3  A    between atoms: C_4  and  C_5
REMARK    4  A    between atoms: C_5  and  C_6
REMARK    5  A    between atoms: C_5  and  C_8
REMARK    6  A    between atoms: C_8  and  O_9
REMARK    7  A    between atoms: O_9  and  C_10
REMARK    8  A    between atoms: C_10  and  C_12
REMARK    9  A    between atoms: C_13  and  C_14
REMARK   10  A    between atoms: C_17  and  O_18
REMARK                            x       y       z     vdW  Elec       q    Type
REMARK                         _______ _______ _______ _____ _____    ______ ____
ROOT
ATOM      1  C   UNL     1       2.024   6.985  -9.175  0.00  0.00    +0.341 C 
ATOM      2  O   UNL     1       2.242   7.895  -8.317  0.00  0.00    -0.245 OA
ENDROOT
BRANCH   1   3
ATOM      3  C   UNL     1       1.304   5.745  -8.852  0.00  0.00    +0.082 C 
ATOM      4  C   UNL     1       0.038   5.752  -9.165  0.00  0.00    +0.007 C 
BRANCH   4   5
ATOM      5  C   UNL     1      -0.235   5.931 -10.596  0.00  0.00    +0.000 A 
ATOM      6  C   UNL     1       0.109   4.823 -11.366  0.00  0.00    +0.003 A 
ATOM      7  C   UNL     1       0.829   4.938 -12.549  0.00  0.00    +0.037 A 
ATOM      8  C   UNL     1       1.048   6.189 -13.096  0.00  0.00    +0.139 A 
ATOM      9  C   UNL     1       0.254   7.204 -12.599  0.00  0.00    +0.037 A 
ATOM     10  C   UNL     1      -0.102   7.139 -11.257  0.00  0.00    +0.003 A 
BRANCH   8  11
ATOM     11  O   UNL     1       2.108   6.423 -13.978  0.00  0.00    -0.471 OA
ATOM     12  C   UNL     1       3.237   5.578 -14.068  0.00  0.00    +0.252 C 
ENDBRANCH   8  11
ENDBRANCH   4   5
ENDBRANCH   1   3
BRANCH   1  13
ATOM     13  O   UNL     1       3.181   6.682  -9.903  0.00  0.00    -0.445 OA
BRANCH  13  14
ATOM     14  C   UNL     1       3.710   5.472 -10.198  0.00  0.00    +0.209 C 
BRANCH  14  15
ATOM     15  C   UNL     1       5.255   5.638 -10.752  0.00  0.00    +0.044 C 
BRANCH  15  16
ATOM     16  C   UNL     1       5.149   7.266 -11.015  0.00  0.00    +0.004 C 
ATOM     17  C   UNL     1       6.617   7.626 -11.044  0.00  0.00    +0.000 C 
ENDBRANCH  15  16
BRANCH  15  18
ATOM     18  C   UNL     1       5.853   5.857  -9.226  0.00  0.00    +0.004 C 
BRANCH  18  19
ATOM     19  C   UNL     1       5.115   4.905  -8.341  0.00  0.00    +0.000 C 
BRANCH  19  21
ATOM     20  C   UNL     1       4.306   5.754  -6.489  0.00  0.00    +0.000 C 
ATOM     21  C   UNL     1       4.810   5.435  -6.969  0.00  0.00    +0.000 C 
ENDBRANCH  19  21
ENDBRANCH  18  19
ENDBRANCH  15  18
ENDBRANCH  14  15
ENDBRANCH  13  14
ENDBRANCH   1  13
TORSDOF 10
ENDMDL
