MODEL 1
REMARK VINA RESULT:      -8.1      0.000      0.000
REMARK  Name = 
REMARK  7 active torsions:
REMARK  status: ('A' for Active; 'I' for Inactive)
REMARK    1  A    between atoms: N_2  and  C_3
REMARK    2  A    between atoms: C_3  and  C_5
REMARK    3  A    between atoms: C_10  and  O_11
REMARK    4  A    between atoms: O_11  and  C_12
REMARK    5  A    between atoms: C_18  and  O_19
REMARK    6  A    between atoms: O_19  and  C_20
REMARK    7  A    between atoms: C_26  and  N_27
REMARK                            x       y       z     vdW  Elec       q    Type
REMARK                         _______ _______ _______ _____ _____    ______ ____
ROOT
ATOM      1  C   UNL     1       2.252   5.007  -6.141  0.00  0.00    +0.168 C 
ATOM      2  C   UNL     1       1.398   6.067  -7.169  0.00  0.00    +0.209 C 
ATOM      3  O   UNL     1       0.331   5.045  -7.392  0.00  0.00    -0.218 OA
ATOM      4  C   UNL     1       2.286   5.566  -8.530  0.00  0.00    +0.168 C 
ATOM      5  C   UNL     1       3.247   6.987  -8.566  0.00  0.00    +0.123 C 
ATOM      6  N   UNL     1       2.099   8.014  -8.301  0.00  0.00    -0.130 NA
ATOM      7  C   UNL     1       3.621   6.899  -6.980  0.00  0.00    +0.043 C 
ATOM      8  C   UNL     1       3.798   5.287  -6.830  0.00  0.00    +0.123 C 
ATOM      9  N   UNL     1       4.580   5.401  -5.485  0.00  0.00    -0.130 NA
ENDROOT
BRANCH   1  10
ATOM     10  O   UNL     1       2.334   6.046  -5.064  0.00  0.00    -0.328 OA
BRANCH  10  13
ATOM     11  C   UNL     1      -0.879   5.626  -3.743  0.00  0.00    +0.134 C 
ATOM     12  O   UNL     1       0.349   6.405  -4.155  0.00  0.00    -0.331 OA
ATOM     13  C   UNL     1       1.377   5.279  -4.151  0.00  0.00    +0.253 C 
ATOM     14  C   UNL     1       2.190   5.798  -2.713  0.00  0.00    +0.148 C 
ATOM     15  N   UNL     1       2.222   7.319  -3.046  0.00  0.00    -0.128 NA
ATOM     16  C   UNL     1       0.801   5.919  -1.876  0.00  0.00    +0.027 C 
ATOM     17  C   UNL     1      -0.139   4.929  -2.462  0.00  0.00    +0.033 C 
BRANCH  11  18
ATOM     18  C   UNL     1      -1.453   6.942  -2.811  0.00  0.00    +0.100 C 
ATOM     19  C   UNL     1      -1.933   7.732  -4.151  0.00  0.00    +0.021 C 
BRANCH  18  21
ATOM     20  C   UNL     1      -3.335   6.750  -2.009  0.00  0.00    +0.107 C 
ATOM     21  N   UNL     1      -2.865   6.312  -2.611  0.00  0.00    -0.215 NA
ENDBRANCH  18  21
ENDBRANCH  11  18
ENDBRANCH  10  13
ENDBRANCH   1  10
BRANCH   4  22
ATOM     22  O   UNL     1       1.351   6.064  -9.592  0.00  0.00    -0.327 OA
BRANCH  22  23
ATOM     23  C   UNL     1       2.116   5.192 -10.599  0.00  0.00    +0.268 C 
ATOM     24  C   UNL     1       0.780   4.420 -11.362  0.00  0.00    +0.226 C 
ATOM     25  O   UNL     1      -0.176   4.494 -10.201  0.00  0.00    -0.216 OA
ATOM     26  C   UNL     1      -0.059   5.644 -12.184  0.00  0.00    +0.138 C 
ATOM     27  C   UNL     1       1.062   5.688 -13.377  0.00  0.00    +0.171 C 
ATOM     28  O   UNL     1       0.622   6.585 -14.303  0.00  0.00    -0.222 OA
ATOM     29  C   UNL     1       0.945   4.259 -13.909  0.00  0.00    +0.037 C 
ATOM     30  C   UNL     1       2.398   5.798 -12.841  0.00  0.00    +0.176 C 
ATOM     31  O   UNL     1       2.377   6.292 -11.611  0.00  0.00    -0.326 OA
BRANCH  26  32
ATOM     32  N   UNL     1       0.367   6.906 -11.393  0.00  0.00    -0.213 NA
ATOM     33  C   UNL     1      -0.613   7.885 -11.486  0.00  0.00    +0.108 C 
ENDBRANCH  26  32
ENDBRANCH  22  23
ENDBRANCH   4  22
TORSDOF 7
ENDMDL
MODEL 2
REMARK VINA RESULT:      -7.8      2.666      9.036
REMARK  Name = 
REMARK  7 active torsions:
REMARK  status: ('A' for Active; 'I' for Inactive)
REMARK    1  A    between atoms: N_2  and  C_3
REMARK    2  A    between atoms: C_3  and  C_5
REMARK    3  A    between atoms: C_10  and  O_11
REMARK    4  A    between atoms: O_11  and  C_12
REMARK    5  A    between atoms: C_18  and  O_19
REMARK    6  A    between atoms: O_19  and  C_20
REMARK    7  A    between atoms: C_26  and  N_27
REMARK                            x       y       z     vdW  Elec       q    Type
REMARK                         _______ _______ _______ _____ _____    ______ ____
ROOT
ATOM      1  C   UNL     1       2.490   4.872  -9.356  0.00  0.00    +0.168 C 
ATOM      2  C   UNL     1       3.295   5.965  -8.323  0.00  0.00    +0.209 C 
ATOM      3  O   UNL     1       4.405   4.990  -8.103  0.00  0.00    -0.218 OA
ATOM      4  C   UNL     1       2.429   5.421  -6.964  0.00  0.00    +0.168 C 
ATOM      5  C   UNL     1       1.407   6.798  -6.924  0.00  0.00    +0.123 C 
ATOM      6  N   UNL     1       2.509   7.875  -7.184  0.00  0.00    -0.130 NA
ATOM      7  C   UNL     1       1.038   6.699  -8.511  0.00  0.00    +0.043 C 
ATOM      8  C   UNL     1       0.932   5.082  -8.667  0.00  0.00    +0.123 C 
ATOM      9  N   UNL     1       0.146   5.167 -10.013  0.00  0.00    -0.130 NA
ENDROOT
BRANCH   1  10
ATOM     10  O   UNL     1       2.363   5.911 -10.429  0.00  0.00    -0.328 OA
BRANCH  10  13
ATOM     11  C   UNL     1       5.389   5.562 -12.150  0.00  0.00    +0.134 C 
ATOM     12  O   UNL     1       4.175   6.301 -11.637  0.00  0.00    -0.331 OA
ATOM     13  C   UNL     1       3.240   5.119 -11.399  0.00  0.00    +0.253 C 
ATOM     14  C   UNL     1       2.204   5.449 -12.747  0.00  0.00    +0.148 C 
ATOM     15  N   UNL     1       2.107   6.990 -12.544  0.00  0.00    -0.128 NA
ATOM     16  C   UNL     1       3.454   5.573 -13.779  0.00  0.00    +0.027 C 
ATOM     17  C   UNL     1       4.535   4.702 -13.249  0.00  0.00    +0.033 C 
BRANCH  11  18
ATOM     18  C   UNL     1       5.733   6.814 -13.265  0.00  0.00    +0.100 C 
ATOM     19  C   UNL     1       6.551   7.650 -12.132  0.00  0.00    +0.021 C 
BRANCH  18  21
ATOM     20  C   UNL     1       7.259   6.416 -14.583  0.00  0.00    +0.107 C 
ATOM     21  N   UNL     1       7.037   6.132 -13.780  0.00  0.00    -0.215 NA
ENDBRANCH  18  21
ENDBRANCH  11  18
ENDBRANCH  10  13
ENDBRANCH   1  10
BRANCH   4  22
ATOM     22  O   UNL     1       3.341   5.955  -5.900  0.00  0.00    -0.327 OA
BRANCH  22  23
ATOM     23  C   UNL     1       2.627   5.031  -4.901  0.00  0.00    +0.268 C 
ATOM     24  C   UNL     1       3.985   4.543  -3.963  0.00  0.00    +0.226 C 
ATOM     25  O   UNL     1       5.030   4.704  -5.035  0.00  0.00    -0.216 OA
ATOM     26  C   UNL     1       4.529   5.939  -3.167  0.00  0.00    +0.138 C 
ATOM     27  C   UNL     1       3.300   5.869  -2.087  0.00  0.00    +0.171 C 
ATOM     28  O   UNL     1       3.493   6.881  -1.197  0.00  0.00    -0.222 OA
ATOM     29  C   UNL     1       3.590   4.514  -1.436  0.00  0.00    +0.037 C 
ATOM     30  C   UNL     1       2.025   5.719  -2.747  0.00  0.00    +0.176 C 
ATOM     31  O   UNL     1       2.091   6.132  -4.005  0.00  0.00    -0.326 OA
BRANCH  26  32
ATOM     32  N   UNL     1       3.988   7.060  -4.089  0.00  0.00    -0.213 NA
ATOM     33  C   UNL     1       4.914   8.089  -4.189  0.00  0.00    +0.108 C 
ENDBRANCH  26  32
ENDBRANCH  22  23
ENDBRANCH   4  22
TORSDOF 7
ENDMDL
MODEL 3
REMARK VINA RESULT:      -6.8      4.156      9.694
REMARK  Name = 
REMARK  7 active torsions:
REMARK  status: ('A' for Active; 'I' for Inactive)
REMARK    1  A    between atoms: N_2  and  C_3
REMARK    2  A    between atoms: C_3  and  C_5
REMARK    3  A    between atoms: C_10  and  O_11
REMARK    4  A    between atoms: O_11  and  C_12
REMARK    5  A    between atoms: C_18  and  O_19
REMARK    6  A    between atoms: O_19  and  C_20
REMARK    7  A    between atoms: C_26  and  N_27
REMARK                            x       y       z     vdW  Elec       q    Type
REMARK                         _______ _______ _______ _____ _____    ______ ____
ROOT
ATOM      1  C   UNL     1       2.895   7.365  -3.398  0.00  0.00    +0.168 C 
ATOM      2  C   UNL     1       2.638   6.466  -1.970  0.00  0.00    +0.209 C 
ATOM      3  O   UNL     1       1.204   6.885  -1.926  0.00  0.00    -0.218 OA
ATOM      4  C   UNL     1       3.139   7.761  -0.988  0.00  0.00    +0.168 C 
ATOM      5  C   UNL     1       4.667   7.058  -0.648  0.00  0.00    +0.123 C 
ATOM      6  N   UNL     1       4.167   5.599  -0.398  0.00  0.00    -0.130 NA
ATOM      7  C   UNL     1       4.990   6.748  -2.218  0.00  0.00    +0.043 C 
ATOM      8  C   UNL     1       4.366   8.091  -2.895  0.00  0.00    +0.123 C 
ATOM      9  N   UNL     1       5.138   7.888  -4.237  0.00  0.00    -0.130 NA
ENDROOT
BRANCH   1  10
ATOM     10  O   UNL     1       3.496   6.178  -4.089  0.00  0.00    -0.328 OA
BRANCH  10  13
ATOM     11  C   UNL     1       0.514   6.569  -5.875  0.00  0.00    +0.134 C 
ATOM     12  O   UNL     1       1.468   5.887  -4.923  0.00  0.00    -0.331 OA
ATOM     13  C   UNL     1       2.783   6.492  -5.404  0.00  0.00    +0.253 C 
ATOM     14  C   UNL     1       3.363   5.050  -6.167  0.00  0.00    +0.148 C 
ATOM     15  N   UNL     1       2.954   4.056  -5.040  0.00  0.00    -0.128 NA
ATOM     16  C   UNL     1       1.976   4.831  -6.987  0.00  0.00    +0.027 C 
ATOM     17  C   UNL     1       1.389   6.179  -7.202  0.00  0.00    +0.033 C 
BRANCH  11  18
ATOM     18  C   UNL     1      -0.450   5.159  -5.986  0.00  0.00    +0.100 C 
ATOM     19  C   UNL     1      -1.144   5.474  -4.547  0.00  0.00    +0.021 C 
BRANCH  18  21
ATOM     20  C   UNL     1      -2.389   5.672  -6.437  0.00  0.00    +0.107 C 
ATOM     21  N   UNL     1      -1.596   5.883  -6.756  0.00  0.00    -0.215 NA
ENDBRANCH  18  21
ENDBRANCH  11  18
ENDBRANCH  10  13
ENDBRANCH   1  10
BRANCH   4  22
ATOM     22  O   UNL     1       2.537   7.295   0.305  0.00  0.00    -0.327 OA
BRANCH  22  23
ATOM     23  C   UNL     1       1.707   8.588   0.321  0.00  0.00    +0.268 C 
ATOM     24  C   UNL     1       0.945   8.403   1.853  0.00  0.00    +0.226 C 
ATOM     25  O   UNL     1       0.969   6.898   1.902  0.00  0.00    -0.216 OA
ATOM     26  C   UNL     1       2.184   8.502   3.007  0.00  0.00    +0.138 C 
ATOM     27  C   UNL     1       2.280  10.128   2.845  0.00  0.00    +0.171 C 
ATOM     28  O   UNL     1       3.201  10.564   3.750  0.00  0.00    -0.222 OA
ATOM     29  C   UNL     1       0.867  10.526   3.277  0.00  0.00    +0.037 C 
ATOM     30  C   UNL     1       2.388  10.516   1.459  0.00  0.00    +0.176 C 
ATOM     31  O   UNL     1       2.842   9.513   0.720  0.00  0.00    -0.326 OA
BRANCH  26  32
ATOM     32  N   UNL     1       3.424   8.094   2.174  0.00  0.00    -0.213 NA
ATOM     33  C   UNL     1       4.413   7.581   3.003  0.00  0.00    +0.108 C 
ENDBRANCH  26  32
ENDBRANCH  22  23
ENDBRANCH   4  22
TORSDOF 7
ENDMDL
MODEL 4
REMARK VINA RESULT:      -6.5      3.182      4.965
REMARK  Name = 
REMARK  7 active torsions:
REMARK  status: ('A' for Active; 'I' for Inactive)
REMARK    1  A    between atoms: N_2  and  C_3
REMARK    2  A    between atoms: C_3  and  C_5
REMARK    3  A    between atoms: C_10  and  O_11
REMARK    4  A    between atoms: O_11  and  C_12
REMARK    5  A    between atoms: C_18  and  O_19
REMARK    6  A    between atoms: O_19  and  C_20
REMARK    7  A    between atoms: C_26  and  N_27
REMARK                            x       y       z     vdW  Elec       q    Type
REMARK                         _______ _______ _______ _____ _____    ______ ____
ROOT
ATOM      1  C   UNL     1       2.522   6.118  -1.149  0.00  0.00    +0.168 C 
ATOM      2  C   UNL     1       2.366   6.987  -2.609  0.00  0.00    +0.209 C 
ATOM      3  O   UNL     1       1.008   6.408  -2.846  0.00  0.00    -0.218 OA
ATOM      4  C   UNL     1       3.141   5.762  -3.497  0.00  0.00    +0.168 C 
ATOM      5  C   UNL     1       4.612   6.635  -3.631  0.00  0.00    +0.123 C 
ATOM      6  N   UNL     1       3.990   8.029  -3.965  0.00  0.00    -0.130 NA
ATOM      7  C   UNL     1       4.677   6.974  -2.036  0.00  0.00    +0.043 C 
ATOM      8  C   UNL     1       4.121   5.566  -1.435  0.00  0.00    +0.123 C 
ATOM      9  N   UNL     1       4.672   5.850  -0.002  0.00  0.00    -0.130 NA
ENDROOT
BRANCH   1  10
ATOM     10  O   UNL     1       2.883   7.362  -0.396  0.00  0.00    -0.328 OA
BRANCH  10  13
ATOM     11  C   UNL     1      -0.360   6.905   0.835  0.00  0.00    +0.134 C 
ATOM     12  O   UNL     1       0.737   7.617   0.077  0.00  0.00    -0.331 OA
ATOM     13  C   UNL     1       1.956   7.014   0.768  0.00  0.00    +0.253 C 
ATOM     14  C   UNL     1       2.375   8.444   1.649  0.00  0.00    +0.148 C 
ATOM     15  N   UNL     1       2.155   9.459   0.488  0.00  0.00    -0.128 NA
ATOM     16  C   UNL     1       0.864   8.632   2.219  0.00  0.00    +0.027 C 
ATOM     17  C   UNL     1       0.266   7.275   2.301  0.00  0.00    +0.033 C 
BRANCH  11  18
ATOM     18  C   UNL     1      -1.347   8.303   0.804  0.00  0.00    +0.100 C 
ATOM     19  C   UNL     1      -1.960   7.884  -0.645  0.00  0.00    +0.021 C 
BRANCH  18  21
ATOM     20  C   UNL     1      -3.099   8.198   1.872  0.00  0.00    +0.107 C 
ATOM     21  N   UNL     1      -2.521   7.612   1.561  0.00  0.00    -0.215 NA
ENDBRANCH  18  21
ENDBRANCH  11  18
ENDBRANCH  10  13
ENDBRANCH   1  10
BRANCH   4  22
ATOM     22  O   UNL     1       2.675   6.161  -4.866  0.00  0.00    -0.327 OA
BRANCH  22  23
ATOM     23  C   UNL     1       3.276   4.849  -5.394  0.00  0.00    +0.268 C 
ATOM     24  C   UNL     1       1.989   4.355  -6.424  0.00  0.00    +0.226 C 
ATOM     25  O   UNL     1       0.872   5.045  -5.685  0.00  0.00    -0.216 OA
ATOM     26  C   UNL     1       1.924   5.501  -7.674  0.00  0.00    +0.138 C 
ATOM     27  C   UNL     1       3.240   4.858  -8.406  0.00  0.00    +0.171 C 
ATOM     28  O   UNL     1       3.431   5.552  -9.562  0.00  0.00    -0.222 OA
ATOM     29  C   UNL     1       2.723   3.448  -8.700  0.00  0.00    +0.037 C 
ATOM     30  C   UNL     1       4.331   4.687  -7.476  0.00  0.00    +0.176 C 
ATOM     31  O   UNL     1       4.189   5.485  -6.427  0.00  0.00    -0.326 OA
BRANCH  26  32
ATOM     32  N   UNL     1       2.585   6.733  -7.007  0.00  0.00    -0.213 NA
ATOM     33  C   UNL     1       2.103   7.904  -7.575  0.00  0.00    +0.108 C 
ENDBRANCH  26  32
ENDBRANCH  22  23
ENDBRANCH   4  22
TORSDOF 7
ENDMDL
MODEL 5
REMARK VINA RESULT:      -6.5      2.425      8.636
REMARK  Name = 
REMARK  7 active torsions:
REMARK  status: ('A' for Active; 'I' for Inactive)
REMARK    1  A    between atoms: N_2  and  C_3
REMARK    2  A    between atoms: C_3  and  C_5
REMARK    3  A    between atoms: C_10  and  O_11
REMARK    4  A    between atoms: O_11  and  C_12
REMARK    5  A    between atoms: C_18  and  O_19
REMARK    6  A    between atoms: O_19  and  C_20
REMARK    7  A    between atoms: C_26  and  N_27
REMARK                            x       y       z     vdW  Elec       q    Type
REMARK                         _______ _______ _______ _____ _____    ______ ____
ROOT
ATOM      1  C   UNL     1       0.951   4.917  -7.431  0.00  0.00    +0.168 C 
ATOM      2  C   UNL     1       1.901   6.101  -6.652  0.00  0.00    +0.209 C 
ATOM      3  O   UNL     1       3.125   5.254  -6.786  0.00  0.00    -0.218 OA
ATOM      4  C   UNL     1       1.531   5.480  -5.113  0.00  0.00    +0.168 C 
ATOM      5  C   UNL     1       0.424   6.738  -4.748  0.00  0.00    +0.123 C 
ATOM      6  N   UNL     1       1.281   7.926  -5.293  0.00  0.00    -0.130 NA
ATOM      7  C   UNL     1      -0.378   6.584  -6.161  0.00  0.00    +0.043 C 
ATOM      8  C   UNL     1      -0.351   4.963  -6.316  0.00  0.00    +0.123 C 
ATOM      9  N   UNL     1      -1.499   4.949  -7.373  0.00  0.00    -0.130 NA
ENDROOT
BRANCH   1  10
ATOM     10  O   UNL     1       0.408   5.925  -8.398  0.00  0.00    -0.328 OA
BRANCH  10  13
ATOM     11  C   UNL     1       2.987   5.153 -10.633  0.00  0.00    +0.134 C 
ATOM     12  O   UNL     1       2.100   6.065  -9.818  0.00  0.00    -0.331 OA
ATOM     13  C   UNL     1       0.906   5.138  -9.610  0.00  0.00    +0.253 C 
ATOM     14  C   UNL     1      -0.149   5.974 -10.700  0.00  0.00    +0.148 C 
ATOM     15  N   UNL     1       0.215   7.420 -10.251  0.00  0.00    -0.128 NA
ATOM     16  C   UNL     1       0.954   5.971 -11.895  0.00  0.00    +0.027 C 
ATOM     17  C   UNL     1       1.802   4.767 -11.692  0.00  0.00    +0.033 C 
BRANCH  11  18
ATOM     18  C   UNL     1       3.534   6.467 -11.584  0.00  0.00    +0.100 C 
ATOM     19  C   UNL     1       4.632   6.878 -10.454  0.00  0.00    +0.021 C 
BRANCH  18  21
ATOM     20  C   UNL     1       5.149   6.100 -12.801  0.00  0.00    +0.107 C 
ATOM     21  N   UNL     1       4.576   5.601 -12.357  0.00  0.00    -0.215 NA
ENDBRANCH  18  21
ENDBRANCH  11  18
ENDBRANCH  10  13
ENDBRANCH   1  10
BRANCH   4  22
ATOM     22  O   UNL     1       2.650   6.120  -4.348  0.00  0.00    -0.327 OA
BRANCH  22  23
ATOM     23  C   UNL     1       2.746   4.832  -3.516  0.00  0.00    +0.268 C 
ATOM     24  C   UNL     1       4.408   4.913  -3.078  0.00  0.00    +0.226 C 
ATOM     25  O   UNL     1       4.884   5.707  -4.267  0.00  0.00    -0.216 OA
ATOM     26  C   UNL     1       4.560   6.264  -2.064  0.00  0.00    +0.138 C 
ATOM     27  C   UNL     1       3.893   5.461  -0.802  0.00  0.00    +0.171 C 
ATOM     28  O   UNL     1       3.933   6.300   0.269  0.00  0.00    -0.222 OA
ATOM     29  C   UNL     1       4.907   4.327  -0.640  0.00  0.00    +0.037 C 
ATOM     30  C   UNL     1       2.653   4.825  -1.178  0.00  0.00    +0.176 C 
ATOM     31  O   UNL     1       2.130   5.401  -2.251  0.00  0.00    -0.326 OA
BRANCH  26  32
ATOM     32  N   UNL     1       3.340   7.118  -2.490  0.00  0.00    -0.213 NA
ATOM     33  C   UNL     1       3.588   8.463  -2.255  0.00  0.00    +0.108 C 
ENDBRANCH  26  32
ENDBRANCH  22  23
ENDBRANCH   4  22
TORSDOF 7
ENDMDL
MODEL 6
REMARK VINA RESULT:      -6.5      3.764      5.831
REMARK  Name = 
REMARK  7 active torsions:
REMARK  status: ('A' for Active; 'I' for Inactive)
REMARK    1  A    between atoms: N_2  and  C_3
REMARK    2  A    between atoms: C_3  and  C_5
REMARK    3  A    between atoms: C_10  and  O_11
REMARK    4  A    between atoms: O_11  and  C_12
REMARK    5  A    between atoms: C_18  and  O_19
REMARK    6  A    between atoms: O_19  and  C_20
REMARK    7  A    between atoms: C_26  and  N_27
REMARK                            x       y       z     vdW  Elec       q    Type
REMARK                         _______ _______ _______ _____ _____    ______ ____
ROOT
ATOM      1  C   UNL     1       2.846   6.537  -1.795  0.00  0.00    +0.168 C 
ATOM      2  C   UNL     1       3.725   6.869  -3.219  0.00  0.00    +0.209 C 
ATOM      3  O   UNL     1       2.793   7.982  -3.574  0.00  0.00    -0.218 OA
ATOM      4  C   UNL     1       2.839   5.723  -4.110  0.00  0.00    +0.168 C 
ATOM      5  C   UNL     1       4.108   4.570  -4.103  0.00  0.00    +0.123 C 
ATOM      6  N   UNL     1       5.279   5.556  -4.411  0.00  0.00    -0.130 NA
ATOM      7  C   UNL     1       4.346   4.688  -2.493  0.00  0.00    +0.043 C 
ATOM      8  C   UNL     1       2.802   4.834  -1.998  0.00  0.00    +0.123 C 
ATOM      9  N   UNL     1       3.140   4.465  -0.520  0.00  0.00    -0.130 NA
ENDROOT
BRANCH   1  10
ATOM     10  O   UNL     1       4.089   6.597  -0.961  0.00  0.00    -0.328 OA
BRANCH  10  13
ATOM     11  C   UNL     1       2.983   9.651   0.337  0.00  0.00    +0.134 C 
ATOM     12  O   UNL     1       3.969   8.709  -0.313  0.00  0.00    -0.331 OA
ATOM     13  C   UNL     1       3.392   7.376   0.154  0.00  0.00    +0.253 C 
ATOM     14  C   UNL     1       4.647   7.040   1.298  0.00  0.00    +0.148 C 
ATOM     15  N   UNL     1       5.846   7.469   0.402  0.00  0.00    -0.128 NA
ATOM     16  C   UNL     1       4.521   8.508   1.987  0.00  0.00    +0.027 C 
ATOM     17  C   UNL     1       3.113   8.945   1.807  0.00  0.00    +0.033 C 
BRANCH  11  18
ATOM     18  C   UNL     1       4.222  10.784   0.672  0.00  0.00    +0.100 C 
ATOM     19  C   UNL     1       3.819  11.669  -0.634  0.00  0.00    +0.021 C 
BRANCH  18  21
ATOM     20  C   UNL     1       3.782  12.256   2.036  0.00  0.00    +0.107 C 
ATOM     21  N   UNL     1       3.317  11.647   1.603  0.00  0.00    -0.215 NA
ENDBRANCH  18  21
ENDBRANCH  11  18
ENDBRANCH  10  13
ENDBRANCH   1  10
BRANCH   4  22
ATOM     22  O   UNL     1       3.173   6.216  -5.487  0.00  0.00    -0.327 OA
BRANCH  22  23
ATOM     23  C   UNL     1       1.683   6.086  -5.837  0.00  0.00    +0.268 C 
ATOM     24  C   UNL     1       1.654   7.045  -7.265  0.00  0.00    +0.226 C 
ATOM     25  O   UNL     1       2.813   7.943  -6.921  0.00  0.00    -0.216 OA
ATOM     26  C   UNL     1       2.587   6.210  -8.409  0.00  0.00    +0.138 C 
ATOM     27  C   UNL     1       1.389   5.126  -8.677  0.00  0.00    +0.171 C 
ATOM     28  O   UNL     1       1.819   4.295  -9.667  0.00  0.00    -0.222 OA
ATOM     29  C   UNL     1       0.293   6.060  -9.194  0.00  0.00    +0.037 C 
ATOM     30  C   UNL     1       0.886   4.579  -7.440  0.00  0.00    +0.176 C 
ATOM     31  O   UNL     1       1.777   4.709  -6.467  0.00  0.00    -0.326 OA
BRANCH  26  32
ATOM     32  N   UNL     1       3.503   5.351  -7.502  0.00  0.00    -0.213 NA
ATOM     33  C   UNL     1       4.743   5.174  -8.101  0.00  0.00    +0.108 C 
ENDBRANCH  26  32
ENDBRANCH  22  23
ENDBRANCH   4  22
TORSDOF 7
ENDMDL
MODEL 7
REMARK VINA RESULT:      -6.3      3.090      4.896
REMARK  Name = 
REMARK  7 active torsions:
REMARK  status: ('A' for Active; 'I' for Inactive)
REMARK    1  A    between atoms: N_2  and  C_3
REMARK    2  A    between atoms: C_3  and  C_5
REMARK    3  A    between atoms: C_10  and  O_11
REMARK    4  A    between atoms: O_11  and  C_12
REMARK    5  A    between atoms: C_18  and  O_19
REMARK    6  A    between atoms: O_19  and  C_20
REMARK    7  A    between atoms: C_26  and  N_27
REMARK                            x       y       z     vdW  Elec       q    Type
REMARK                         _______ _______ _______ _____ _____    ______ ____
ROOT
ATOM      1  C   UNL     1       1.762   6.711  -7.824  0.00  0.00    +0.168 C 
ATOM      2  C   UNL     1       3.288   5.994  -8.082  0.00  0.00    +0.209 C 
ATOM      3  O   UNL     1       3.979   7.294  -7.821  0.00  0.00    -0.218 OA
ATOM      4  C   UNL     1       3.208   6.272  -9.758  0.00  0.00    +0.168 C 
ATOM      5  C   UNL     1       2.851   4.635 -10.126  0.00  0.00    +0.123 C 
ATOM      6  N   UNL     1       3.884   3.980  -9.154  0.00  0.00    -0.130 NA
ATOM      7  C   UNL     1       1.654   4.539  -9.021  0.00  0.00    +0.043 C 
ATOM      8  C   UNL     1       1.000   6.021  -9.197  0.00  0.00    +0.123 C 
ATOM      9  N   UNL     1      -0.332   5.622  -8.487  0.00  0.00    -0.130 NA
ENDROOT
BRANCH   1  10
ATOM     10  O   UNL     1       1.380   5.647  -6.840  0.00  0.00    -0.328 OA
BRANCH  10  13
ATOM     11  C   UNL     1       3.220   6.668  -4.045  0.00  0.00    +0.134 C 
ATOM     12  O   UNL     1       2.556   5.671  -4.967  0.00  0.00    -0.331 OA
ATOM     13  C   UNL     1       1.546   6.589  -5.648  0.00  0.00    +0.253 C 
ATOM     14  C   UNL     1       0.158   5.948  -4.833  0.00  0.00    +0.148 C 
ATOM     15  N   UNL     1       0.539   4.443  -4.957  0.00  0.00    -0.128 NA
ATOM     16  C   UNL     1       0.851   6.095  -3.369  0.00  0.00    +0.027 C 
ATOM     17  C   UNL     1       1.802   7.234  -3.459  0.00  0.00    +0.033 C 
BRANCH  11  18
ATOM     18  C   UNL     1       3.366   5.493  -2.810  0.00  0.00    +0.100 C 
ATOM     19  C   UNL     1       4.716   4.888  -3.491  0.00  0.00    +0.021 C 
BRANCH  18  21
ATOM     20  C   UNL     1       4.308   6.079  -1.080  0.00  0.00    +0.107 C 
ATOM     21  N   UNL     1       4.192   6.431  -1.878  0.00  0.00    -0.215 NA
ENDBRANCH  18  21
ENDBRANCH  11  18
ENDBRANCH  10  13
ENDBRANCH   1  10
BRANCH   4  22
ATOM     22  O   UNL     1       4.667   6.118 -10.072  0.00  0.00    -0.327 OA
BRANCH  22  23
ATOM     23  C   UNL     1       4.316   6.330 -11.552  0.00  0.00    +0.268 C 
ATOM     24  C   UNL     1       5.600   7.389 -11.988  0.00  0.00    +0.226 C 
ATOM     25  O   UNL     1       5.825   7.994 -10.628  0.00  0.00    -0.216 OA
ATOM     26  C   UNL     1       7.023   6.474 -11.861  0.00  0.00    +0.138 C 
ATOM     27  C   UNL     1       6.711   5.689 -13.263  0.00  0.00    +0.171 C 
ATOM     28  O   UNL     1       7.772   4.871 -13.507  0.00  0.00    -0.222 OA
ATOM     29  C   UNL     1       6.704   6.870 -14.237  0.00  0.00    +0.037 C 
ATOM     30  C   UNL     1       5.368   5.159 -13.283  0.00  0.00    +0.176 C 
ATOM     31  O   UNL     1       4.895   5.020 -12.052  0.00  0.00    -0.326 OA
BRANCH  26  32
ATOM     32  N   UNL     1       6.602   5.372 -10.858  0.00  0.00    -0.213 NA
ATOM     33  C   UNL     1       7.638   5.107  -9.972  0.00  0.00    +0.108 C 
ENDBRANCH  26  32
ENDBRANCH  22  23
ENDBRANCH   4  22
TORSDOF 7
ENDMDL
MODEL 8
REMARK VINA RESULT:      -6.1      2.335      4.350
REMARK  Name = 
REMARK  7 active torsions:
REMARK  status: ('A' for Active; 'I' for Inactive)
REMARK    1  A    between atoms: N_2  and  C_3
REMARK    2  A    between atoms: C_3  and  C_5
REMARK    3  A    between atoms: C_10  and  O_11
REMARK    4  A    between atoms: O_11  and  C_12
REMARK    5  A    between atoms: C_18  and  O_19
REMARK    6  A    between atoms: O_19  and  C_20
REMARK    7  A    between atoms: C_26  and  N_27
REMARK                            x       y       z     vdW  Elec       q    Type
REMARK                         _______ _______ _______ _____ _____    ______ ____
ROOT
ATOM      1  C   UNL     1       0.432   6.803  -4.179  0.00  0.00    +0.168 C 
ATOM      2  C   UNL     1       0.553   5.382  -5.115  0.00  0.00    +0.209 C 
ATOM      3  O   UNL     1       2.046   5.427  -5.049  0.00  0.00    -0.218 OA
ATOM      4  C   UNL     1       0.502   6.258  -6.571  0.00  0.00    +0.168 C 
ATOM      5  C   UNL     1      -1.125   5.829  -6.903  0.00  0.00    +0.123 C 
ATOM      6  N   UNL     1      -1.018   4.319  -6.515  0.00  0.00    -0.130 NA
ATOM      7  C   UNL     1      -1.647   6.241  -5.413  0.00  0.00    +0.043 C 
ATOM      8  C   UNL     1      -0.743   7.573  -5.165  0.00  0.00    +0.123 C 
ATOM      9  N   UNL     1      -1.648   8.088  -4.004  0.00  0.00    -0.130 NA
ENDROOT
BRANCH   1  10
ATOM     10  O   UNL     1      -0.522   6.147  -3.227  0.00  0.00    -0.328 OA
BRANCH  10  13
ATOM     11  C   UNL     1       2.213   7.325  -1.389  0.00  0.00    +0.134 C 
ATOM     12  O   UNL     1       1.403   6.298  -2.145  0.00  0.00    -0.331 OA
ATOM     13  C   UNL     1       0.020   6.931  -2.031  0.00  0.00    +0.253 C 
ATOM     14  C   UNL     1      -0.597   5.787  -0.887  0.00  0.00    +0.148 C 
ATOM     15  N   UNL     1      -0.023   4.507  -1.563  0.00  0.00    -0.128 NA
ATOM     16  C   UNL     1       0.690   5.955   0.094  0.00  0.00    +0.027 C 
ATOM     17  C   UNL     1       1.201   7.336  -0.104  0.00  0.00    +0.033 C 
BRANCH  11  18
ATOM     18  C   UNL     1       3.205   6.106  -0.712  0.00  0.00    +0.100 C 
ATOM     19  C   UNL     1       4.195   6.139  -2.005  0.00  0.00    +0.021 C 
BRANCH  18  21
ATOM     20  C   UNL     1       4.912   6.817   0.184  0.00  0.00    +0.107 C 
ATOM     21  N   UNL     1       4.097   7.124   0.063  0.00  0.00    -0.215 NA
ENDBRANCH  18  21
ENDBRANCH  11  18
ENDBRANCH  10  13
ENDBRANCH   1  10
BRANCH   4  22
ATOM     22  O   UNL     1       1.061   5.202  -7.478  0.00  0.00    -0.327 OA
BRANCH  22  23
ATOM     23  C   UNL     1       2.311   6.079  -7.641  0.00  0.00    +0.268 C 
ATOM     24  C   UNL     1       3.306   4.978  -8.511  0.00  0.00    +0.226 C 
ATOM     25  O   UNL     1       2.696   3.706  -7.984  0.00  0.00    -0.216 OA
ATOM     26  C   UNL     1       2.557   4.761 -10.017  0.00  0.00    +0.138 C 
ATOM     27  C   UNL     1       3.080   6.218 -10.550  0.00  0.00    +0.171 C 
ATOM     28  O   UNL     1       2.681   6.335 -11.847  0.00  0.00    -0.222 OA
ATOM     29  C   UNL     1       4.593   6.007 -10.467  0.00  0.00    +0.037 C 
ATOM     30  C   UNL     1       2.779   7.265  -9.603  0.00  0.00    +0.176 C 
ATOM     31  O   UNL     1       1.787   6.907  -8.800  0.00  0.00    -0.326 OA
BRANCH  26  32
ATOM     32  N   UNL     1       1.087   5.126  -9.694  0.00  0.00    -0.213 NA
ATOM     33  C   UNL     1       0.227   4.491 -10.581  0.00  0.00    +0.108 C 
ENDBRANCH  26  32
ENDBRANCH  22  23
ENDBRANCH   4  22
TORSDOF 7
ENDMDL
MODEL 9
REMARK VINA RESULT:      -6.1      4.618      7.812
REMARK  Name = 
REMARK  7 active torsions:
REMARK  status: ('A' for Active; 'I' for Inactive)
REMARK    1  A    between atoms: N_2  and  C_3
REMARK    2  A    between atoms: C_3  and  C_5
REMARK    3  A    between atoms: C_10  and  O_11
REMARK    4  A    between atoms: O_11  and  C_12
REMARK    5  A    between atoms: C_18  and  O_19
REMARK    6  A    between atoms: O_19  and  C_20
REMARK    7  A    between atoms: C_26  and  N_27
REMARK                            x       y       z     vdW  Elec       q    Type
REMARK                         _______ _______ _______ _____ _____    ______ ____
ROOT
ATOM      1  C   UNL     1       1.791   8.030  -0.325  0.00  0.00    +0.168 C 
ATOM      2  C   UNL     1       3.053   7.187  -1.104  0.00  0.00    +0.209 C 
ATOM      3  O   UNL     1       3.467   8.421  -1.839  0.00  0.00    -0.218 OA
ATOM      4  C   UNL     1       2.026   6.676  -2.358  0.00  0.00    +0.168 C 
ATOM      5  C   UNL     1       1.902   5.075  -1.757  0.00  0.00    +0.123 C 
ATOM      6  N   UNL     1       3.410   4.875  -1.401  0.00  0.00    -0.130 NA
ATOM      7  C   UNL     1       1.542   5.562  -0.240  0.00  0.00    +0.043 C 
ATOM      8  C   UNL     1       0.587   6.836  -0.582  0.00  0.00    +0.123 C 
ATOM      9  N   UNL     1      -0.027   6.882   0.852  0.00  0.00    -0.130 NA
ENDROOT
BRANCH   1  10
ATOM     10  O   UNL     1       2.245   7.554   1.022  0.00  0.00    -0.328 OA
BRANCH  10  13
ATOM     11  C   UNL     1       4.768   9.842   1.823  0.00  0.00    +0.134 C 
ATOM     12  O   UNL     1       4.056   8.510   1.861  0.00  0.00    -0.331 OA
ATOM     13  C   UNL     1       2.654   8.960   1.461  0.00  0.00    +0.253 C 
ATOM     14  C   UNL     1       1.960   8.768   3.036  0.00  0.00    +0.148 C 
ATOM     15  N   UNL     1       2.624   7.401   3.375  0.00  0.00    -0.128 NA
ATOM     16  C   UNL     1       3.145   9.623   3.750  0.00  0.00    +0.027 C 
ATOM     17  C   UNL     1       3.640  10.593   2.740  0.00  0.00    +0.033 C 
BRANCH  11  18
ATOM     18  C   UNL     1       5.720   9.419   3.181  0.00  0.00    +0.100 C 
ATOM     19  C   UNL     1       6.598   8.378   2.288  0.00  0.00    +0.021 C 
BRANCH  18  21
ATOM     20  C   UNL     1       7.331  10.625   3.598  0.00  0.00    +0.107 C 
ATOM     21  N   UNL     1       6.746  10.570   2.943  0.00  0.00    -0.215 NA
ENDBRANCH  18  21
ENDBRANCH  11  18
ENDBRANCH  10  13
ENDBRANCH   1  10
BRANCH   4  22
ATOM     22  O   UNL     1       3.078   6.313  -3.364  0.00  0.00    -0.327 OA
BRANCH  22  23
ATOM     23  C   UNL     1       2.130   6.821  -4.460  0.00  0.00    +0.268 C 
ATOM     24  C   UNL     1       3.293   7.211  -5.667  0.00  0.00    +0.226 C 
ATOM     25  O   UNL     1       4.447   7.495  -4.741  0.00  0.00    -0.216 OA
ATOM     26  C   UNL     1       3.985   5.738  -6.144  0.00  0.00    +0.138 C 
ATOM     27  C   UNL     1       2.665   5.341  -7.029  0.00  0.00    +0.171 C 
ATOM     28  O   UNL     1       2.941   4.158  -7.645  0.00  0.00    -0.222 OA
ATOM     29  C   UNL     1       2.663   6.490  -8.039  0.00  0.00    +0.037 C 
ATOM     30  C   UNL     1       1.451   5.492  -6.262  0.00  0.00    +0.176 C 
ATOM     31  O   UNL     1       1.704   5.453  -4.962  0.00  0.00    -0.326 OA
BRANCH  26  32
ATOM     32  N   UNL     1       3.728   4.851  -4.900  0.00  0.00    -0.213 NA
ATOM     33  C   UNL     1       4.883   4.163  -4.553  0.00  0.00    +0.108 C 
ENDBRANCH  26  32
ENDBRANCH  22  23
ENDBRANCH   4  22
TORSDOF 7
ENDMDL
