MODEL 1
REMARK VINA RESULT:      -6.8      0.000      0.000
REMARK  Name = 
REMARK  9 active torsions:
REMARK  status: ('A' for Active; 'I' for Inactive)
REMARK    1  A    between atoms: C_2  and  C_3
REMARK    2  A    between atoms: C_3  and  O_5
REMARK    3  A    between atoms: O_5  and  C_6
REMARK    4  A    between atoms: C_6  and  C_7
REMARK    5  A    between atoms: C_6  and  C_14
REMARK    6  A    between atoms: C_6  and  C_20
REMARK    7  A    between atoms: C_7  and  C_8
REMARK    8  A    between atoms: C_20  and  C_22
REMARK    9  A    between atoms: C_22  and  N_23
REMARK                            x       y       z     vdW  Elec       q    Type
REMARK                         _______ _______ _______ _____ _____    ______ ____
ROOT
ATOM      1  C   UNL     1       0.783   5.807  -6.802  0.00  0.00    +0.160 C 
ENDROOT
BRANCH   1   2
ATOM      2  C   UNL     1      -0.373   6.331  -6.130  0.00  0.00    +0.014 A 
ATOM      3  C   UNL     1      -1.654   5.828  -6.338  0.00  0.00    -0.001 A 
ATOM      4  C   UNL     1      -2.604   6.012  -5.338  0.00  0.00    -0.000 A 
ATOM      5  C   UNL     1      -2.483   7.084  -4.461  0.00  0.00    -0.000 A 
ATOM      6  C   UNL     1      -1.488   8.002  -4.785  0.00  0.00    -0.000 A 
ATOM      7  C   UNL     1      -0.320   7.433  -5.282  0.00  0.00    -0.001 A 
ENDBRANCH   1   2
BRANCH   1   8
ATOM      8  C   UNL     1       1.901   5.261  -5.762  0.00  0.00    +0.057 C 
ATOM      9  C   UNL     1       1.912   3.728  -6.329  0.00  0.00    +0.005 C 
BRANCH   8  10
ATOM     10  C   UNL     1       0.850   4.853  -4.581  0.00  0.00    +0.076 C 
BRANCH  10  11
ATOM     11  N   UNL     1       1.527   5.073  -3.335  0.00  0.00    -0.270 NA
ATOM     12  C   UNL     1       2.576   6.053  -3.412  0.00  0.00    +0.090 C 
ATOM     13  C   UNL     1       0.629   5.474  -2.264  0.00  0.00    +0.090 C 
ENDBRANCH  10  11
ENDBRANCH   8  10
ENDBRANCH   1   8
BRANCH   1  14
ATOM     14  O   UNL     1       1.447   6.921  -7.409  0.00  0.00    -0.451 OA
BRANCH  14  15
ATOM     15  C   UNL     1       2.832   6.953  -7.223  0.00  0.00    +0.317 C 
ATOM     16  O   UNL     1       3.308   7.598  -6.243  0.00  0.00    -0.250 OA
BRANCH  15  18
ATOM     17  C   UNL     1       3.769   6.882  -9.448  0.00  0.00    +0.012 C 
ATOM     18  C   UNL     1       3.788   6.294  -8.125  0.00  0.00    +0.110 C 
ENDBRANCH  15  18
ENDBRANCH  14  15
ENDBRANCH   1  14
BRANCH   1  19
ATOM     19  C   UNL     1       0.555   4.839  -7.885  0.00  0.00    +0.071 C 
BRANCH  19  20
ATOM     20  C   UNL     1       0.562   5.370  -9.247  0.00  0.00    -0.018 A 
ATOM     21  C   UNL     1       1.071   4.537 -10.237  0.00  0.00    -0.004 A 
ATOM     22  C   UNL     1       0.670   4.729 -11.548  0.00  0.00    -0.000 A 
ATOM     23  C   UNL     1      -0.008   5.872 -11.953  0.00  0.00    -0.000 A 
ATOM     24  C   UNL     1      -0.331   6.798 -10.977  0.00  0.00    -0.000 A 
ATOM     25  C   UNL     1      -0.026   6.535  -9.665  0.00  0.00    -0.004 A 
ENDBRANCH  19  20
ENDBRANCH   1  19
TORSDOF 9
ENDMDL
MODEL 2
REMARK VINA RESULT:      -6.7      2.119      5.150
REMARK  Name = 
REMARK  9 active torsions:
REMARK  status: ('A' for Active; 'I' for Inactive)
REMARK    1  A    between atoms: C_2  and  C_3
REMARK    2  A    between atoms: C_3  and  O_5
REMARK    3  A    between atoms: O_5  and  C_6
REMARK    4  A    between atoms: C_6  and  C_7
REMARK    5  A    between atoms: C_6  and  C_14
REMARK    6  A    between atoms: C_6  and  C_20
REMARK    7  A    between atoms: C_7  and  C_8
REMARK    8  A    between atoms: C_20  and  C_22
REMARK    9  A    between atoms: C_22  and  N_23
REMARK                            x       y       z     vdW  Elec       q    Type
REMARK                         _______ _______ _______ _____ _____    ______ ____
ROOT
ATOM      1  C   UNL     1       2.211   5.448  -6.849  0.00  0.00    +0.160 C 
ENDROOT
BRANCH   1   2
ATOM      2  C   UNL     1       3.242   5.755  -5.897  0.00  0.00    +0.014 A 
ATOM      3  C   UNL     1       3.898   6.982  -5.872  0.00  0.00    -0.001 A 
ATOM      4  C   UNL     1       4.485   7.390  -4.678  0.00  0.00    -0.000 A 
ATOM      5  C   UNL     1       4.892   6.439  -3.750  0.00  0.00    -0.000 A 
ATOM      6  C   UNL     1       4.831   5.119  -4.192  0.00  0.00    -0.000 A 
ATOM      7  C   UNL     1       3.724   4.827  -4.980  0.00  0.00    -0.001 A 
ENDBRANCH   1   2
BRANCH   1   8
ATOM      8  C   UNL     1       2.809   5.162  -8.330  0.00  0.00    +0.057 C 
ATOM      9  C   UNL     1       2.585   3.543  -8.283  0.00  0.00    +0.005 C 
BRANCH   8  10
ATOM     10  C   UNL     1       4.362   4.995  -7.856  0.00  0.00    +0.076 C 
BRANCH  10  11
ATOM     11  N   UNL     1       5.164   5.073  -9.043  0.00  0.00    -0.270 NA
ATOM     12  C   UNL     1       4.642   5.972 -10.035  0.00  0.00    +0.090 C 
ATOM     13  C   UNL     1       6.538   5.467  -8.774  0.00  0.00    +0.090 C 
ENDBRANCH  10  11
ENDBRANCH   8  10
ENDBRANCH   1   8
BRANCH   1  14
ATOM     14  O   UNL     1       1.463   6.653  -7.049  0.00  0.00    -0.451 OA
BRANCH  14  15
ATOM     15  C   UNL     1       1.373   7.075  -8.379  0.00  0.00    +0.317 C 
ATOM     16  O   UNL     1       2.124   8.012  -8.780  0.00  0.00    -0.250 OA
BRANCH  15  18
ATOM     17  C   UNL     1       0.756   6.892 -10.707  0.00  0.00    +0.012 C 
ATOM     18  C   UNL     1       0.427   6.508  -9.350  0.00  0.00    +0.110 C 
ENDBRANCH  15  18
ENDBRANCH  14  15
ENDBRANCH   1  14
BRANCH   1  19
ATOM     19  C   UNL     1       1.226   4.424  -6.473  0.00  0.00    +0.071 C 
BRANCH  19  20
ATOM     20  C   UNL     1      -0.062   4.907  -5.978  0.00  0.00    -0.018 A 
ATOM     21  C   UNL     1      -0.068   5.475  -4.710  0.00  0.00    -0.004 A 
ATOM     22  C   UNL     1      -1.069   6.375  -4.382  0.00  0.00    -0.000 A 
ATOM     23  C   UNL     1      -2.206   6.532  -5.164  0.00  0.00    -0.000 A 
ATOM     24  C   UNL     1      -2.278   5.797  -6.335  0.00  0.00    -0.000 A 
ATOM     25  C   UNL     1      -1.224   4.998  -6.700  0.00  0.00    -0.004 A 
ENDBRANCH  19  20
ENDBRANCH   1  19
TORSDOF 9
ENDMDL
MODEL 3
REMARK VINA RESULT:      -6.6      1.785      4.535
REMARK  Name = 
REMARK  9 active torsions:
REMARK  status: ('A' for Active; 'I' for Inactive)
REMARK    1  A    between atoms: C_2  and  C_3
REMARK    2  A    between atoms: C_3  and  O_5
REMARK    3  A    between atoms: O_5  and  C_6
REMARK    4  A    between atoms: C_6  and  C_7
REMARK    5  A    between atoms: C_6  and  C_14
REMARK    6  A    between atoms: C_6  and  C_20
REMARK    7  A    between atoms: C_7  and  C_8
REMARK    8  A    between atoms: C_20  and  C_22
REMARK    9  A    between atoms: C_22  and  N_23
REMARK                            x       y       z     vdW  Elec       q    Type
REMARK                         _______ _______ _______ _____ _____    ______ ____
ROOT
ATOM      1  C   UNL     1       2.353   5.361  -8.300  0.00  0.00    +0.160 C 
ENDROOT
BRANCH   1   2
ATOM      2  C   UNL     1       1.368   5.533  -9.332  0.00  0.00    +0.014 A 
ATOM      3  C   UNL     1       0.723   6.745  -9.559  0.00  0.00    -0.001 A 
ATOM      4  C   UNL     1       0.193   6.982 -10.823  0.00  0.00    -0.000 A 
ATOM      5  C   UNL     1      -0.178   5.911 -11.627  0.00  0.00    -0.000 A 
ATOM      6  C   UNL     1      -0.148   4.666 -11.002  0.00  0.00    -0.000 A 
ATOM      7  C   UNL     1       0.921   4.486 -10.131  0.00  0.00    -0.001 A 
ENDBRANCH   1   2
BRANCH   1   8
ATOM      8  C   UNL     1       1.682   5.212  -6.831  0.00  0.00    +0.057 C 
ATOM      9  C   UNL     1       2.031   3.625  -6.656  0.00  0.00    +0.005 C 
BRANCH   8  10
ATOM     10  C   UNL     1       0.180   4.858  -7.365  0.00  0.00    +0.076 C 
BRANCH  10  11
ATOM     11  N   UNL     1      -0.708   5.066  -6.259  0.00  0.00    -0.270 NA
ATOM     12  C   UNL     1      -0.218   6.011  -5.293  0.00  0.00    +0.090 C 
ATOM     13  C   UNL     1      -2.032   5.507  -6.670  0.00  0.00    +0.090 C 
ENDBRANCH  10  11
ENDBRANCH   8  10
ENDBRANCH   1   8
BRANCH   1  14
ATOM     14  O   UNL     1       3.056   6.604  -8.191  0.00  0.00    -0.451 OA
BRANCH  14  15
ATOM     15  C   UNL     1       3.081   7.154  -6.906  0.00  0.00    +0.317 C 
ATOM     16  O   UNL     1       2.198   8.001  -6.581  0.00  0.00    -0.250 OA
BRANCH  15  18
ATOM     17  C   UNL     1       3.708   7.257  -4.576  0.00  0.00    +0.012 C 
ATOM     18  C   UNL     1       4.102   6.825  -5.901  0.00  0.00    +0.110 C 
ENDBRANCH  15  18
ENDBRANCH  14  15
ENDBRANCH   1  14
BRANCH   1  19
ATOM     19  C   UNL     1       3.385   4.335  -8.514  0.00  0.00    +0.071 C 
BRANCH  19  20
ATOM     20  C   UNL     1       4.606   4.768  -9.191  0.00  0.00    -0.018 A 
ATOM     21  C   UNL     1       4.478   5.143 -10.524  0.00  0.00    -0.004 A 
ATOM     22  C   UNL     1       5.413   6.006 -11.071  0.00  0.00    -0.000 A 
ATOM     23  C   UNL     1       6.609   6.303 -10.429  0.00  0.00    -0.000 A 
ATOM     24  C   UNL     1       6.811   5.750  -9.176  0.00  0.00    -0.000 A 
ATOM     25  C   UNL     1       5.823   4.991  -8.602  0.00  0.00    -0.004 A 
ENDBRANCH  19  20
ENDBRANCH   1  19
TORSDOF 9
ENDMDL
MODEL 4
REMARK VINA RESULT:      -6.6      1.733      5.684
REMARK  Name = 
REMARK  9 active torsions:
REMARK  status: ('A' for Active; 'I' for Inactive)
REMARK    1  A    between atoms: C_2  and  C_3
REMARK    2  A    between atoms: C_3  and  O_5
REMARK    3  A    between atoms: O_5  and  C_6
REMARK    4  A    between atoms: C_6  and  C_7
REMARK    5  A    between atoms: C_6  and  C_14
REMARK    6  A    between atoms: C_6  and  C_20
REMARK    7  A    between atoms: C_7  and  C_8
REMARK    8  A    between atoms: C_20  and  C_22
REMARK    9  A    between atoms: C_22  and  N_23
REMARK                            x       y       z     vdW  Elec       q    Type
REMARK                         _______ _______ _______ _____ _____    ______ ____
ROOT
ATOM      1  C   UNL     1       2.042   6.047  -6.071  0.00  0.00    +0.160 C 
ENDROOT
BRANCH   1   2
ATOM      2  C   UNL     1       2.910   5.360  -6.986  0.00  0.00    +0.014 A 
ATOM      3  C   UNL     1       2.593   4.119  -7.532  0.00  0.00    -0.001 A 
ATOM      4  C   UNL     1       3.189   3.759  -8.736  0.00  0.00    -0.000 A 
ATOM      5  C   UNL     1       4.415   4.309  -9.091  0.00  0.00    -0.000 A 
ATOM      6  C   UNL     1       5.036   5.058  -8.095  0.00  0.00    -0.000 A 
ATOM      7  C   UNL     1       4.169   5.837  -7.336  0.00  0.00    -0.001 A 
ENDBRANCH   1   2
BRANCH   1   8
ATOM      8  C   UNL     1       1.157   5.022  -5.178  0.00  0.00    +0.057 C 
ATOM      9  C   UNL     1      -0.055   4.869  -6.263  0.00  0.00    +0.005 C 
BRANCH   8  10
ATOM     10  C   UNL     1       0.332   6.173  -4.366  0.00  0.00    +0.076 C 
BRANCH  10  11
ATOM     11  N   UNL     1      -0.375   5.504  -3.311  0.00  0.00    -0.270 NA
ATOM     12  C   UNL     1       0.459   5.138  -2.199  0.00  0.00    +0.090 C 
ATOM     13  C   UNL     1      -1.485   6.284  -2.789  0.00  0.00    +0.090 C 
ENDBRANCH  10  11
ENDBRANCH   8  10
ENDBRANCH   1   8
BRANCH   1  14
ATOM     14  O   UNL     1       1.044   6.702  -6.863  0.00  0.00    -0.451 OA
BRANCH  14  15
ATOM     15  C   UNL     1       1.536   7.391  -7.976  0.00  0.00    +0.317 C 
ATOM     16  O   UNL     1       2.099   8.512  -7.808  0.00  0.00    -0.250 OA
BRANCH  15  18
ATOM     17  C   UNL     1       0.216   6.105  -9.538  0.00  0.00    +0.012 C 
ATOM     18  C   UNL     1       1.413   6.898  -9.356  0.00  0.00    +0.110 C 
ENDBRANCH  15  18
ENDBRANCH  14  15
ENDBRANCH   1  14
BRANCH   1  19
ATOM     19  C   UNL     1       2.638   7.096  -5.231  0.00  0.00    +0.071 C 
BRANCH  19  20
ATOM     20  C   UNL     1       3.396   6.646  -4.065  0.00  0.00    -0.018 A 
ATOM     21  C   UNL     1       3.485   7.535  -3.000  0.00  0.00    -0.004 A 
ATOM     22  C   UNL     1       3.723   7.039  -1.729  0.00  0.00    -0.000 A 
ATOM     23  C   UNL     1       4.135   5.730  -1.513  0.00  0.00    -0.000 A 
ATOM     24  C   UNL     1       4.240   4.906  -2.620  0.00  0.00    -0.000 A 
ATOM     25  C   UNL     1       3.889   5.384  -3.857  0.00  0.00    -0.004 A 
ENDBRANCH  19  20
ENDBRANCH   1  19
TORSDOF 9
ENDMDL
MODEL 5
REMARK VINA RESULT:      -6.3      2.560      5.581
REMARK  Name = 
REMARK  9 active torsions:
REMARK  status: ('A' for Active; 'I' for Inactive)
REMARK    1  A    between atoms: C_2  and  C_3
REMARK    2  A    between atoms: C_3  and  O_5
REMARK    3  A    between atoms: O_5  and  C_6
REMARK    4  A    between atoms: C_6  and  C_7
REMARK    5  A    between atoms: C_6  and  C_14
REMARK    6  A    between atoms: C_6  and  C_20
REMARK    7  A    between atoms: C_7  and  C_8
REMARK    8  A    between atoms: C_20  and  C_22
REMARK    9  A    between atoms: C_22  and  N_23
REMARK                            x       y       z     vdW  Elec       q    Type
REMARK                         _______ _______ _______ _____ _____    ______ ____
ROOT
ATOM      1  C   UNL     1       2.945   5.603  -7.729  0.00  0.00    +0.160 C 
ENDROOT
BRANCH   1   2
ATOM      2  C   UNL     1       3.541   5.987  -6.480  0.00  0.00    +0.014 A 
ATOM      3  C   UNL     1       3.360   7.249  -5.920  0.00  0.00    -0.001 A 
ATOM      4  C   UNL     1       3.521   7.387  -4.545  0.00  0.00    -0.000 A 
ATOM      5  C   UNL     1       4.340   6.503  -3.853  0.00  0.00    -0.000 A 
ATOM      6  C   UNL     1       5.085   5.641  -4.654  0.00  0.00    -0.000 A 
ATOM      7  C   UNL     1       4.409   5.163  -5.771  0.00  0.00    -0.001 A 
ENDBRANCH   1   2
BRANCH   1   8
ATOM      8  C   UNL     1       2.623   6.882  -8.674  0.00  0.00    +0.057 C 
ATOM      9  C   UNL     1       1.605   7.606  -7.620  0.00  0.00    +0.005 C 
BRANCH   8  10
ATOM     10  C   UNL     1       1.370   6.196  -9.466  0.00  0.00    +0.076 C 
BRANCH  10  11
ATOM     11  N   UNL     1       1.229   6.907 -10.704  0.00  0.00    -0.270 NA
ATOM     12  C   UNL     1       1.812   6.230 -11.829  0.00  0.00    +0.090 C 
ATOM     13  C   UNL     1      -0.157   7.198 -11.036  0.00  0.00    +0.090 C 
ENDBRANCH  10  11
ENDBRANCH   8  10
ENDBRANCH   1   8
BRANCH   1  14
ATOM     14  O   UNL     1       1.636   5.108  -7.426  0.00  0.00    -0.451 OA
BRANCH  14  15
ATOM     15  C   UNL     1       1.562   4.302  -6.287  0.00  0.00    +0.317 C 
ATOM     16  O   UNL     1       2.022   3.123  -6.334  0.00  0.00    -0.250 OA
BRANCH  15  18
ATOM     17  C   UNL     1      -0.215   5.568  -5.251  0.00  0.00    +0.012 C 
ATOM     18  C   UNL     1       0.947   4.735  -5.023  0.00  0.00    +0.110 C 
ENDBRANCH  15  18
ENDBRANCH  14  15
ENDBRANCH   1  14
BRANCH   1  19
ATOM     19  C   UNL     1       3.609   4.538  -8.495  0.00  0.00    +0.071 C 
BRANCH  19  20
ATOM     20  C   UNL     1       4.815   4.916  -9.230  0.00  0.00    -0.018 A 
ATOM     21  C   UNL     1       4.662   5.170 -10.588  0.00  0.00    -0.004 A 
ATOM     22  C   UNL     1       5.581   5.986 -11.226  0.00  0.00    -0.000 A 
ATOM     23  C   UNL     1       6.785   6.347 -10.634  0.00  0.00    -0.000 A 
ATOM     24  C   UNL     1       7.012   5.910  -9.341  0.00  0.00    -0.000 A 
ATOM     25  C   UNL     1       6.040   5.199  -8.685  0.00  0.00    -0.004 A 
ENDBRANCH  19  20
ENDBRANCH   1  19
TORSDOF 9
ENDMDL
MODEL 6
REMARK VINA RESULT:      -6.3      1.700      4.421
REMARK  Name = 
REMARK  9 active torsions:
REMARK  status: ('A' for Active; 'I' for Inactive)
REMARK    1  A    between atoms: C_2  and  C_3
REMARK    2  A    between atoms: C_3  and  O_5
REMARK    3  A    between atoms: O_5  and  C_6
REMARK    4  A    between atoms: C_6  and  C_7
REMARK    5  A    between atoms: C_6  and  C_14
REMARK    6  A    between atoms: C_6  and  C_20
REMARK    7  A    between atoms: C_7  and  C_8
REMARK    8  A    between atoms: C_20  and  C_22
REMARK    9  A    between atoms: C_22  and  N_23
REMARK                            x       y       z     vdW  Elec       q    Type
REMARK                         _______ _______ _______ _____ _____    ______ ____
ROOT
ATOM      1  C   UNL     1       1.823   5.894  -6.142  0.00  0.00    +0.160 C 
ENDROOT
BRANCH   1   2
ATOM      2  C   UNL     1       1.314   6.206  -7.449  0.00  0.00    +0.014 A 
ATOM      3  C   UNL     1       1.816   7.250  -8.220  0.00  0.00    -0.001 A 
ATOM      4  C   UNL     1       1.653   7.187  -9.600  0.00  0.00    -0.000 A 
ATOM      5  C   UNL     1       0.598   6.458 -10.137  0.00  0.00    -0.000 A 
ATOM      6  C   UNL     1      -0.328   5.990  -9.209  0.00  0.00    -0.000 A 
ATOM      7  C   UNL     1       0.228   5.545  -8.015  0.00  0.00    -0.001 A 
ENDBRANCH   1   2
BRANCH   1   8
ATOM      8  C   UNL     1       2.580   7.158  -5.462  0.00  0.00    +0.057 C 
ATOM      9  C   UNL     1       4.028   6.873  -6.164  0.00  0.00    +0.005 C 
BRANCH   8  10
ATOM     10  C   UNL     1       3.042   6.370  -4.109  0.00  0.00    +0.076 C 
BRANCH  10  11
ATOM     11  N   UNL     1       2.875   7.290  -3.021  0.00  0.00    -0.270 NA
ATOM     12  C   UNL     1       2.432   6.670  -1.802  0.00  0.00    +0.090 C 
ATOM     13  C   UNL     1       4.086   8.036  -2.718  0.00  0.00    +0.090 C 
ENDBRANCH  10  11
ENDBRANCH   8  10
ENDBRANCH   1   8
BRANCH   1  14
ATOM     14  O   UNL     1       2.892   4.960  -6.329  0.00  0.00    -0.451 OA
BRANCH  14  15
ATOM     15  C   UNL     1       2.549   3.809  -7.044  0.00  0.00    +0.317 C 
ATOM     16  O   UNL     1       1.987   2.851  -6.437  0.00  0.00    -0.250 OA
BRANCH  15  18
ATOM     17  C   UNL     1       4.034   4.325  -8.878  0.00  0.00    +0.012 C 
ATOM     18  C   UNL     1       2.830   3.628  -8.476  0.00  0.00    +0.110 C 
ENDBRANCH  15  18
ENDBRANCH  14  15
ENDBRANCH   1  14
BRANCH   1  19
ATOM     19  C   UNL     1       0.899   5.260  -5.190  0.00  0.00    +0.071 C 
BRANCH  19  20
ATOM     20  C   UNL     1      -0.419   5.878  -5.050  0.00  0.00    -0.018 A 
ATOM     21  C   UNL     1      -0.461   7.122  -4.432  0.00  0.00    -0.004 A 
ATOM     22  C   UNL     1      -1.523   7.969  -4.699  0.00  0.00    -0.000 A 
ATOM     23  C   UNL     1      -2.673   7.531  -5.345  0.00  0.00    -0.000 A 
ATOM     24  C   UNL     1      -2.696   6.217  -5.777  0.00  0.00    -0.000 A 
ATOM     25  C   UNL     1      -1.588   5.426  -5.605  0.00  0.00    -0.004 A 
ENDBRANCH  19  20
ENDBRANCH   1  19
TORSDOF 9
ENDMDL
MODEL 7
REMARK VINA RESULT:      -6.1      2.259      6.576
REMARK  Name = 
REMARK  9 active torsions:
REMARK  status: ('A' for Active; 'I' for Inactive)
REMARK    1  A    between atoms: C_2  and  C_3
REMARK    2  A    between atoms: C_3  and  O_5
REMARK    3  A    between atoms: O_5  and  C_6
REMARK    4  A    between atoms: C_6  and  C_7
REMARK    5  A    between atoms: C_6  and  C_14
REMARK    6  A    between atoms: C_6  and  C_20
REMARK    7  A    between atoms: C_7  and  C_8
REMARK    8  A    between atoms: C_20  and  C_22
REMARK    9  A    between atoms: C_22  and  N_23
REMARK                            x       y       z     vdW  Elec       q    Type
REMARK                         _______ _______ _______ _____ _____    ______ ____
ROOT
ATOM      1  C   UNL     1       3.505   5.675  -7.257  0.00  0.00    +0.160 C 
ENDROOT
BRANCH   1   2
ATOM      2  C   UNL     1       4.292   5.969  -8.422  0.00  0.00    +0.014 A 
ATOM      3  C   UNL     1       5.561   5.435  -8.624  0.00  0.00    -0.001 A 
ATOM      4  C   UNL     1       6.037   5.343  -9.928  0.00  0.00    -0.000 A 
ATOM      5  C   UNL     1       5.558   6.214 -10.900  0.00  0.00    -0.000 A 
ATOM      6  C   UNL     1       4.752   7.244 -10.423  0.00  0.00    -0.000 A 
ATOM      7  C   UNL     1       3.886   6.871  -9.400  0.00  0.00    -0.001 A 
ENDBRANCH   1   2
BRANCH   1   8
ATOM      8  C   UNL     1       2.019   5.146  -7.639  0.00  0.00    +0.057 C 
ATOM      9  C   UNL     1       2.155   3.713  -6.864  0.00  0.00    +0.005 C 
BRANCH   8  10
ATOM     10  C   UNL     1       2.443   4.459  -9.057  0.00  0.00    +0.076 C 
BRANCH  10  11
ATOM     11  N   UNL     1       1.292   4.535  -9.910  0.00  0.00    -0.270 NA
ATOM     12  C   UNL     1       0.216   5.315  -9.362  0.00  0.00    +0.090 C 
ATOM     13  C   UNL     1       1.596   5.073 -11.227  0.00  0.00    +0.090 C 
ENDBRANCH  10  11
ENDBRANCH   8  10
ENDBRANCH   1   8
BRANCH   1  14
ATOM     14  O   UNL     1       3.230   6.927  -6.620  0.00  0.00    -0.451 OA
BRANCH  14  15
ATOM     15  C   UNL     1       1.936   7.417  -6.820  0.00  0.00    +0.317 C 
ATOM     16  O   UNL     1       1.748   8.327  -7.679  0.00  0.00    -0.250 OA
BRANCH  15  18
ATOM     17  C   UNL     1       1.022   6.931  -4.637  0.00  0.00    +0.012 C 
ATOM     18  C   UNL     1       0.764   6.953  -6.062  0.00  0.00    +0.110 C 
ENDBRANCH  15  18
ENDBRANCH  14  15
ENDBRANCH   1  14
BRANCH   1  19
ATOM     19  C   UNL     1       4.116   4.825  -6.225  0.00  0.00    +0.071 C 
BRANCH  19  20
ATOM     20  C   UNL     1       4.469   5.480  -4.966  0.00  0.00    -0.018 A 
ATOM     21  C   UNL     1       5.277   6.607  -5.056  0.00  0.00    -0.004 A 
ATOM     22  C   UNL     1       5.243   7.541  -4.033  0.00  0.00    -0.000 A 
ATOM     23  C   UNL     1       4.641   7.275  -2.810  0.00  0.00    -0.000 A 
ATOM     24  C   UNL     1       4.010   6.051  -2.665  0.00  0.00    -0.000 A 
ATOM     25  C   UNL     1       3.956   5.187  -3.729  0.00  0.00    -0.004 A 
ENDBRANCH  19  20
ENDBRANCH   1  19
TORSDOF 9
ENDMDL
MODEL 8
REMARK VINA RESULT:      -6.0      2.252      5.349
REMARK  Name = 
REMARK  9 active torsions:
REMARK  status: ('A' for Active; 'I' for Inactive)
REMARK    1  A    between atoms: C_2  and  C_3
REMARK    2  A    between atoms: C_3  and  O_5
REMARK    3  A    between atoms: O_5  and  C_6
REMARK    4  A    between atoms: C_6  and  C_7
REMARK    5  A    between atoms: C_6  and  C_14
REMARK    6  A    between atoms: C_6  and  C_20
REMARK    7  A    between atoms: C_7  and  C_8
REMARK    8  A    between atoms: C_20  and  C_22
REMARK    9  A    between atoms: C_22  and  N_23
REMARK                            x       y       z     vdW  Elec       q    Type
REMARK                         _______ _______ _______ _____ _____    ______ ____
ROOT
ATOM      1  C   UNL     1       1.796   6.185  -7.020  0.00  0.00    +0.160 C 
ENDROOT
BRANCH   1   2
ATOM      2  C   UNL     1       0.440   6.040  -6.568  0.00  0.00    +0.014 A 
ATOM      3  C   UNL     1      -0.124   6.874  -5.607  0.00  0.00    -0.001 A 
ATOM      4  C   UNL     1      -1.508   7.011  -5.584  0.00  0.00    -0.000 A 
ATOM      5  C   UNL     1      -2.310   5.990  -6.081  0.00  0.00    -0.000 A 
ATOM      6  C   UNL     1      -1.637   4.815  -6.403  0.00  0.00    -0.000 A 
ATOM      7  C   UNL     1      -0.391   5.008  -6.991  0.00  0.00    -0.001 A 
ENDBRANCH   1   2
BRANCH   1   8
ATOM      8  C   UNL     1       1.908   6.163  -8.638  0.00  0.00    +0.057 C 
ATOM      9  C   UNL     1       2.634   7.621  -8.769  0.00  0.00    +0.005 C 
BRANCH   8  10
ATOM     10  C   UNL     1       0.443   6.828  -8.919  0.00  0.00    +0.076 C 
BRANCH  10  11
ATOM     11  N   UNL     1      -0.038   6.257 -10.144  0.00  0.00    -0.270 NA
ATOM     12  C   UNL     1      -0.117   7.197 -11.229  0.00  0.00    +0.090 C 
ATOM     13  C   UNL     1       0.762   5.131 -10.598  0.00  0.00    +0.090 C 
ENDBRANCH  10  11
ENDBRANCH   8  10
ENDBRANCH   1   8
BRANCH   1  14
ATOM     14  O   UNL     1       2.485   4.986  -6.648  0.00  0.00    -0.451 OA
BRANCH  14  15
ATOM     15  C   UNL     1       3.302   4.446  -7.645  0.00  0.00    +0.317 C 
ATOM     16  O   UNL     1       2.827   3.568  -8.423  0.00  0.00    -0.250 OA
BRANCH  15  18
ATOM     17  C   UNL     1       5.040   4.993  -9.231  0.00  0.00    +0.012 C 
ATOM     18  C   UNL     1       4.712   4.820  -7.831  0.00  0.00    +0.110 C 
ENDBRANCH  15  18
ENDBRANCH  14  15
ENDBRANCH   1  14
BRANCH   1  19
ATOM     19  C   UNL     1       2.583   7.291  -6.454  0.00  0.00    +0.071 C 
BRANCH  19  20
ATOM     20  C   UNL     1       3.284   7.019  -5.200  0.00  0.00    -0.018 A 
ATOM     21  C   UNL     1       4.673   7.043  -5.246  0.00  0.00    -0.004 A 
ATOM     22  C   UNL     1       5.378   7.296  -4.081  0.00  0.00    -0.000 A 
ATOM     23  C   UNL     1       4.775   7.265  -2.831  0.00  0.00    -0.000 A 
ATOM     24  C   UNL     1       3.411   7.033  -2.790  0.00  0.00    -0.000 A 
ATOM     25  C   UNL     1       2.710   6.900  -3.961  0.00  0.00    -0.004 A 
ENDBRANCH  19  20
ENDBRANCH   1  19
TORSDOF 9
ENDMDL
MODEL 9
REMARK VINA RESULT:      -6.0      1.761      4.652
REMARK  Name = 
REMARK  9 active torsions:
REMARK  status: ('A' for Active; 'I' for Inactive)
REMARK    1  A    between atoms: C_2  and  C_3
REMARK    2  A    between atoms: C_3  and  O_5
REMARK    3  A    between atoms: O_5  and  C_6
REMARK    4  A    between atoms: C_6  and  C_7
REMARK    5  A    between atoms: C_6  and  C_14
REMARK    6  A    between atoms: C_6  and  C_20
REMARK    7  A    between atoms: C_7  and  C_8
REMARK    8  A    between atoms: C_20  and  C_22
REMARK    9  A    between atoms: C_22  and  N_23
REMARK                            x       y       z     vdW  Elec       q    Type
REMARK                         _______ _______ _______ _____ _____    ______ ____
ROOT
ATOM      1  C   UNL     1       1.625   5.750  -7.424  0.00  0.00    +0.160 C 
ENDROOT
BRANCH   1   2
ATOM      2  C   UNL     1       1.312   5.964  -8.810  0.00  0.00    +0.014 A 
ATOM      3  C   UNL     1       0.113   5.545  -9.380  0.00  0.00    -0.001 A 
ATOM      4  C   UNL     1      -0.332   6.195 -10.527  0.00  0.00    -0.000 A 
ATOM      5  C   UNL     1       0.585   6.813 -11.369  0.00  0.00    -0.000 A 
ATOM      6  C   UNL     1       1.922   6.565 -11.069  0.00  0.00    -0.000 A 
ATOM      7  C   UNL     1       2.210   6.530  -9.709  0.00  0.00    -0.001 A 
ENDBRANCH   1   2
BRANCH   1   8
ATOM      8  C   UNL     1       1.741   7.144  -6.601  0.00  0.00    +0.057 C 
ATOM      9  C   UNL     1       2.255   8.037  -7.869  0.00  0.00    +0.005 C 
BRANCH   8  10
ATOM     10  C   UNL     1       3.276   6.915  -6.095  0.00  0.00    +0.076 C 
BRANCH  10  11
ATOM     11  N   UNL     1       3.275   7.120  -4.675  0.00  0.00    -0.270 NA
ATOM     12  C   UNL     1       3.126   5.908  -3.917  0.00  0.00    +0.090 C 
ATOM     13  C   UNL     1       4.474   7.790  -4.198  0.00  0.00    +0.090 C 
ENDBRANCH  10  11
ENDBRANCH   8  10
ENDBRANCH   1   8
BRANCH   1  14
ATOM     14  O   UNL     1       2.968   5.255  -7.377  0.00  0.00    -0.451 OA
BRANCH  14  15
ATOM     15  C   UNL     1       3.272   4.290  -8.342  0.00  0.00    +0.317 C 
ATOM     16  O   UNL     1       2.533   3.267  -8.446  0.00  0.00    -0.250 OA
BRANCH  15  18
ATOM     17  C   UNL     1       5.472   5.224  -8.694  0.00  0.00    +0.012 C 
ATOM     18  C   UNL     1       4.432   4.377  -9.242  0.00  0.00    +0.110 C 
ENDBRANCH  15  18
ENDBRANCH  14  15
ENDBRANCH   1  14
BRANCH   1  19
ATOM     19  C   UNL     1       0.811   4.771  -6.689  0.00  0.00    +0.071 C 
BRANCH  19  20
ATOM     20  C   UNL     1      -0.274   5.309  -5.869  0.00  0.00    -0.018 A 
ATOM     21  C   UNL     1      -1.487   5.531  -6.510  0.00  0.00    -0.004 A 
ATOM     22  C   UNL     1      -2.650   5.546  -5.759  0.00  0.00    -0.000 A 
ATOM     23  C   UNL     1      -2.633   5.611  -4.372  0.00  0.00    -0.000 A 
ATOM     24  C   UNL     1      -1.396   5.595  -3.751  0.00  0.00    -0.000 A 
ATOM     25  C   UNL     1      -0.259   5.463  -4.508  0.00  0.00    -0.004 A 
ENDBRANCH  19  20
ENDBRANCH   1  19
TORSDOF 9
ENDMDL
