MODEL 1
REMARK VINA RESULT:      -5.2      0.000      0.000
REMARK  Name = 
REMARK  3 active torsions:
REMARK  status: ('A' for Active; 'I' for Inactive)
REMARK    1  A    between atoms: N_2  and  N_4
REMARK    2  A    between atoms: N_5  and  C_6
REMARK    3  A    between atoms: C_10  and  C_11
REMARK                            x       y       z     vdW  Elec       q    Type
REMARK                         _______ _______ _______ _____ _____    ______ ____
ROOT
ATOM      1  C   UNL     1       2.303   4.723  -7.442  0.00  0.00    +0.209 A 
ATOM      2  C   UNL     1       3.117   5.822  -7.696  0.00  0.00    +0.177 A 
ATOM      3  N   UNL     1       3.731   5.638  -8.890  0.00  0.00    -0.216 NA
ATOM      4  C   UNL     1       3.771   4.293  -9.051  0.00  0.00    +0.201 A 
ATOM      5  N   UNL     1       2.704   3.815  -8.367  0.00  0.00    -0.202 NA
ENDROOT
BRANCH   2   6
ATOM      6  C   UNL     1       2.916   7.156  -7.143  0.00  0.00    +0.305 C 
ATOM      7  O   UNL     1       3.409   7.417  -6.028  0.00  0.00    -0.265 OA
ATOM      8  N   UNL     1       2.129   8.121  -7.810  0.00  0.00    -0.082 NA
ENDBRANCH   2   6
BRANCH   1  10
ATOM      9  N   UNL     1       0.806   4.177  -5.811  0.00  0.00    -0.076 NA
ATOM     10  N   UNL     1       2.047   4.338  -6.082  0.00  0.00    -0.111 NA
BRANCH   9  12
ATOM     11  C   UNL     1       0.035   6.455  -5.102  0.00  0.00    +0.136 C 
ATOM     12  N   UNL     1       0.028   5.330  -6.022  0.00  0.00    -0.211 N 
ATOM     13  C   UNL     1      -1.118   5.158  -6.909  0.00  0.00    +0.136 C 
ENDBRANCH   9  12
ENDBRANCH   1  10
TORSDOF 3
ENDMDL
MODEL 2
REMARK VINA RESULT:      -5.0      3.535      5.992
REMARK  Name = 
REMARK  3 active torsions:
REMARK  status: ('A' for Active; 'I' for Inactive)
REMARK    1  A    between atoms: N_2  and  N_4
REMARK    2  A    between atoms: N_5  and  C_6
REMARK    3  A    between atoms: C_10  and  C_11
REMARK                            x       y       z     vdW  Elec       q    Type
REMARK                         _______ _______ _______ _____ _____    ______ ____
ROOT
ATOM      1  C   UNL     1      -1.115   5.696  -3.830  0.00  0.00    +0.209 A 
ATOM      2  C   UNL     1      -1.309   5.559  -2.460  0.00  0.00    +0.177 A 
ATOM      3  N   UNL     1      -2.533   5.017  -2.248  0.00  0.00    -0.216 NA
ATOM      4  C   UNL     1      -3.255   5.365  -3.340  0.00  0.00    +0.201 A 
ATOM      5  N   UNL     1      -2.354   5.494  -4.343  0.00  0.00    -0.202 NA
ENDROOT
BRANCH   2   6
ATOM      6  C   UNL     1      -0.242   5.434  -1.473  0.00  0.00    +0.305 C 
ATOM      7  O   UNL     1       0.455   4.401  -1.478  0.00  0.00    -0.265 OA
ATOM      8  N   UNL     1      -0.031   6.422  -0.485  0.00  0.00    -0.082 NA
ENDBRANCH   2   6
BRANCH   1  10
ATOM      9  N   UNL     1       0.462   6.411  -5.313  0.00  0.00    -0.076 NA
ATOM     10  N   UNL     1      -0.269   6.749  -4.317  0.00  0.00    -0.111 NA
BRANCH   9  12
ATOM     11  C   UNL     1       2.475   5.466  -4.152  0.00  0.00    +0.136 C 
ATOM     12  N   UNL     1       1.329   5.336  -5.037  0.00  0.00    -0.211 N 
ATOM     13  C   UNL     1       1.322   4.259  -6.022  0.00  0.00    +0.136 C 
ENDBRANCH   9  12
ENDBRANCH   1  10
TORSDOF 3
ENDMDL
MODEL 3
REMARK VINA RESULT:      -4.8      1.822      4.045
REMARK  Name = 
REMARK  3 active torsions:
REMARK  status: ('A' for Active; 'I' for Inactive)
REMARK    1  A    between atoms: N_2  and  N_4
REMARK    2  A    between atoms: N_5  and  C_6
REMARK    3  A    between atoms: C_10  and  C_11
REMARK                            x       y       z     vdW  Elec       q    Type
REMARK                         _______ _______ _______ _____ _____    ______ ____
ROOT
ATOM      1  C   UNL     1       2.322   4.626  -7.481  0.00  0.00    +0.209 A 
ATOM      2  C   UNL     1       1.465   5.721  -7.430  0.00  0.00    +0.177 A 
ATOM      3  N   UNL     1       0.954   5.812  -6.179  0.00  0.00    -0.216 NA
ATOM      4  C   UNL     1       1.007   4.548  -5.694  0.00  0.00    +0.201 A 
ATOM      5  N   UNL     1       2.046   3.959  -6.332  0.00  0.00    -0.202 NA
ENDROOT
BRANCH   2   6
ATOM      6  C   UNL     1       1.544   6.884  -8.306  0.00  0.00    +0.305 C 
ATOM      7  O   UNL     1       1.082   6.792  -9.459  0.00  0.00    -0.265 OA
ATOM      8  N   UNL     1       2.184   8.075  -7.895  0.00  0.00    -0.082 NA
ENDBRANCH   2   6
BRANCH   1  10
ATOM      9  N   UNL     1       3.722   3.783  -9.071  0.00  0.00    -0.076 NA
ATOM     10  N   UNL     1       2.498   3.929  -8.724  0.00  0.00    -0.111 NA
BRANCH   9  12
ATOM     11  C   UNL     1       4.324   5.796 -10.441  0.00  0.00    +0.136 C 
ATOM     12  N   UNL     1       4.412   5.000  -9.228  0.00  0.00    -0.211 N 
ATOM     13  C   UNL     1       5.566   5.181  -8.353  0.00  0.00    +0.136 C 
ENDBRANCH   9  12
ENDBRANCH   1  10
TORSDOF 3
ENDMDL
MODEL 4
REMARK VINA RESULT:      -4.6      3.626      5.428
REMARK  Name = 
REMARK  3 active torsions:
REMARK  status: ('A' for Active; 'I' for Inactive)
REMARK    1  A    between atoms: N_2  and  N_4
REMARK    2  A    between atoms: N_5  and  C_6
REMARK    3  A    between atoms: C_10  and  C_11
REMARK                            x       y       z     vdW  Elec       q    Type
REMARK                         _______ _______ _______ _____ _____    ______ ____
ROOT
ATOM      1  C   UNL     1      -0.683   5.897  -4.922  0.00  0.00    +0.209 A 
ATOM      2  C   UNL     1      -2.023   5.802  -4.564  0.00  0.00    +0.177 A 
ATOM      3  N   UNL     1      -2.699   5.207  -5.577  0.00  0.00    -0.216 NA
ATOM      4  C   UNL     1      -1.966   5.478  -6.684  0.00  0.00    +0.201 A 
ATOM      5  N   UNL     1      -0.691   5.614  -6.248  0.00  0.00    -0.202 NA
ENDROOT
BRANCH   2   6
ATOM      6  C   UNL     1      -2.523   5.768  -3.194  0.00  0.00    +0.305 C 
ATOM      7  O   UNL     1      -2.699   4.660  -2.653  0.00  0.00    -0.265 OA
ATOM      8  N   UNL     1      -2.866   6.953  -2.505  0.00  0.00    -0.082 NA
ENDBRANCH   2   6
BRANCH   1  10
ATOM      9  N   UNL     1       1.368   6.838  -4.591  0.00  0.00    -0.076 NA
ATOM     10  N   UNL     1       0.109   6.973  -4.394  0.00  0.00    -0.111 NA
BRANCH   9  12
ATOM     11  C   UNL     1       2.004   5.474  -2.585  0.00  0.00    +0.136 C 
ATOM     12  N   UNL     1       1.905   5.668  -4.022  0.00  0.00    -0.211 N 
ATOM     13  C   UNL     1       2.781   4.894  -4.895  0.00  0.00    +0.136 C 
ENDBRANCH   9  12
ENDBRANCH   1  10
TORSDOF 3
ENDMDL
MODEL 5
REMARK VINA RESULT:      -4.5      2.231      3.332
REMARK  Name = 
REMARK  3 active torsions:
REMARK  status: ('A' for Active; 'I' for Inactive)
REMARK    1  A    between atoms: N_2  and  N_4
REMARK    2  A    between atoms: N_5  and  C_6
REMARK    3  A    between atoms: C_10  and  C_11
REMARK                            x       y       z     vdW  Elec       q    Type
REMARK                         _______ _______ _______ _____ _____    ______ ____
ROOT
ATOM      1  C   UNL     1       3.418   5.629  -7.139  0.00  0.00    +0.209 A 
ATOM      2  C   UNL     1       2.337   4.867  -7.570  0.00  0.00    +0.177 A 
ATOM      3  N   UNL     1       2.789   3.927  -8.435  0.00  0.00    -0.216 NA
ATOM      4  C   UNL     1       3.923   4.455  -8.954  0.00  0.00    +0.201 A 
ATOM      5  N   UNL     1       4.409   5.280  -7.995  0.00  0.00    -0.202 NA
ENDROOT
BRANCH   2   6
ATOM      6  C   UNL     1       1.095   4.684  -6.829  0.00  0.00    +0.305 C 
ATOM      7  O   UNL     1       1.084   3.881  -5.876  0.00  0.00    -0.265 OA
ATOM      8  N   UNL     1      -0.096   5.343  -7.209  0.00  0.00    -0.082 NA
ENDBRANCH   2   6
BRANCH   1  10
ATOM      9  N   UNL     1       3.801   7.340  -5.681  0.00  0.00    -0.076 NA
ATOM     10  N   UNL     1       3.205   6.998  -6.762  0.00  0.00    -0.111 NA
BRANCH   9  12
ATOM     11  C   UNL     1       2.111   6.738  -3.928  0.00  0.00    +0.136 C 
ATOM     12  N   UNL     1       3.411   6.583  -4.560  0.00  0.00    -0.211 N 
ATOM     13  C   UNL     1       4.504   6.009  -3.782  0.00  0.00    +0.136 C 
ENDBRANCH   9  12
ENDBRANCH   1  10
TORSDOF 3
ENDMDL
MODEL 6
REMARK VINA RESULT:      -4.5      4.443      6.001
REMARK  Name = 
REMARK  3 active torsions:
REMARK  status: ('A' for Active; 'I' for Inactive)
REMARK    1  A    between atoms: N_2  and  N_4
REMARK    2  A    between atoms: N_5  and  C_6
REMARK    3  A    between atoms: C_10  and  C_11
REMARK                            x       y       z     vdW  Elec       q    Type
REMARK                         _______ _______ _______ _____ _____    ______ ____
ROOT
ATOM      1  C   UNL     1       4.654   5.588 -11.929  0.00  0.00    +0.209 A 
ATOM      2  C   UNL     1       4.769   5.555 -13.314  0.00  0.00    +0.177 A 
ATOM      3  N   UNL     1       5.988   5.057 -13.635  0.00  0.00    -0.216 NA
ATOM      4  C   UNL     1       6.767   5.341 -12.564  0.00  0.00    +0.201 A 
ATOM      5  N   UNL     1       5.924   5.377 -11.504  0.00  0.00    -0.202 NA
ENDROOT
BRANCH   2   6
ATOM      6  C   UNL     1       3.648   5.478 -14.244  0.00  0.00    +0.305 C 
ATOM      7  O   UNL     1       2.941   4.453 -14.240  0.00  0.00    -0.265 OA
ATOM      8  N   UNL     1       3.395   6.505 -15.182  0.00  0.00    -0.082 NA
ENDBRANCH   2   6
BRANCH   1  10
ATOM      9  N   UNL     1       3.551   6.355 -10.086  0.00  0.00    -0.076 NA
ATOM     10  N   UNL     1       3.819   6.583 -11.318  0.00  0.00    -0.111 NA
BRANCH   9  12
ATOM     11  C   UNL     1       1.480   4.945 -10.178  0.00  0.00    +0.136 C 
ATOM     12  N   UNL     1       2.888   5.132  -9.871  0.00  0.00    -0.211 N 
ATOM     13  C   UNL     1       3.520   4.240  -8.905  0.00  0.00    +0.136 C 
ENDBRANCH   9  12
ENDBRANCH   1  10
TORSDOF 3
ENDMDL
MODEL 7
REMARK VINA RESULT:      -4.5      2.454      3.738
REMARK  Name = 
REMARK  3 active torsions:
REMARK  status: ('A' for Active; 'I' for Inactive)
REMARK    1  A    between atoms: N_2  and  N_4
REMARK    2  A    between atoms: N_5  and  C_6
REMARK    3  A    between atoms: C_10  and  C_11
REMARK                            x       y       z     vdW  Elec       q    Type
REMARK                         _______ _______ _______ _____ _____    ______ ____
ROOT
ATOM      1  C   UNL     1       3.271   6.729  -9.288  0.00  0.00    +0.209 A 
ATOM      2  C   UNL     1       3.032   5.508  -9.910  0.00  0.00    +0.177 A 
ATOM      3  N   UNL     1       4.093   5.209 -10.697  0.00  0.00    -0.216 NA
ATOM      4  C   UNL     1       4.641   6.409 -11.006  0.00  0.00    +0.201 A 
ATOM      5  N   UNL     1       4.337   7.223  -9.966  0.00  0.00    -0.202 NA
ENDROOT
BRANCH   2   6
ATOM      6  C   UNL     1       2.149   4.467  -9.396  0.00  0.00    +0.305 C 
ATOM      7  O   UNL     1       1.012   4.354  -9.893  0.00  0.00    -0.265 OA
ATOM      8  N   UNL     1       2.533   3.640  -8.316  0.00  0.00    -0.082 NA
ENDBRANCH   2   6
BRANCH   1  10
ATOM      9  N   UNL     1       2.213   8.028  -7.741  0.00  0.00    -0.076 NA
ATOM     10  N   UNL     1       2.159   7.566  -8.934  0.00  0.00    -0.111 NA
BRANCH   9  12
ATOM     11  C   UNL     1       1.066   6.310  -6.319  0.00  0.00    +0.136 C 
ATOM     12  N   UNL     1       2.254   7.028  -6.751  0.00  0.00    -0.211 N 
ATOM     13  C   UNL     1       3.405   7.080  -5.856  0.00  0.00    +0.136 C 
ENDBRANCH   9  12
ENDBRANCH   1  10
TORSDOF 3
ENDMDL
MODEL 8
REMARK VINA RESULT:      -4.5      2.140      4.364
REMARK  Name = 
REMARK  3 active torsions:
REMARK  status: ('A' for Active; 'I' for Inactive)
REMARK    1  A    between atoms: N_2  and  N_4
REMARK    2  A    between atoms: N_5  and  C_6
REMARK    3  A    between atoms: C_10  and  C_11
REMARK                            x       y       z     vdW  Elec       q    Type
REMARK                         _______ _______ _______ _____ _____    ______ ____
ROOT
ATOM      1  C   UNL     1       1.200   6.659  -6.130  0.00  0.00    +0.209 A 
ATOM      2  C   UNL     1       1.501   5.590  -5.293  0.00  0.00    +0.177 A 
ATOM      3  N   UNL     1       0.413   5.313  -4.536  0.00  0.00    -0.216 NA
ATOM      4  C   UNL     1      -0.268   6.483  -4.473  0.00  0.00    +0.201 A 
ATOM      5  N   UNL     1       0.041   7.142  -5.616  0.00  0.00    -0.202 NA
ENDROOT
BRANCH   2   6
ATOM      6  C   UNL     1       2.516   4.578  -5.563  0.00  0.00    +0.305 C 
ATOM      7  O   UNL     1       2.256   3.680  -6.387  0.00  0.00    -0.265 OA
ATOM      8  N   UNL     1       3.746   4.561  -4.867  0.00  0.00    -0.082 NA
ENDBRANCH   2   6
BRANCH   1  10
ATOM      9  N   UNL     1       2.185   7.881  -7.784  0.00  0.00    -0.076 NA
ATOM     10  N   UNL     1       2.253   7.539  -6.551  0.00  0.00    -0.111 NA
BRANCH   9  12
ATOM     11  C   UNL     1       3.457   6.046  -8.926  0.00  0.00    +0.136 C 
ATOM     12  N   UNL     1       2.235   6.792  -8.674  0.00  0.00    -0.211 N 
ATOM     13  C   UNL     1       1.170   6.749  -9.670  0.00  0.00    +0.136 C 
ENDBRANCH   9  12
ENDBRANCH   1  10
TORSDOF 3
ENDMDL
MODEL 9
REMARK VINA RESULT:      -4.5      2.761      3.469
REMARK  Name = 
REMARK  3 active torsions:
REMARK  status: ('A' for Active; 'I' for Inactive)
REMARK    1  A    between atoms: N_2  and  N_4
REMARK    2  A    between atoms: N_5  and  C_6
REMARK    3  A    between atoms: C_10  and  C_11
REMARK                            x       y       z     vdW  Elec       q    Type
REMARK                         _______ _______ _______ _____ _____    ______ ____
ROOT
ATOM      1  C   UNL     1       2.294   5.747  -9.344  0.00  0.00    +0.209 A 
ATOM      2  C   UNL     1       3.038   6.181  -8.252  0.00  0.00    +0.177 A 
ATOM      3  N   UNL     1       4.324   5.790  -8.422  0.00  0.00    -0.216 NA
ATOM      4  C   UNL     1       4.247   4.699  -9.223  0.00  0.00    +0.201 A 
ATOM      5  N   UNL     1       3.125   4.872  -9.962  0.00  0.00    -0.202 NA
ENDROOT
BRANCH   2   6
ATOM      6  C   UNL     1       2.696   7.319  -7.406  0.00  0.00    +0.305 C 
ATOM      7  O   UNL     1       2.113   8.291  -7.924  0.00  0.00    -0.265 OA
ATOM      8  N   UNL     1       3.068   7.364  -6.043  0.00  0.00    -0.082 NA
ENDBRANCH   2   6
BRANCH   1  10
ATOM      9  N   UNL     1       0.320   5.030 -10.231  0.00  0.00    -0.076 NA
ATOM     10  N   UNL     1       0.899   5.455  -9.171  0.00  0.00    -0.111 NA
BRANCH   9  12
ATOM     11  C   UNL     1      -0.305   7.219 -11.283  0.00  0.00    +0.136 C 
ATOM     12  N   UNL     1       0.378   5.936 -11.306  0.00  0.00    -0.211 N 
ATOM     13  C   UNL     1       0.729   5.353 -12.597  0.00  0.00    +0.136 C 
ENDBRANCH   9  12
ENDBRANCH   1  10
TORSDOF 3
ENDMDL
