MODEL 1
REMARK VINA RESULT:      -7.4      0.000      0.000
REMARK  Name = 
REMARK  4 active torsions:
REMARK  status: ('A' for Active; 'I' for Inactive)
REMARK    1  A    between atoms: N_2  and  C_4
REMARK    2  A    between atoms: C_4  and  C_5
REMARK    3  A    between atoms: C_5  and  C_6
REMARK    4  A    between atoms: C_6  and  N_7
REMARK                            x       y       z     vdW  Elec       q    Type
REMARK                         _______ _______ _______ _____ _____    ______ ____
ROOT
ATOM      1  N   UNL     1       4.265   6.051 -10.739  0.00  0.00    -0.286 N 
ATOM      2  C   UNL     1       3.167   6.092 -11.620  0.00  0.00    +0.058 A 
ATOM      3  C   UNL     1       3.195   5.771 -12.949  0.00  0.00    +0.043 A 
ATOM      4  C   UNL     1       2.108   5.255 -13.604  0.00  0.00    +0.009 A 
ATOM      5  C   UNL     1       0.878   5.431 -12.982  0.00  0.00    +0.012 A 
ATOM      6  C   UNL     1       0.759   6.228 -11.849  0.00  0.00    +0.059 A 
ATOM      7 CL   UNL     1      -0.753   6.985 -11.424  0.00  0.00    -0.082 Cl
ATOM      8  S   UNL     1       4.791   5.895 -13.762  0.00  0.00    -0.084 S 
ATOM      9  C   UNL     1       5.991   5.661 -12.460  0.00  0.00    +0.043 A 
ATOM     10  C   UNL     1       7.226   5.135 -12.701  0.00  0.00    +0.008 A 
ATOM     11  C   UNL     1       8.240   5.509 -11.827  0.00  0.00    +0.001 A 
ATOM     12  C   UNL     1       7.944   6.123 -10.615  0.00  0.00    +0.001 A 
ATOM     13  C   UNL     1       6.603   6.200 -10.259  0.00  0.00    +0.015 A 
ATOM     14  C   UNL     1       1.913   6.365 -11.085  0.00  0.00    +0.027 A 
ATOM     15  C   UNL     1       5.593   5.966 -11.186  0.00  0.00    +0.058 A 
ENDROOT
BRANCH   1  16
ATOM     16  C   UNL     1       3.989   5.791  -9.325  0.00  0.00    +0.097 C 
BRANCH  16  17
ATOM     17  C   UNL     1       3.974   4.327  -9.004  0.00  0.00    +0.039 C 
BRANCH  17  18
ATOM     18  C   UNL     1       2.565   3.929  -8.625  0.00  0.00    +0.074 C 
BRANCH  18  20
ATOM     19  C   UNL     1       2.159   3.972  -6.248  0.00  0.00    +0.090 C 
ATOM     20  N   UNL     1       2.139   4.708  -7.491  0.00  0.00    -0.270 NA
ATOM     21  C   UNL     1       0.833   5.268  -7.733  0.00  0.00    +0.090 C 
ENDBRANCH  18  20
ENDBRANCH  17  18
ENDBRANCH  16  17
ENDBRANCH   1  16
TORSDOF 4
ENDMDL
MODEL 2
REMARK VINA RESULT:      -7.3      5.313      9.364
REMARK  Name = 
REMARK  4 active torsions:
REMARK  status: ('A' for Active; 'I' for Inactive)
REMARK    1  A    between atoms: N_2  and  C_4
REMARK    2  A    between atoms: C_4  and  C_5
REMARK    3  A    between atoms: C_5  and  C_6
REMARK    4  A    between atoms: C_6  and  N_7
REMARK                            x       y       z     vdW  Elec       q    Type
REMARK                         _______ _______ _______ _____ _____    ______ ____
ROOT
ATOM      1  N   UNL     1       0.572   6.741  -4.335  0.00  0.00    -0.286 N 
ATOM      2  C   UNL     1       1.811   6.520  -3.701  0.00  0.00    +0.058 A 
ATOM      3  C   UNL     1       2.003   5.826  -2.538  0.00  0.00    +0.043 A 
ATOM      4  C   UNL     1       3.159   5.138  -2.274  0.00  0.00    +0.009 A 
ATOM      5  C   UNL     1       4.265   5.486  -3.039  0.00  0.00    +0.012 A 
ATOM      6  C   UNL     1       4.225   6.578  -3.897  0.00  0.00    +0.059 A 
ATOM      7 CL   UNL     1       5.677   7.424  -4.363  0.00  0.00    -0.082 Cl
ATOM      8  S   UNL     1       0.587   5.710  -1.440  0.00  0.00    -0.084 S 
ATOM      9  C   UNL     1      -0.837   5.869  -2.506  0.00  0.00    +0.043 A 
ATOM     10  C   UNL     1      -2.037   5.298  -2.199  0.00  0.00    +0.008 A 
ATOM     11  C   UNL     1      -3.168   5.913  -2.723  0.00  0.00    +0.001 A 
ATOM     12  C   UNL     1      -3.059   6.853  -3.741  0.00  0.00    +0.001 A 
ATOM     13  C   UNL     1      -1.801   7.028  -4.305  0.00  0.00    +0.015 A 
ATOM     14  C   UNL     1       2.963   6.935  -4.360  0.00  0.00    +0.027 A 
ATOM     15  C   UNL     1      -0.657   6.531  -3.689  0.00  0.00    +0.058 A 
ENDROOT
BRANCH   1  16
ATOM     16  C   UNL     1       0.576   6.905  -5.788  0.00  0.00    +0.097 C 
BRANCH  16  17
ATOM     17  C   UNL     1       0.424   5.601  -6.512  0.00  0.00    +0.039 C 
BRANCH  17  18
ATOM     18  C   UNL     1       1.375   5.585  -7.687  0.00  0.00    +0.074 C 
BRANCH  18  20
ATOM     19  C   UNL     1       2.780   3.852  -8.606  0.00  0.00    +0.090 C 
ATOM     20  N   UNL     1       2.421   4.625  -7.439  0.00  0.00    -0.270 NA
ATOM     21  C   UNL     1       2.057   3.761  -6.345  0.00  0.00    +0.090 C 
ENDBRANCH  18  20
ENDBRANCH  17  18
ENDBRANCH  16  17
ENDBRANCH   1  16
TORSDOF 4
ENDMDL
MODEL 3
REMARK VINA RESULT:      -7.3      5.286      8.479
REMARK  Name = 
REMARK  4 active torsions:
REMARK  status: ('A' for Active; 'I' for Inactive)
REMARK    1  A    between atoms: N_2  and  C_4
REMARK    2  A    between atoms: C_4  and  C_5
REMARK    3  A    between atoms: C_5  and  C_6
REMARK    4  A    between atoms: C_6  and  N_7
REMARK                            x       y       z     vdW  Elec       q    Type
REMARK                         _______ _______ _______ _____ _____    ______ ____
ROOT
ATOM      1  N   UNL     1       0.316   5.236  -4.542  0.00  0.00    -0.286 N 
ATOM      2  C   UNL     1       0.358   5.052  -5.937  0.00  0.00    +0.058 A 
ATOM      3  C   UNL     1      -0.623   5.408  -6.822  0.00  0.00    +0.043 A 
ATOM      4  C   UNL     1      -0.352   5.771  -8.115  0.00  0.00    +0.009 A 
ATOM      5  C   UNL     1       0.892   5.394  -8.608  0.00  0.00    +0.012 A 
ATOM      6  C   UNL     1       1.726   4.559  -7.875  0.00  0.00    +0.059 A 
ATOM      7 CL   UNL     1       2.934   3.570  -8.652  0.00  0.00    -0.082 Cl
ATOM      8  S   UNL     1      -2.282   5.550  -6.151  0.00  0.00    -0.084 S 
ATOM      9  C   UNL     1      -2.050   5.929  -4.421  0.00  0.00    +0.043 A 
ATOM     10  C   UNL     1      -2.967   6.642  -3.708  0.00  0.00    +0.008 A 
ATOM     11  C   UNL     1      -3.010   6.403  -2.339  0.00  0.00    +0.001 A 
ATOM     12  C   UNL     1      -1.979   5.719  -1.704  0.00  0.00    +0.001 A 
ATOM     13  C   UNL     1      -0.853   5.429  -2.465  0.00  0.00    +0.015 A 
ATOM     14  C   UNL     1       1.539   4.578  -6.497  0.00  0.00    +0.027 A 
ATOM     15  C   UNL     1      -0.870   5.533  -3.852  0.00  0.00    +0.058 A 
ENDROOT
BRANCH   1  16
ATOM     16  C   UNL     1       1.589   5.412  -3.844  0.00  0.00    +0.097 C 
BRANCH  16  17
ATOM     17  C   UNL     1       2.090   6.823  -3.914  0.00  0.00    +0.039 C 
BRANCH  17  18
ATOM     18  C   UNL     1       3.442   6.825  -4.590  0.00  0.00    +0.074 C 
BRANCH  18  20
ATOM     19  C   UNL     1       5.693   7.422  -3.958  0.00  0.00    +0.090 C 
ATOM     20  N   UNL     1       4.296   7.791  -3.947  0.00  0.00    -0.270 NA
ATOM     21  C   UNL     1       3.843   8.039  -2.601  0.00  0.00    +0.090 C 
ENDBRANCH  18  20
ENDBRANCH  17  18
ENDBRANCH  16  17
ENDBRANCH   1  16
TORSDOF 4
ENDMDL
MODEL 4
REMARK VINA RESULT:      -7.1      3.415      6.032
REMARK  Name = 
REMARK  4 active torsions:
REMARK  status: ('A' for Active; 'I' for Inactive)
REMARK    1  A    between atoms: N_2  and  C_4
REMARK    2  A    between atoms: C_4  and  C_5
REMARK    3  A    between atoms: C_5  and  C_6
REMARK    4  A    between atoms: C_6  and  N_7
REMARK                            x       y       z     vdW  Elec       q    Type
REMARK                         _______ _______ _______ _____ _____    ______ ____
ROOT
ATOM      1  N   UNL     1       3.410   5.345  -7.430  0.00  0.00    -0.286 N 
ATOM      2  C   UNL     1       4.142   5.491  -8.624  0.00  0.00    +0.058 A 
ATOM      3  C   UNL     1       3.623   5.815  -9.847  0.00  0.00    +0.043 A 
ATOM      4  C   UNL     1       4.336   6.507 -10.790  0.00  0.00    +0.009 A 
ATOM      5  C   UNL     1       5.715   6.527 -10.620  0.00  0.00    +0.012 A 
ATOM      6  C   UNL     1       6.325   5.750  -9.643  0.00  0.00    +0.059 A 
ATOM      7 CL   UNL     1       7.988   5.244  -9.788  0.00  0.00    -0.082 Cl
ATOM      8  S   UNL     1       1.884   5.441 -10.094  0.00  0.00    -0.084 S 
ATOM      9  C   UNL     1       1.169   5.465  -8.458  0.00  0.00    +0.043 A 
ATOM     10  C   UNL     1      -0.139   5.786  -8.244  0.00  0.00    +0.008 A 
ATOM     11  C   UNL     1      -0.733   5.243  -7.110  0.00  0.00    +0.001 A 
ATOM     12  C   UNL     1       0.041   4.675  -6.105  0.00  0.00    +0.001 A 
ATOM     13  C   UNL     1       1.420   4.813  -6.217  0.00  0.00    +0.015 A 
ATOM     14  C   UNL     1       5.529   5.420  -8.551  0.00  0.00    +0.027 A 
ATOM     15  C   UNL     1       2.012   5.216  -7.409  0.00  0.00    +0.058 A 
ENDROOT
BRANCH   1  16
ATOM     16  C   UNL     1       4.102   5.632  -6.173  0.00  0.00    +0.097 C 
BRANCH  16  17
ATOM     17  C   UNL     1       3.821   7.015  -5.668  0.00  0.00    +0.039 C 
BRANCH  17  18
ATOM     18  C   UNL     1       4.394   7.148  -4.275  0.00  0.00    +0.074 C 
BRANCH  18  20
ATOM     19  C   UNL     1       3.897   8.271  -2.199  0.00  0.00    +0.090 C 
ATOM     20  N   UNL     1       3.371   7.630  -3.383  0.00  0.00    -0.270 NA
ATOM     21  C   UNL     1       2.473   6.560  -3.029  0.00  0.00    +0.090 C 
ENDBRANCH  18  20
ENDBRANCH  17  18
ENDBRANCH  16  17
ENDBRANCH   1  16
TORSDOF 4
ENDMDL
MODEL 5
REMARK VINA RESULT:      -7.1      4.015      6.093
REMARK  Name = 
REMARK  4 active torsions:
REMARK  status: ('A' for Active; 'I' for Inactive)
REMARK    1  A    between atoms: N_2  and  C_4
REMARK    2  A    between atoms: C_4  and  C_5
REMARK    3  A    between atoms: C_5  and  C_6
REMARK    4  A    between atoms: C_6  and  N_7
REMARK                            x       y       z     vdW  Elec       q    Type
REMARK                         _______ _______ _______ _____ _____    ______ ____
ROOT
ATOM      1  N   UNL     1       2.061   6.332  -6.141  0.00  0.00    -0.286 N 
ATOM      2  C   UNL     1       0.659   6.461  -6.160  0.00  0.00    +0.058 A 
ATOM      3  C   UNL     1      -0.192   5.826  -7.023  0.00  0.00    +0.043 A 
ATOM      4  C   UNL     1      -1.475   5.491  -6.678  0.00  0.00    +0.009 A 
ATOM      5  C   UNL     1      -2.006   6.157  -5.580  0.00  0.00    +0.012 A 
ATOM      6  C   UNL     1      -1.323   7.211  -4.985  0.00  0.00    +0.059 A 
ATOM      7 CL   UNL     1      -2.161   8.446  -4.083  0.00  0.00    -0.082 Cl
ATOM      8  S   UNL     1       0.517   5.286  -8.582  0.00  0.00    -0.084 S 
ATOM      9  C   UNL     1       2.255   5.054  -8.244  0.00  0.00    +0.043 A 
ATOM     10  C   UNL     1       3.013   4.158  -8.937  0.00  0.00    +0.008 A 
ATOM     11  C   UNL     1       4.372   4.436  -9.028  0.00  0.00    +0.001 A 
ATOM     12  C   UNL     1       4.960   5.390  -8.205  0.00  0.00    +0.001 A 
ATOM     13  C   UNL     1       4.166   5.929  -7.200  0.00  0.00    +0.015 A 
ATOM     14  C   UNL     1       0.058   7.202  -5.148  0.00  0.00    +0.027 A 
ATOM     15  C   UNL     1       2.785   5.767  -7.202  0.00  0.00    +0.058 A 
ENDROOT
BRANCH   1  16
ATOM     16  C   UNL     1       2.740   6.522  -4.858  0.00  0.00    +0.097 C 
BRANCH  16  17
ATOM     17  C   UNL     1       3.001   5.227  -4.151  0.00  0.00    +0.039 C 
BRANCH  17  18
ATOM     18  C   UNL     1       4.250   5.375  -3.313  0.00  0.00    +0.074 C 
BRANCH  18  20
ATOM     19  C   UNL     1       4.628   7.118  -1.688  0.00  0.00    +0.090 C 
ATOM     20  N   UNL     1       3.897   5.918  -2.025  0.00  0.00    -0.270 NA
ATOM     21  C   UNL     1       4.058   4.916  -1.001  0.00  0.00    +0.090 C 
ENDBRANCH  18  20
ENDBRANCH  17  18
ENDBRANCH  16  17
ENDBRANCH   1  16
TORSDOF 4
ENDMDL
MODEL 6
REMARK VINA RESULT:      -7.0      2.810      6.205
REMARK  Name = 
REMARK  4 active torsions:
REMARK  status: ('A' for Active; 'I' for Inactive)
REMARK    1  A    between atoms: N_2  and  C_4
REMARK    2  A    between atoms: C_4  and  C_5
REMARK    3  A    between atoms: C_5  and  C_6
REMARK    4  A    between atoms: C_6  and  N_7
REMARK                            x       y       z     vdW  Elec       q    Type
REMARK                         _______ _______ _______ _____ _____    ______ ____
ROOT
ATOM      1  N   UNL     1       2.381   6.261  -9.100  0.00  0.00    -0.286 N 
ATOM      2  C   UNL     1       3.782   6.349  -9.202  0.00  0.00    +0.058 A 
ATOM      3  C   UNL     1       4.685   5.765  -8.357  0.00  0.00    +0.043 A 
ATOM      4  C   UNL     1       5.929   5.364  -8.771  0.00  0.00    +0.009 A 
ATOM      5  C   UNL     1       6.385   5.918  -9.961  0.00  0.00    +0.012 A 
ATOM      6  C   UNL     1       5.679   6.937 -10.590  0.00  0.00    +0.059 A 
ATOM      7 CL   UNL     1       6.469   8.066 -11.659  0.00  0.00    -0.082 Cl
ATOM      8  S   UNL     1       4.093   5.382  -6.706  0.00  0.00    -0.084 S 
ATOM      9  C   UNL     1       2.329   5.173  -6.885  0.00  0.00    +0.043 A 
ATOM     10  C   UNL     1       1.609   4.362  -6.058  0.00  0.00    +0.008 A 
ATOM     11  C   UNL     1       0.268   4.687  -5.886  0.00  0.00    +0.001 A 
ATOM     12  C   UNL     1      -0.362   5.584  -6.740  0.00  0.00    +0.001 A 
ATOM     13  C   UNL     1       0.359   6.012  -7.848  0.00  0.00    +0.015 A 
ATOM     14  C   UNL     1       4.316   6.983 -10.319  0.00  0.00    +0.027 A 
ATOM     15  C   UNL     1       1.732   5.810  -7.939  0.00  0.00    +0.058 A 
ENDROOT
BRANCH   1  16
ATOM     16  C   UNL     1       1.605   6.361 -10.336  0.00  0.00    +0.097 C 
BRANCH  16  17
ATOM     17  C   UNL     1       1.277   5.018 -10.917  0.00  0.00    +0.039 C 
BRANCH  17  18
ATOM     18  C   UNL     1       0.361   5.214 -12.103  0.00  0.00    +0.074 C 
BRANCH  18  20
ATOM     19  C   UNL     1       1.070   6.443 -14.054  0.00  0.00    +0.090 C 
ATOM     20  N   UNL     1       1.141   5.204 -13.314  0.00  0.00    -0.270 NA
ATOM     21  C   UNL     1       0.760   4.089 -14.145  0.00  0.00    +0.090 C 
ENDBRANCH  18  20
ENDBRANCH  17  18
ENDBRANCH  16  17
ENDBRANCH   1  16
TORSDOF 4
ENDMDL
MODEL 7
REMARK VINA RESULT:      -7.0      4.966      9.064
REMARK  Name = 
REMARK  4 active torsions:
REMARK  status: ('A' for Active; 'I' for Inactive)
REMARK    1  A    between atoms: N_2  and  C_4
REMARK    2  A    between atoms: C_4  and  C_5
REMARK    3  A    between atoms: C_5  and  C_6
REMARK    4  A    between atoms: C_6  and  N_7
REMARK                            x       y       z     vdW  Elec       q    Type
REMARK                         _______ _______ _______ _____ _____    ______ ____
ROOT
ATOM      1  N   UNL     1       0.941   6.710  -4.766  0.00  0.00    -0.286 N 
ATOM      2  C   UNL     1       2.081   6.531  -3.959  0.00  0.00    +0.058 A 
ATOM      3  C   UNL     1       2.110   5.916  -2.738  0.00  0.00    +0.043 A 
ATOM      4  C   UNL     1       3.212   5.246  -2.276  0.00  0.00    +0.009 A 
ATOM      5  C   UNL     1       4.415   5.540  -2.908  0.00  0.00    +0.012 A 
ATOM      6  C   UNL     1       4.500   6.572  -3.835  0.00  0.00    +0.059 A 
ATOM      7 CL   UNL     1       6.011   7.382  -4.158  0.00  0.00    -0.082 Cl
ATOM      8  S   UNL     1       0.559   5.877  -1.833  0.00  0.00    -0.084 S 
ATOM      9  C   UNL     1      -0.709   5.966  -3.087  0.00  0.00    +0.043 A 
ATOM     10  C   UNL     1      -1.945   5.419  -2.906  0.00  0.00    +0.008 A 
ATOM     11  C   UNL     1      -2.990   5.999  -3.616  0.00  0.00    +0.001 A 
ATOM     12  C   UNL     1      -2.736   6.868  -4.671  0.00  0.00    +0.001 A 
ATOM     13  C   UNL     1      -1.412   7.003  -5.072  0.00  0.00    +0.015 A 
ATOM     14  C   UNL     1       3.315   6.898  -4.485  0.00  0.00    +0.027 A 
ATOM     15  C   UNL     1      -0.366   6.547  -4.278  0.00  0.00    +0.058 A 
ENDROOT
BRANCH   1  16
ATOM     16  C   UNL     1       1.140   6.776  -6.214  0.00  0.00    +0.097 C 
BRANCH  16  17
ATOM     17  C   UNL     1       1.206   5.418  -6.845  0.00  0.00    +0.039 C 
BRANCH  17  18
ATOM     18  C   UNL     1       0.714   5.522  -8.271  0.00  0.00    +0.074 C 
BRANCH  18  20
ATOM     19  C   UNL     1       2.565   3.984  -8.446  0.00  0.00    +0.090 C 
ATOM     20  N   UNL     1       1.640   4.847  -9.144  0.00  0.00    -0.270 NA
ATOM     21  C   UNL     1       2.349   5.805  -9.956  0.00  0.00    +0.090 C 
ENDBRANCH  18  20
ENDBRANCH  17  18
ENDBRANCH  16  17
ENDBRANCH   1  16
TORSDOF 4
ENDMDL
MODEL 8
REMARK VINA RESULT:      -6.8      4.846      7.483
REMARK  Name = 
REMARK  4 active torsions:
REMARK  status: ('A' for Active; 'I' for Inactive)
REMARK    1  A    between atoms: N_2  and  C_4
REMARK    2  A    between atoms: C_4  and  C_5
REMARK    3  A    between atoms: C_5  and  C_6
REMARK    4  A    between atoms: C_6  and  N_7
REMARK                            x       y       z     vdW  Elec       q    Type
REMARK                         _______ _______ _______ _____ _____    ______ ____
ROOT
ATOM      1  N   UNL     1       1.407   5.609  -5.713  0.00  0.00    -0.286 N 
ATOM      2  C   UNL     1       2.652   5.668  -5.056  0.00  0.00    +0.058 A 
ATOM      3  C   UNL     1       3.819   6.137  -5.594  0.00  0.00    +0.043 A 
ATOM      4  C   UNL     1       4.795   6.725  -4.834  0.00  0.00    +0.009 A 
ATOM      5  C   UNL     1       4.737   6.480  -3.467  0.00  0.00    +0.012 A 
ATOM      6  C   UNL     1       3.836   5.560  -2.946  0.00  0.00    +0.059 A 
ATOM      7 CL   UNL     1       4.130   4.759  -1.424  0.00  0.00    -0.082 Cl
ATOM      8  S   UNL     1       3.935   6.107  -7.385  0.00  0.00    -0.084 S 
ATOM      9  C   UNL     1       2.246   6.191  -7.959  0.00  0.00    +0.043 A 
ATOM     10  C   UNL     1       1.918   6.741  -9.163  0.00  0.00    +0.008 A 
ATOM     11  C   UNL     1       0.757   6.269  -9.764  0.00  0.00    +0.001 A 
ATOM     12  C   UNL     1      -0.165   5.522  -9.040  0.00  0.00    +0.001 A 
ATOM     13  C   UNL     1       0.054   5.405  -7.673  0.00  0.00    +0.015 A 
ATOM     14  C   UNL     1       2.694   5.337  -3.706  0.00  0.00    +0.027 A 
ATOM     15  C   UNL     1       1.277   5.743  -7.104  0.00  0.00    +0.058 A 
ENDROOT
BRANCH   1  16
ATOM     16  C   UNL     1       0.202   5.706  -4.888  0.00  0.00    +0.097 C 
BRANCH  16  17
ATOM     17  C   UNL     1      -0.342   7.101  -4.831  0.00  0.00    +0.039 C 
BRANCH  17  18
ATOM     18  C   UNL     1      -1.825   7.032  -4.545  0.00  0.00    +0.074 C 
BRANCH  18  20
ATOM     19  C   UNL     1      -3.165   5.418  -3.353  0.00  0.00    +0.090 C 
ATOM     20  N   UNL     1      -2.039   6.322  -3.309  0.00  0.00    -0.270 NA
ATOM     21  C   UNL     1      -2.172   7.253  -2.217  0.00  0.00    +0.090 C 
ENDBRANCH  18  20
ENDBRANCH  17  18
ENDBRANCH  16  17
ENDBRANCH   1  16
TORSDOF 4
ENDMDL
MODEL 9
REMARK VINA RESULT:      -6.7      2.903      5.987
REMARK  Name = 
REMARK  4 active torsions:
REMARK  status: ('A' for Active; 'I' for Inactive)
REMARK    1  A    between atoms: N_2  and  C_4
REMARK    2  A    between atoms: C_4  and  C_5
REMARK    3  A    between atoms: C_5  and  C_6
REMARK    4  A    between atoms: C_6  and  N_7
REMARK                            x       y       z     vdW  Elec       q    Type
REMARK                         _______ _______ _______ _____ _____    ______ ____
ROOT
ATOM      1  N   UNL     1       3.214   5.383  -7.089  0.00  0.00    -0.286 N 
ATOM      2  C   UNL     1       1.981   5.185  -7.742  0.00  0.00    +0.058 A 
ATOM      3  C   UNL     1       0.753   5.149  -7.141  0.00  0.00    +0.043 A 
ATOM      4  C   UNL     1      -0.392   5.546  -7.780  0.00  0.00    +0.009 A 
ATOM      5  C   UNL     1      -0.325   5.614  -9.167  0.00  0.00    +0.012 A 
ATOM      6  C   UNL     1       0.790   5.146  -9.851  0.00  0.00    +0.059 A 
ATOM      7 CL   UNL     1       0.685   4.621 -11.511  0.00  0.00    -0.082 Cl
ATOM      8  S   UNL     1       0.737   4.719  -5.398  0.00  0.00    -0.084 S 
ATOM      9  C   UNL     1       2.343   5.206  -4.787  0.00  0.00    +0.043 A 
ATOM     10  C   UNL     1       2.542   5.573  -3.489  0.00  0.00    +0.008 A 
ATOM     11  C   UNL     1       3.820   5.374  -2.978  0.00  0.00    +0.001 A 
ATOM     12  C   UNL     1       4.892   5.114  -3.824  0.00  0.00    +0.001 A 
ATOM     13  C   UNL     1       4.655   5.216  -5.190  0.00  0.00    +0.015 A 
ATOM     14  C   UNL     1       1.980   5.139  -9.132  0.00  0.00    +0.027 A 
ATOM     15  C   UNL     1       3.362   5.266  -5.698  0.00  0.00    +0.058 A 
ENDROOT
BRANCH   1  16
ATOM     16  C   UNL     1       4.289   6.016  -7.853  0.00  0.00    +0.097 C 
BRANCH  16  17
ATOM     17  C   UNL     1       5.214   5.015  -8.478  0.00  0.00    +0.039 C 
BRANCH  17  18
ATOM     18  C   UNL     1       6.032   5.709  -9.542  0.00  0.00    +0.074 C 
BRANCH  18  20
ATOM     19  C   UNL     1       4.756   5.435 -11.571  0.00  0.00    +0.090 C 
ATOM     20  N   UNL     1       5.147   6.322 -10.499  0.00  0.00    -0.270 NA
ATOM     21  C   UNL     1       5.738   7.528 -11.023  0.00  0.00    +0.090 C 
ENDBRANCH  18  20
ENDBRANCH  17  18
ENDBRANCH  16  17
ENDBRANCH   1  16
TORSDOF 4
ENDMDL
