MODEL 1
REMARK VINA RESULT:      -6.3      0.000      0.000
REMARK  Name = 
REMARK  6 active torsions:
REMARK  status: ('A' for Active; 'I' for Inactive)
REMARK    1  A    between atoms: C_2  and  N_5
REMARK    2  A    between atoms: N_5  and  C_6
REMARK    3  A    between atoms: C_6  and  C_7
REMARK    4  A    between atoms: C_7  and  C_9
REMARK    5  A    between atoms: C_9  and  O_10
REMARK    6  A    between atoms: O_10  and  C_11
REMARK                            x       y       z     vdW  Elec       q    Type
REMARK                         _______ _______ _______ _____ _____    ______ ____
ROOT
ATOM      1  C   UNL     1       2.775   6.750  -0.375  0.00  0.00    +0.266 A 
ATOM      2  C   UNL     1       3.445   7.222  -1.497  0.00  0.00    +0.195 A 
ATOM      3  N   UNL     1       3.565   6.522  -2.744  0.00  0.00    -0.284 N 
ATOM      4  C   UNL     1       4.379   5.309  -2.785  0.00  0.00    +0.124 C 
ATOM      5  C   UNL     1       4.270   4.610  -4.102  0.00  0.00    +0.164 C 
ATOM      6  O   UNL     1       4.357   5.438  -5.201  0.00  0.00    -0.350 OA
ATOM      7  C   UNL     1       4.727   6.710  -4.800  0.00  0.00    +0.164 C 
ATOM      8  C   UNL     1       3.550   7.264  -4.004  0.00  0.00    +0.124 C 
ATOM      9  N   UNL     1       3.603   8.568  -1.412  0.00  0.00    -0.172 NA
ATOM     10  S   UNL     1       3.838   8.781   0.251  0.00  0.00    +0.121 S 
ATOM     11  N   UNL     1       3.351   7.237   0.752  0.00  0.00    -0.153 NA
ENDROOT
BRANCH   1  12
ATOM     12  O   UNL     1       1.717   5.833  -0.379  0.00  0.00    -0.455 OA
BRANCH  12  13
ATOM     13  C   UNL     1       0.438   6.240  -0.862  0.00  0.00    +0.241 C 
BRANCH  13  14
ATOM     14  C   UNL     1       0.182   5.007  -1.930  0.00  0.00    +0.213 C 
ATOM     15  O   UNL     1      -1.314   5.000  -1.659  0.00  0.00    -0.218 OA
BRANCH  14  16
ATOM     16  C   UNL     1       0.033   6.051  -3.197  0.00  0.00    +0.125 C 
BRANCH  16  17
ATOM     17  N   UNL     1      -1.071   5.598  -3.985  0.00  0.00    -0.218 NA
BRANCH  17  19
ATOM     18  C   UNL     1      -2.003   7.477  -4.716  0.00  0.00    +0.017 C 
ATOM     19  C   UNL     1      -1.284   6.471  -5.128  0.00  0.00    +0.060 C 
ATOM     20  C   UNL     1      -2.004   5.714  -6.234  0.00  0.00    +0.017 C 
ATOM     21  C   UNL     1       0.068   6.877  -5.669  0.00  0.00    +0.017 C 
ENDBRANCH  17  19
ENDBRANCH  16  17
ENDBRANCH  14  16
ENDBRANCH  13  14
ENDBRANCH  12  13
ENDBRANCH   1  12
TORSDOF 6
ENDMDL
MODEL 2
REMARK VINA RESULT:      -6.2      3.498      5.648
REMARK  Name = 
REMARK  6 active torsions:
REMARK  status: ('A' for Active; 'I' for Inactive)
REMARK    1  A    between atoms: C_2  and  N_5
REMARK    2  A    between atoms: N_5  and  C_6
REMARK    3  A    between atoms: C_6  and  C_7
REMARK    4  A    between atoms: C_7  and  C_9
REMARK    5  A    between atoms: C_9  and  O_10
REMARK    6  A    between atoms: O_10  and  C_11
REMARK                            x       y       z     vdW  Elec       q    Type
REMARK                         _______ _______ _______ _____ _____    ______ ____
ROOT
ATOM      1  C   UNL     1       3.202   6.637  -4.992  0.00  0.00    +0.266 A 
ATOM      2  C   UNL     1       2.405   6.519  -3.860  0.00  0.00    +0.195 A 
ATOM      3  N   UNL     1       1.074   5.983  -3.838  0.00  0.00    -0.284 N 
ATOM      4  C   UNL     1       0.009   6.739  -4.492  0.00  0.00    +0.124 C 
ATOM      5  C   UNL     1      -1.276   5.975  -4.526  0.00  0.00    +0.164 C 
ATOM      6  O   UNL     1      -1.608   5.357  -3.340  0.00  0.00    -0.350 OA
ATOM      7  C   UNL     1      -0.748   5.771  -2.338  0.00  0.00    +0.164 C 
ATOM      8  C   UNL     1       0.620   5.198  -2.690  0.00  0.00    +0.124 C 
ATOM      9  N   UNL     1       3.174   6.575  -2.743  0.00  0.00    -0.172 NA
ATOM     10  S   UNL     1       4.370   7.680  -3.205  0.00  0.00    +0.121 S 
ATOM     11  N   UNL     1       4.037   7.698  -4.867  0.00  0.00    -0.153 NA
ENDROOT
BRANCH   1  12
ATOM     12  O   UNL     1       3.110   5.845  -6.144  0.00  0.00    -0.455 OA
BRANCH  12  13
ATOM     13  C   UNL     1       3.279   6.450  -7.425  0.00  0.00    +0.241 C 
BRANCH  13  14
ATOM     14  C   UNL     1       1.725   6.957  -7.657  0.00  0.00    +0.213 C 
ATOM     15  O   UNL     1       2.160   8.399  -7.861  0.00  0.00    -0.218 OA
BRANCH  14  16
ATOM     16  C   UNL     1       1.788   6.621  -9.269  0.00  0.00    +0.125 C 
BRANCH  16  17
ATOM     17  N   UNL     1       0.509   6.100  -9.638  0.00  0.00    -0.218 NA
BRANCH  17  19
ATOM     18  C   UNL     1      -0.117   4.907 -11.405  0.00  0.00    +0.017 C 
ATOM     19  C   UNL     1       0.357   6.078 -11.084  0.00  0.00    +0.060 C 
ATOM     20  C   UNL     1       1.704   6.314 -11.753  0.00  0.00    +0.017 C 
ATOM     21  C   UNL     1      -0.546   7.224 -11.480  0.00  0.00    +0.017 C 
ENDBRANCH  17  19
ENDBRANCH  16  17
ENDBRANCH  14  16
ENDBRANCH  13  14
ENDBRANCH  12  13
ENDBRANCH   1  12
TORSDOF 6
ENDMDL
MODEL 3
REMARK VINA RESULT:      -6.2      4.626      7.337
REMARK  Name = 
REMARK  6 active torsions:
REMARK  status: ('A' for Active; 'I' for Inactive)
REMARK    1  A    between atoms: C_2  and  N_5
REMARK    2  A    between atoms: N_5  and  C_6
REMARK    3  A    between atoms: C_6  and  C_7
REMARK    4  A    between atoms: C_7  and  C_9
REMARK    5  A    between atoms: C_9  and  O_10
REMARK    6  A    between atoms: O_10  and  C_11
REMARK                            x       y       z     vdW  Elec       q    Type
REMARK                         _______ _______ _______ _____ _____    ______ ____
ROOT
ATOM      1  C   UNL     1       0.822   6.009  -7.133  0.00  0.00    +0.266 A 
ATOM      2  C   UNL     1       0.957   5.892  -5.755  0.00  0.00    +0.195 A 
ATOM      3  N   UNL     1       2.203   5.870  -5.045  0.00  0.00    -0.284 N 
ATOM      4  C   UNL     1       3.081   4.714  -5.216  0.00  0.00    +0.124 C 
ATOM      5  C   UNL     1       4.402   4.915  -4.547  0.00  0.00    +0.164 C 
ATOM      6  O   UNL     1       4.329   5.441  -3.275  0.00  0.00    -0.350 OA
ATOM      7  C   UNL     1       3.011   5.468  -2.855  0.00  0.00    +0.164 C 
ATOM      8  C   UNL     1       2.307   6.499  -3.729  0.00  0.00    +0.124 C 
ATOM      9  N   UNL     1      -0.211   6.221  -5.145  0.00  0.00    -0.172 NA
ATOM     10  S   UNL     1      -1.352   5.635  -6.250  0.00  0.00    +0.121 S 
ATOM     11  N   UNL     1      -0.297   5.367  -7.550  0.00  0.00    -0.153 NA
ENDROOT
BRANCH   1  12
ATOM     12  O   UNL     1       1.742   6.617  -7.997  0.00  0.00    -0.455 OA
BRANCH  12  13
ATOM     13  C   UNL     1       2.264   5.876  -9.099  0.00  0.00    +0.241 C 
BRANCH  13  14
ATOM     14  C   UNL     1       3.842   5.813  -8.620  0.00  0.00    +0.213 C 
ATOM     15  O   UNL     1       3.994   4.377  -9.095  0.00  0.00    -0.218 OA
BRANCH  14  16
ATOM     16  C   UNL     1       4.369   6.433 -10.053  0.00  0.00    +0.125 C 
BRANCH  16  17
ATOM     17  N   UNL     1       5.265   5.474 -10.620  0.00  0.00    -0.218 NA
BRANCH  17  19
ATOM     18  C   UNL     1       7.128   5.419 -11.829  0.00  0.00    +0.017 C 
ATOM     19  C   UNL     1       6.580   6.056 -10.833  0.00  0.00    +0.060 C 
ATOM     20  C   UNL     1       7.424   5.910  -9.574  0.00  0.00    +0.017 C 
ATOM     21  C   UNL     1       6.405   7.536 -11.085  0.00  0.00    +0.017 C 
ENDBRANCH  17  19
ENDBRANCH  16  17
ENDBRANCH  14  16
ENDBRANCH  13  14
ENDBRANCH  12  13
ENDBRANCH   1  12
TORSDOF 6
ENDMDL
MODEL 4
REMARK VINA RESULT:      -6.2      4.960      6.680
REMARK  Name = 
REMARK  6 active torsions:
REMARK  status: ('A' for Active; 'I' for Inactive)
REMARK    1  A    between atoms: C_2  and  N_5
REMARK    2  A    between atoms: N_5  and  C_6
REMARK    3  A    between atoms: C_6  and  C_7
REMARK    4  A    between atoms: C_7  and  C_9
REMARK    5  A    between atoms: C_9  and  O_10
REMARK    6  A    between atoms: O_10  and  C_11
REMARK                            x       y       z     vdW  Elec       q    Type
REMARK                         _______ _______ _______ _____ _____    ______ ____
ROOT
ATOM      1  C   UNL     1       3.634   6.230  -8.230  0.00  0.00    +0.266 A 
ATOM      2  C   UNL     1       3.545   5.899  -9.576  0.00  0.00    +0.195 A 
ATOM      3  N   UNL     1       2.341   5.923 -10.356  0.00  0.00    -0.284 N 
ATOM      4  C   UNL     1       1.300   4.942 -10.061  0.00  0.00    +0.124 C 
ATOM      5  C   UNL     1       0.052   5.201 -10.841  0.00  0.00    +0.164 C 
ATOM      6  O   UNL     1       0.257   5.488 -12.174  0.00  0.00    -0.350 OA
ATOM      7  C   UNL     1       1.583   5.265 -12.502  0.00  0.00    +0.164 C 
ATOM      8  C   UNL     1       2.388   6.327 -11.762  0.00  0.00    +0.124 C 
ATOM      9  N   UNL     1       4.774   5.959 -10.151  0.00  0.00    -0.172 NA
ATOM     10  S   UNL     1       5.769   5.423  -8.891  0.00  0.00    +0.121 S 
ATOM     11  N   UNL     1       4.629   5.524  -7.639  0.00  0.00    -0.153 NA
ENDROOT
BRANCH   1  12
ATOM     12  O   UNL     1       2.772   7.093  -7.541  0.00  0.00    -0.455 OA
BRANCH  12  13
ATOM     13  C   UNL     1       2.425   6.805  -6.188  0.00  0.00    +0.241 C 
BRANCH  13  14
ATOM     14  C   UNL     1       1.140   5.809  -6.478  0.00  0.00    +0.213 C 
ATOM     15  O   UNL     1       1.670   4.745  -5.531  0.00  0.00    -0.218 OA
BRANCH  14  16
ATOM     16  C   UNL     1       0.236   6.527  -5.301  0.00  0.00    +0.125 C 
BRANCH  16  17
ATOM     17  N   UNL     1      -0.703   5.552  -4.842  0.00  0.00    -0.218 NA
BRANCH  17  19
ATOM     18  C   UNL     1      -2.478   5.728  -6.167  0.00  0.00    +0.017 C 
ATOM     19  C   UNL     1      -2.065   6.045  -4.972  0.00  0.00    +0.060 C 
ATOM     20  C   UNL     1      -2.094   7.554  -4.778  0.00  0.00    +0.017 C 
ATOM     21  C   UNL     1      -2.894   5.436  -3.865  0.00  0.00    +0.017 C 
ENDBRANCH  17  19
ENDBRANCH  16  17
ENDBRANCH  14  16
ENDBRANCH  13  14
ENDBRANCH  12  13
ENDBRANCH   1  12
TORSDOF 6
ENDMDL
MODEL 5
REMARK VINA RESULT:      -6.2      6.344      8.579
REMARK  Name = 
REMARK  6 active torsions:
REMARK  status: ('A' for Active; 'I' for Inactive)
REMARK    1  A    between atoms: C_2  and  N_5
REMARK    2  A    between atoms: N_5  and  C_6
REMARK    3  A    between atoms: C_6  and  C_7
REMARK    4  A    between atoms: C_7  and  C_9
REMARK    5  A    between atoms: C_9  and  O_10
REMARK    6  A    between atoms: O_10  and  C_11
REMARK                            x       y       z     vdW  Elec       q    Type
REMARK                         _______ _______ _______ _____ _____    ______ ____
ROOT
ATOM      1  C   UNL     1       2.068   6.072 -10.850  0.00  0.00    +0.266 A 
ATOM      2  C   UNL     1       3.037   6.114 -11.845  0.00  0.00    +0.195 A 
ATOM      3  N   UNL     1       4.453   6.069 -11.623  0.00  0.00    -0.284 N 
ATOM      4  C   UNL     1       5.092   7.210 -10.971  0.00  0.00    +0.124 C 
ATOM      5  C   UNL     1       6.530   6.942 -10.664  0.00  0.00    +0.164 C 
ATOM      6  O   UNL     1       7.237   6.354 -11.691  0.00  0.00    -0.350 OA
ATOM      7  C   UNL     1       6.468   6.338 -12.840  0.00  0.00    +0.164 C 
ATOM      8  C   UNL     1       5.321   5.370 -12.571  0.00  0.00    +0.124 C 
ATOM      9  N   UNL     1       2.487   5.784 -13.042  0.00  0.00    -0.172 NA
ATOM     10  S   UNL     1       0.938   6.453 -12.905  0.00  0.00    +0.121 S 
ATOM     11  N   UNL     1       0.967   6.762 -11.238  0.00  0.00    -0.153 NA
ENDROOT
BRANCH   1  12
ATOM     12  O   UNL     1       2.218   5.487  -9.586  0.00  0.00    -0.455 OA
BRANCH  12  13
ATOM     13  C   UNL     1       1.640   6.121  -8.447  0.00  0.00    +0.241 C 
BRANCH  13  14
ATOM     14  C   UNL     1       2.931   7.050  -8.007  0.00  0.00    +0.213 C 
ATOM     15  O   UNL     1       2.072   8.298  -7.886  0.00  0.00    -0.218 OA
BRANCH  14  16
ATOM     16  C   UNL     1       2.748   6.666  -6.415  0.00  0.00    +0.125 C 
BRANCH  16  17
ATOM     17  N   UNL     1       3.689   7.456  -5.684  0.00  0.00    -0.218 NA
BRANCH  17  19
ATOM     18  C   UNL     1       3.053   6.858  -3.640  0.00  0.00    +0.017 C 
ATOM     19  C   UNL     1       4.073   6.790  -4.449  0.00  0.00    +0.060 C 
ATOM     20  C   UNL     1       5.286   7.481  -3.841  0.00  0.00    +0.017 C 
ATOM     21  C   UNL     1       4.486   5.376  -4.784  0.00  0.00    +0.017 C 
ENDBRANCH  17  19
ENDBRANCH  16  17
ENDBRANCH  14  16
ENDBRANCH  13  14
ENDBRANCH  12  13
ENDBRANCH   1  12
TORSDOF 6
ENDMDL
MODEL 6
REMARK VINA RESULT:      -6.1      4.028      6.968
REMARK  Name = 
REMARK  6 active torsions:
REMARK  status: ('A' for Active; 'I' for Inactive)
REMARK    1  A    between atoms: C_2  and  N_5
REMARK    2  A    between atoms: N_5  and  C_6
REMARK    3  A    between atoms: C_6  and  C_7
REMARK    4  A    between atoms: C_7  and  C_9
REMARK    5  A    between atoms: C_9  and  O_10
REMARK    6  A    between atoms: O_10  and  C_11
REMARK                            x       y       z     vdW  Elec       q    Type
REMARK                         _______ _______ _______ _____ _____    ______ ____
ROOT
ATOM      1  C   UNL     1       3.370   6.576  -5.208  0.00  0.00    +0.266 A 
ATOM      2  C   UNL     1       2.351   6.562  -4.263  0.00  0.00    +0.195 A 
ATOM      3  N   UNL     1       1.019   6.082  -4.489  0.00  0.00    -0.284 N 
ATOM      4  C   UNL     1       0.151   6.836  -5.392  0.00  0.00    +0.124 C 
ATOM      5  C   UNL     1      -1.137   6.124  -5.651  0.00  0.00    +0.164 C 
ATOM      6  O   UNL     1      -1.738   5.597  -4.528  0.00  0.00    -0.350 OA
ATOM      7  C   UNL     1      -1.082   6.040  -3.394  0.00  0.00    +0.164 C 
ATOM      8  C   UNL     1       0.298   5.391  -3.420  0.00  0.00    +0.124 C 
ATOM      9  N   UNL     1       2.876   6.659  -3.014  0.00  0.00    -0.172 NA
ATOM     10  S   UNL     1       4.198   7.684  -3.277  0.00  0.00    +0.121 S 
ATOM     11  N   UNL     1       4.215   7.609  -4.970  0.00  0.00    -0.153 NA
ENDROOT
BRANCH   1  12
ATOM     12  O   UNL     1       3.476   5.716  -6.309  0.00  0.00    -0.455 OA
BRANCH  12  13
ATOM     13  C   UNL     1       3.423   6.256  -7.628  0.00  0.00    +0.241 C 
BRANCH  13  14
ATOM     14  C   UNL     1       3.775   4.878  -8.466  0.00  0.00    +0.213 C 
ATOM     15  O   UNL     1       3.197   5.439  -9.755  0.00  0.00    -0.218 OA
BRANCH  14  16
ATOM     16  C   UNL     1       5.296   5.406  -8.821  0.00  0.00    +0.125 C 
BRANCH  16  17
ATOM     17  N   UNL     1       5.359   5.581 -10.238  0.00  0.00    -0.218 NA
BRANCH  17  19
ATOM     18  C   UNL     1       7.451   5.988  -9.612  0.00  0.00    +0.017 C 
ATOM     19  C   UNL     1       6.656   6.103 -10.638  0.00  0.00    +0.060 C 
ATOM     20  C   UNL     1       6.524   7.562 -11.054  0.00  0.00    +0.017 C 
ATOM     21  C   UNL     1       7.120   5.332 -11.852  0.00  0.00    +0.017 C 
ENDBRANCH  17  19
ENDBRANCH  16  17
ENDBRANCH  14  16
ENDBRANCH  13  14
ENDBRANCH  12  13
ENDBRANCH   1  12
TORSDOF 6
ENDMDL
MODEL 7
REMARK VINA RESULT:      -6.0      2.539      3.430
REMARK  Name = 
REMARK  6 active torsions:
REMARK  status: ('A' for Active; 'I' for Inactive)
REMARK    1  A    between atoms: C_2  and  N_5
REMARK    2  A    between atoms: N_5  and  C_6
REMARK    3  A    between atoms: C_6  and  C_7
REMARK    4  A    between atoms: C_7  and  C_9
REMARK    5  A    between atoms: C_9  and  O_10
REMARK    6  A    between atoms: O_10  and  C_11
REMARK                            x       y       z     vdW  Elec       q    Type
REMARK                         _______ _______ _______ _____ _____    ______ ____
ROOT
ATOM      1  C   UNL     1       3.450   5.871  -3.991  0.00  0.00    +0.266 A 
ATOM      2  C   UNL     1       3.471   6.536  -5.211  0.00  0.00    +0.195 A 
ATOM      3  N   UNL     1       2.543   6.325  -6.284  0.00  0.00    -0.284 N 
ATOM      4  C   UNL     1       2.580   5.049  -6.996  0.00  0.00    +0.124 C 
ATOM      5  C   UNL     1       1.452   4.921  -7.968  0.00  0.00    +0.164 C 
ATOM      6  O   UNL     1       1.227   6.041  -8.739  0.00  0.00    -0.350 OA
ATOM      7  C   UNL     1       2.251   6.952  -8.551  0.00  0.00    +0.164 C 
ATOM      8  C   UNL     1       2.117   7.451  -7.116  0.00  0.00    +0.124 C 
ATOM      9  N   UNL     1       4.195   7.680  -5.103  0.00  0.00    -0.172 NA
ATOM     10  S   UNL     1       5.408   7.216  -4.017  0.00  0.00    +0.121 S 
ATOM     11  N   UNL     1       4.708   5.763  -3.496  0.00  0.00    -0.153 NA
ENDROOT
BRANCH   1  12
ATOM     12  O   UNL     1       2.320   5.303  -3.388  0.00  0.00    -0.455 OA
BRANCH  12  13
ATOM     13  C   UNL     1       1.325   6.154  -2.824  0.00  0.00    +0.241 C 
BRANCH  13  14
ATOM     14  C   UNL     1       0.389   4.993  -2.117  0.00  0.00    +0.213 C 
ATOM     15  O   UNL     1       0.417   5.699  -0.772  0.00  0.00    -0.218 OA
BRANCH  14  16
ATOM     16  C   UNL     1      -1.004   5.744  -2.577  0.00  0.00    +0.125 C 
BRANCH  16  17
ATOM     17  N   UNL     1      -0.773   6.297  -3.875  0.00  0.00    -0.218 NA
BRANCH  17  19
ATOM     18  C   UNL     1      -1.574   5.606  -5.829  0.00  0.00    +0.017 C 
ATOM     19  C   UNL     1      -1.954   6.162  -4.713  0.00  0.00    +0.060 C 
ATOM     20  C   UNL     1      -2.563   7.532  -4.978  0.00  0.00    +0.017 C 
ATOM     21  C   UNL     1      -2.981   5.355  -3.954  0.00  0.00    +0.017 C 
ENDBRANCH  17  19
ENDBRANCH  16  17
ENDBRANCH  14  16
ENDBRANCH  13  14
ENDBRANCH  12  13
ENDBRANCH   1  12
TORSDOF 6
ENDMDL
MODEL 8
REMARK VINA RESULT:      -5.9      4.329      7.111
REMARK  Name = 
REMARK  6 active torsions:
REMARK  status: ('A' for Active; 'I' for Inactive)
REMARK    1  A    between atoms: C_2  and  N_5
REMARK    2  A    between atoms: N_5  and  C_6
REMARK    3  A    between atoms: C_6  and  C_7
REMARK    4  A    between atoms: C_7  and  C_9
REMARK    5  A    between atoms: C_9  and  O_10
REMARK    6  A    between atoms: O_10  and  C_11
REMARK                            x       y       z     vdW  Elec       q    Type
REMARK                         _______ _______ _______ _____ _____    ______ ____
ROOT
ATOM      1  C   UNL     1       1.903   6.631  -6.252  0.00  0.00    +0.266 A 
ATOM      2  C   UNL     1       1.397   6.602  -4.958  0.00  0.00    +0.195 A 
ATOM      3  N   UNL     1       0.009   6.482  -4.614  0.00  0.00    -0.284 N 
ATOM      4  C   UNL     1      -0.883   7.597  -4.923  0.00  0.00    +0.124 C 
ATOM      5  C   UNL     1      -2.314   7.255  -4.658  0.00  0.00    +0.164 C 
ATOM      6  O   UNL     1      -2.538   6.611  -3.461  0.00  0.00    -0.350 OA
ATOM      7  C   UNL     1      -1.382   6.618  -2.701  0.00  0.00    +0.164 C 
ATOM      8  C   UNL     1      -0.389   5.720  -3.431  0.00  0.00    +0.124 C 
ATOM      9  N   UNL     1       2.383   6.282  -4.081  0.00  0.00    -0.172 NA
ATOM     10  S   UNL     1       3.725   7.039  -4.783  0.00  0.00    +0.121 S 
ATOM     11  N   UNL     1       3.036   7.374  -6.295  0.00  0.00    -0.153 NA
ENDROOT
BRANCH   1  12
ATOM     12  O   UNL     1       1.298   6.061  -7.379  0.00  0.00    -0.455 OA
BRANCH  12  13
ATOM     13  C   UNL     1       1.811   6.360  -8.676  0.00  0.00    +0.241 C 
BRANCH  13  14
ATOM     14  C   UNL     1       2.420   4.870  -9.042  0.00  0.00    +0.213 C 
ATOM     15  O   UNL     1       1.261   4.556  -9.975  0.00  0.00    -0.218 OA
BRANCH  14  16
ATOM     16  C   UNL     1       3.347   5.478 -10.262  0.00  0.00    +0.125 C 
BRANCH  16  17
ATOM     17  N   UNL     1       4.703   5.137  -9.966  0.00  0.00    -0.218 NA
BRANCH  17  19
ATOM     18  C   UNL     1       5.054   7.186 -10.750  0.00  0.00    +0.017 C 
ATOM     19  C   UNL     1       5.624   6.016 -10.669  0.00  0.00    +0.060 C 
ATOM     20  C   UNL     1       5.913   5.464 -12.058  0.00  0.00    +0.017 C 
ATOM     21  C   UNL     1       6.931   6.033  -9.912  0.00  0.00    +0.017 C 
ENDBRANCH  17  19
ENDBRANCH  16  17
ENDBRANCH  14  16
ENDBRANCH  13  14
ENDBRANCH  12  13
ENDBRANCH   1  12
TORSDOF 6
ENDMDL
MODEL 9
REMARK VINA RESULT:      -5.9      3.063      5.101
REMARK  Name = 
REMARK  6 active torsions:
REMARK  status: ('A' for Active; 'I' for Inactive)
REMARK    1  A    between atoms: C_2  and  N_5
REMARK    2  A    between atoms: N_5  and  C_6
REMARK    3  A    between atoms: C_6  and  C_7
REMARK    4  A    between atoms: C_7  and  C_9
REMARK    5  A    between atoms: C_9  and  O_10
REMARK    6  A    between atoms: O_10  and  C_11
REMARK                            x       y       z     vdW  Elec       q    Type
REMARK                         _______ _______ _______ _____ _____    ______ ____
ROOT
ATOM      1  C   UNL     1       2.695   6.100  -3.632  0.00  0.00    +0.266 A 
ATOM      2  C   UNL     1       1.806   6.318  -2.586  0.00  0.00    +0.195 A 
ATOM      3  N   UNL     1       0.507   5.722  -2.466  0.00  0.00    -0.284 N 
ATOM      4  C   UNL     1      -0.532   6.119  -3.413  0.00  0.00    +0.124 C 
ATOM      5  C   UNL     1      -1.769   5.293  -3.262  0.00  0.00    +0.164 C 
ATOM      6  O   UNL     1      -2.175   5.100  -1.959  0.00  0.00    -0.350 OA
ATOM      7  C   UNL     1      -1.429   5.900  -1.113  0.00  0.00    +0.164 C 
ATOM      8  C   UNL     1      -0.008   5.349  -1.149  0.00  0.00    +0.124 C 
ATOM      9  N   UNL     1       2.469   6.818  -1.512  0.00  0.00    -0.172 NA
ATOM     10  S   UNL     1       3.645   7.784  -2.252  0.00  0.00    +0.121 S 
ATOM     11  N   UNL     1       3.461   7.200  -3.833  0.00  0.00    -0.153 NA
ENDROOT
BRANCH   1  12
ATOM     12  O   UNL     1       2.746   4.954  -4.437  0.00  0.00    -0.455 OA
BRANCH  12  13
ATOM     13  C   UNL     1       3.000   5.089  -5.834  0.00  0.00    +0.241 C 
BRANCH  13  14
ATOM     14  C   UNL     1       2.085   3.823  -6.367  0.00  0.00    +0.213 C 
ATOM     15  O   UNL     1       0.825   4.672  -6.416  0.00  0.00    -0.218 OA
BRANCH  14  16
ATOM     16  C   UNL     1       2.457   4.133  -7.942  0.00  0.00    +0.125 C 
BRANCH  16  17
ATOM     17  N   UNL     1       3.079   5.420  -7.979  0.00  0.00    -0.218 NA
BRANCH  17  19
ATOM     18  C   UNL     1       1.880   7.118  -8.763  0.00  0.00    +0.017 C 
ATOM     19  C   UNL     1       2.668   6.160  -9.162  0.00  0.00    +0.060 C 
ATOM     20  C   UNL     1       1.941   5.235 -10.128  0.00  0.00    +0.017 C 
ATOM     21  C   UNL     1       3.911   6.654  -9.865  0.00  0.00    +0.017 C 
ENDBRANCH  17  19
ENDBRANCH  16  17
ENDBRANCH  14  16
ENDBRANCH  13  14
ENDBRANCH  12  13
ENDBRANCH   1  12
TORSDOF 6
ENDMDL
