MODEL 1
REMARK VINA RESULT:      -7.4      0.000      0.000
REMARK  Name = 
REMARK  3 active torsions:
REMARK  status: ('A' for Active; 'I' for Inactive)
REMARK    1  A    between atoms: C_5  and  N_6
REMARK    2  A    between atoms: N_6  and  S_7
REMARK    3  A    between atoms: S_7  and  C_10
REMARK                            x       y       z     vdW  Elec       q    Type
REMARK                         _______ _______ _______ _____ _____    ______ ____
ROOT
ATOM      1  S   UNL     1       1.881   6.856  -8.474  0.00  0.00    +0.096 S 
ATOM      2  O   UNL     1       1.119   7.141  -9.750  0.00  0.00    -0.148 OA
ATOM      3  O   UNL     1       1.962   8.152  -7.731  0.00  0.00    -0.148 OA
ENDROOT
BRANCH   1   4
ATOM      4  C   UNL     1       3.487   6.271  -8.896  0.00  0.00    +0.127 A 
ATOM      5  C   UNL     1       4.061   6.822 -10.019  0.00  0.00    +0.022 A 
ATOM      6  C   UNL     1       5.363   6.524 -10.310  0.00  0.00    +0.019 A 
ATOM      7  C   UNL     1       6.124   5.661  -9.532  0.00  0.00    +0.089 A 
ATOM      8  N   UNL     1       7.548   5.709  -9.677  0.00  0.00    -0.128 NA
ATOM      9  C   UNL     1       5.523   5.132  -8.400  0.00  0.00    +0.019 A 
ATOM     10  C   UNL     1       4.306   5.649  -7.973  0.00  0.00    +0.022 A 
ENDBRANCH   1   4
BRANCH   1  11
ATOM     11  N   UNL     1       1.104   5.616  -7.596  0.00  0.00    -0.057 NA
BRANCH  11  16
ATOM     12  C   UNL     1      -1.817   7.765  -4.335  0.00  0.00    +0.055 C 
ATOM     13  C   UNL     1      -0.701   6.909  -4.846  0.00  0.00    +0.098 A 
ATOM     14  C   UNL     1      -0.681   6.106  -5.975  0.00  0.00    +0.050 A 
ATOM     15  C   UNL     1      -1.901   5.604  -6.652  0.00  0.00    +0.037 C 
ATOM     16  C   UNL     1       0.637   5.761  -6.248  0.00  0.00    +0.263 A 
ATOM     17  O   UNL     1       1.329   6.220  -5.235  0.00  0.00    -0.336 OA
ATOM     18  N   UNL     1       0.595   6.942  -4.447  0.00  0.00    -0.080 NA
ENDBRANCH  11  16
ENDBRANCH   1  11
TORSDOF 3
ENDMDL
MODEL 2
REMARK VINA RESULT:      -7.1      1.788      6.663
REMARK  Name = 
REMARK  3 active torsions:
REMARK  status: ('A' for Active; 'I' for Inactive)
REMARK    1  A    between atoms: C_5  and  N_6
REMARK    2  A    between atoms: N_6  and  S_7
REMARK    3  A    between atoms: S_7  and  C_10
REMARK                            x       y       z     vdW  Elec       q    Type
REMARK                         _______ _______ _______ _____ _____    ______ ____
ROOT
ATOM      1  S   UNL     1       2.196   6.915  -7.198  0.00  0.00    +0.096 S 
ATOM      2  O   UNL     1       3.210   7.064  -6.085  0.00  0.00    -0.148 OA
ATOM      3  O   UNL     1       2.244   8.185  -7.987  0.00  0.00    -0.148 OA
ENDROOT
BRANCH   1   4
ATOM      4  C   UNL     1       0.605   6.677  -6.485  0.00  0.00    +0.127 A 
ATOM      5  C   UNL     1      -0.175   5.691  -7.048  0.00  0.00    +0.022 A 
ATOM      6  C   UNL     1      -1.354   5.355  -6.443  0.00  0.00    +0.019 A 
ATOM      7  C   UNL     1      -1.814   5.991  -5.297  0.00  0.00    +0.089 A 
ATOM      8  N   UNL     1      -2.830   5.333  -4.530  0.00  0.00    -0.128 NA
ATOM      9  C   UNL     1      -1.001   6.970  -4.746  0.00  0.00    +0.019 A 
ATOM     10  C   UNL     1       0.301   7.110  -5.208  0.00  0.00    +0.022 A 
ENDBRANCH   1   4
BRANCH   1  11
ATOM     11  N   UNL     1       2.548   5.525  -8.126  0.00  0.00    -0.057 NA
BRANCH  11  16
ATOM     12  C   UNL     1       5.962   7.378 -11.075  0.00  0.00    +0.055 C 
ATOM     13  C   UNL     1       4.764   6.577 -10.670  0.00  0.00    +0.098 A 
ATOM     14  C   UNL     1       4.563   5.867  -9.498  0.00  0.00    +0.050 A 
ATOM     15  C   UNL     1       5.658   5.409  -8.611  0.00  0.00    +0.037 C 
ATOM     16  C   UNL     1       3.211   5.559  -9.396  0.00  0.00    +0.263 A 
ATOM     17  O   UNL     1       2.685   5.943 -10.533  0.00  0.00    -0.336 OA
ATOM     18  N   UNL     1       3.543   6.591 -11.258  0.00  0.00    -0.080 NA
ENDBRANCH  11  16
ENDBRANCH   1  11
TORSDOF 3
ENDMDL
MODEL 3
REMARK VINA RESULT:      -6.9      4.328      7.795
REMARK  Name = 
REMARK  3 active torsions:
REMARK  status: ('A' for Active; 'I' for Inactive)
REMARK    1  A    between atoms: C_5  and  N_6
REMARK    2  A    between atoms: N_6  and  S_7
REMARK    3  A    between atoms: S_7  and  C_10
REMARK                            x       y       z     vdW  Elec       q    Type
REMARK                         _______ _______ _______ _____ _____    ______ ____
ROOT
ATOM      1  S   UNL     1       2.657   5.693 -13.424  0.00  0.00    +0.096 S 
ATOM      2  O   UNL     1       1.874   6.724 -14.208  0.00  0.00    -0.148 OA
ATOM      3  O   UNL     1       2.692   4.458 -14.268  0.00  0.00    -0.148 OA
ENDROOT
BRANCH   1   4
ATOM      4  C   UNL     1       1.826   5.392 -11.902  0.00  0.00    +0.127 A 
ATOM      5  C   UNL     1       2.322   6.048 -10.797  0.00  0.00    +0.022 A 
ATOM      6  C   UNL     1       1.629   5.976  -9.621  0.00  0.00    +0.019 A 
ATOM      7  C   UNL     1       0.459   5.241  -9.486  0.00  0.00    +0.089 A 
ATOM      8  N   UNL     1      -0.387   5.530  -8.366  0.00  0.00    -0.128 NA
ATOM      9  C   UNL     1      -0.022   4.603 -10.618  0.00  0.00    +0.019 A 
ATOM     10  C   UNL     1       0.535   4.902 -11.855  0.00  0.00    +0.022 A 
ENDBRANCH   1   4
BRANCH   1  11
ATOM     11  N   UNL     1       4.206   6.302 -13.045  0.00  0.00    -0.057 NA
BRANCH  11  16
ATOM     12  C   UNL     1       8.891   5.817 -11.780  0.00  0.00    +0.055 C 
ATOM     13  C   UNL     1       7.552   5.424 -12.321  0.00  0.00    +0.098 A 
ATOM     14  C   UNL     1       6.298   5.786 -11.856  0.00  0.00    +0.050 A 
ATOM     15  C   UNL     1       6.037   6.278 -10.482  0.00  0.00    +0.037 C 
ATOM     16  C   UNL     1       5.359   5.478 -12.834  0.00  0.00    +0.263 A 
ATOM     17  O   UNL     1       6.025   4.828 -13.756  0.00  0.00    -0.336 OA
ATOM     18  N   UNL     1       7.300   4.840 -13.518  0.00  0.00    -0.080 NA
ENDBRANCH  11  16
ENDBRANCH   1  11
TORSDOF 3
ENDMDL
MODEL 4
REMARK VINA RESULT:      -6.9      3.000      6.888
REMARK  Name = 
REMARK  3 active torsions:
REMARK  status: ('A' for Active; 'I' for Inactive)
REMARK    1  A    between atoms: C_5  and  N_6
REMARK    2  A    between atoms: N_6  and  S_7
REMARK    3  A    between atoms: S_7  and  C_10
REMARK                            x       y       z     vdW  Elec       q    Type
REMARK                         _______ _______ _______ _____ _____    ______ ____
ROOT
ATOM      1  S   UNL     1       2.953   6.052  -9.744  0.00  0.00    +0.096 S 
ATOM      2  O   UNL     1       1.738   6.879 -10.104  0.00  0.00    -0.148 OA
ATOM      3  O   UNL     1       2.576   4.623  -9.979  0.00  0.00    -0.148 OA
ENDROOT
BRANCH   1   4
ATOM      4  C   UNL     1       3.343   6.329  -8.050  0.00  0.00    +0.127 A 
ATOM      5  C   UNL     1       2.412   7.031  -7.317  0.00  0.00    +0.022 A 
ATOM      6  C   UNL     1       2.585   7.144  -5.966  0.00  0.00    +0.019 A 
ATOM      7  C   UNL     1       3.680   6.605  -5.304  0.00  0.00    +0.089 A 
ATOM      8  N   UNL     1       3.586   6.434  -3.885  0.00  0.00    -0.128 NA
ATOM      9  C   UNL     1       4.593   5.892  -6.066  0.00  0.00    +0.019 A 
ATOM     10  C   UNL     1       4.270   5.557  -7.375  0.00  0.00    +0.022 A 
ENDBRANCH   1   4
BRANCH   1  11
ATOM     11  N   UNL     1       4.298   6.561 -10.663  0.00  0.00    -0.057 NA
BRANCH  11  16
ATOM     12  C   UNL     1       8.823   5.695 -12.265  0.00  0.00    +0.055 C 
ATOM     13  C   UNL     1       7.369   5.445 -12.011  0.00  0.00    +0.098 A 
ATOM     14  C   UNL     1       6.622   5.782 -10.895  0.00  0.00    +0.050 A 
ATOM     15  C   UNL     1       7.208   6.066  -9.564  0.00  0.00    +0.037 C 
ATOM     16  C   UNL     1       5.274   5.667 -11.215  0.00  0.00    +0.263 A 
ATOM     17  O   UNL     1       5.250   5.141 -12.415  0.00  0.00    -0.336 OA
ATOM     18  N   UNL     1       6.440   5.064 -12.923  0.00  0.00    -0.080 NA
ENDBRANCH  11  16
ENDBRANCH   1  11
TORSDOF 3
ENDMDL
MODEL 5
REMARK VINA RESULT:      -6.8      4.057      4.945
REMARK  Name = 
REMARK  3 active torsions:
REMARK  status: ('A' for Active; 'I' for Inactive)
REMARK    1  A    between atoms: C_5  and  N_6
REMARK    2  A    between atoms: N_6  and  S_7
REMARK    3  A    between atoms: S_7  and  C_10
REMARK                            x       y       z     vdW  Elec       q    Type
REMARK                         _______ _______ _______ _____ _____    ______ ____
ROOT
ATOM      1  S   UNL     1       2.369   6.392  -5.687  0.00  0.00    +0.096 S 
ATOM      2  O   UNL     1       2.548   5.092  -6.439  0.00  0.00    -0.148 OA
ATOM      3  O   UNL     1       3.007   7.456  -6.524  0.00  0.00    -0.148 OA
ENDROOT
BRANCH   1   4
ATOM      4  C   UNL     1       3.170   6.256  -4.126  0.00  0.00    +0.127 A 
ATOM      5  C   UNL     1       3.047   7.336  -3.281  0.00  0.00    +0.022 A 
ATOM      6  C   UNL     1       3.515   7.230  -2.001  0.00  0.00    +0.019 A 
ATOM      7  C   UNL     1       4.137   6.084  -1.525  0.00  0.00    +0.089 A 
ATOM      8  N   UNL     1       4.239   5.919  -0.105  0.00  0.00    -0.128 NA
ATOM      9  C   UNL     1       4.234   5.008  -2.394  0.00  0.00    +0.019 A 
ATOM     10  C   UNL     1       3.523   5.033  -3.587  0.00  0.00    +0.022 A 
ENDBRANCH   1   4
BRANCH   1  11
ATOM     11  N   UNL     1       0.712   6.668  -5.384  0.00  0.00    -0.057 NA
BRANCH  11  16
ATOM     12  C   UNL     1      -3.467   5.717  -3.056  0.00  0.00    +0.055 C 
ATOM     13  C   UNL     1      -2.062   5.505  -3.529  0.00  0.00    +0.098 A 
ATOM     14  C   UNL     1      -1.514   5.822  -4.760  0.00  0.00    +0.050 A 
ATOM     15  C   UNL     1      -2.313   6.033  -5.991  0.00  0.00    +0.037 C 
ATOM     16  C   UNL     1      -0.129   5.765  -4.654  0.00  0.00    +0.263 A 
ATOM     17  O   UNL     1       0.104   5.288  -3.457  0.00  0.00    -0.336 OA
ATOM     18  N   UNL     1      -0.988   5.192  -2.764  0.00  0.00    -0.080 NA
ENDBRANCH  11  16
ENDBRANCH   1  11
TORSDOF 3
ENDMDL
MODEL 6
REMARK VINA RESULT:      -6.8      3.224      3.918
REMARK  Name = 
REMARK  3 active torsions:
REMARK  status: ('A' for Active; 'I' for Inactive)
REMARK    1  A    between atoms: C_5  and  N_6
REMARK    2  A    between atoms: N_6  and  S_7
REMARK    3  A    between atoms: S_7  and  C_10
REMARK                            x       y       z     vdW  Elec       q    Type
REMARK                         _______ _______ _______ _____ _____    ______ ____
ROOT
ATOM      1  S   UNL     1       2.157   6.118  -5.110  0.00  0.00    +0.096 S 
ATOM      2  O   UNL     1       3.354   7.027  -4.934  0.00  0.00    -0.148 OA
ATOM      3  O   UNL     1       2.640   4.726  -4.849  0.00  0.00    -0.148 OA
ENDROOT
BRANCH   1   4
ATOM      4  C   UNL     1       1.562   6.278  -6.758  0.00  0.00    +0.127 A 
ATOM      5  C   UNL     1       2.294   7.092  -7.594  0.00  0.00    +0.022 A 
ATOM      6  C   UNL     1       1.973   7.136  -8.922  0.00  0.00    +0.019 A 
ATOM      7  C   UNL     1       0.916   6.413  -9.459  0.00  0.00    +0.089 A 
ATOM      8  N   UNL     1       0.895   6.214 -10.878  0.00  0.00    -0.128 NA
ATOM      9  C   UNL     1       0.206   5.592  -8.596  0.00  0.00    +0.019 A 
ATOM     10  C   UNL     1       0.706   5.352  -7.322  0.00  0.00    +0.022 A 
ENDBRANCH   1   4
BRANCH   1  11
ATOM     11  N   UNL     1       0.896   6.606  -4.066  0.00  0.00    -0.057 NA
BRANCH  11  16
ATOM     12  C   UNL     1      -3.778   6.117  -2.764  0.00  0.00    +0.055 C 
ATOM     13  C   UNL     1      -2.360   5.713  -3.024  0.00  0.00    +0.098 A 
ATOM     14  C   UNL     1      -1.519   6.136  -4.040  0.00  0.00    +0.050 A 
ATOM     15  C   UNL     1      -1.995   6.734  -5.310  0.00  0.00    +0.037 C 
ATOM     16  C   UNL     1      -0.217   5.775  -3.713  0.00  0.00    +0.263 A 
ATOM     17  O   UNL     1      -0.324   5.045  -2.632  0.00  0.00    -0.336 OA
ATOM     18  N   UNL     1      -1.538   5.047  -2.176  0.00  0.00    -0.080 NA
ENDBRANCH  11  16
ENDBRANCH   1  11
TORSDOF 3
ENDMDL
MODEL 7
REMARK VINA RESULT:      -6.8      2.046      2.418
REMARK  Name = 
REMARK  3 active torsions:
REMARK  status: ('A' for Active; 'I' for Inactive)
REMARK    1  A    between atoms: C_5  and  N_6
REMARK    2  A    between atoms: N_6  and  S_7
REMARK    3  A    between atoms: S_7  and  C_10
REMARK                            x       y       z     vdW  Elec       q    Type
REMARK                         _______ _______ _______ _____ _____    ______ ____
ROOT
ATOM      1  S   UNL     1       3.091   5.498  -5.633  0.00  0.00    +0.096 S 
ATOM      2  O   UNL     1       2.861   6.852  -4.998  0.00  0.00    -0.148 OA
ATOM      3  O   UNL     1       4.164   4.831  -4.831  0.00  0.00    -0.148 OA
ENDROOT
BRANCH   1   4
ATOM      4  C   UNL     1       3.606   5.735  -7.299  0.00  0.00    +0.127 A 
ATOM      5  C   UNL     1       2.880   6.644  -8.037  0.00  0.00    +0.022 A 
ATOM      6  C   UNL     1       3.324   6.985  -9.284  0.00  0.00    +0.019 A 
ATOM      7  C   UNL     1       4.463   6.428  -9.851  0.00  0.00    +0.089 A 
ATOM      8  N   UNL     1       5.058   7.109 -10.963  0.00  0.00    -0.128 NA
ATOM      9  C   UNL     1       5.179   5.527  -9.078  0.00  0.00    +0.019 A 
ATOM     10  C   UNL     1       4.874   5.396  -7.730  0.00  0.00    +0.022 A 
ENDBRANCH   1   4
BRANCH   1  11
ATOM     11  N   UNL     1       1.628   4.618  -5.675  0.00  0.00    -0.057 NA
BRANCH  11  16
ATOM     12  C   UNL     1      -2.049   7.689  -4.763  0.00  0.00    +0.055 C 
ATOM     13  C   UNL     1      -1.126   6.530  -4.555  0.00  0.00    +0.098 A 
ATOM     14  C   UNL     1      -0.586   5.681  -5.507  0.00  0.00    +0.050 A 
ATOM     15  C   UNL     1      -1.157   5.488  -6.861  0.00  0.00    +0.037 C 
ATOM     16  C   UNL     1       0.459   4.973  -4.924  0.00  0.00    +0.263 A 
ATOM     17  O   UNL     1       0.423   5.290  -3.654  0.00  0.00    -0.336 OA
ATOM     18  N   UNL     1      -0.437   6.234  -3.425  0.00  0.00    -0.080 NA
ENDBRANCH  11  16
ENDBRANCH   1  11
TORSDOF 3
ENDMDL
MODEL 8
REMARK VINA RESULT:      -6.7      2.094      6.476
REMARK  Name = 
REMARK  3 active torsions:
REMARK  status: ('A' for Active; 'I' for Inactive)
REMARK    1  A    between atoms: C_5  and  N_6
REMARK    2  A    between atoms: N_6  and  S_7
REMARK    3  A    between atoms: S_7  and  C_10
REMARK                            x       y       z     vdW  Elec       q    Type
REMARK                         _______ _______ _______ _____ _____    ______ ____
ROOT
ATOM      1  S   UNL     1       1.002   5.671  -9.608  0.00  0.00    +0.096 S 
ATOM      2  O   UNL     1       0.009   6.448 -10.444  0.00  0.00    -0.148 OA
ATOM      3  O   UNL     1       0.957   4.259 -10.102  0.00  0.00    -0.148 OA
ENDROOT
BRANCH   1   4
ATOM      4  C   UNL     1       0.512   5.762  -7.920  0.00  0.00    +0.127 A 
ATOM      5  C   UNL     1       1.269   6.578  -7.108  0.00  0.00    +0.022 A 
ATOM      6  C   UNL     1       0.848   6.810  -5.829  0.00  0.00    +0.019 A 
ATOM      7  C   UNL     1      -0.299   6.231  -5.302  0.00  0.00    +0.089 A 
ATOM      8  N   UNL     1      -0.863   6.818  -4.123  0.00  0.00    -0.128 NA
ATOM      9  C   UNL     1      -1.047   5.426  -6.147  0.00  0.00    +0.019 A 
ATOM     10  C   UNL     1      -0.760   5.416  -7.506  0.00  0.00    +0.022 A 
ENDBRANCH   1   4
BRANCH   1  11
ATOM     11  N   UNL     1       2.548   6.384  -9.726  0.00  0.00    -0.057 NA
BRANCH  11  16
ATOM     12  C   UNL     1       7.391   5.857  -9.504  0.00  0.00    +0.055 C 
ATOM     13  C   UNL     1       5.987   5.603  -9.957  0.00  0.00    +0.098 A 
ATOM     14  C   UNL     1       4.827   5.615  -9.202  0.00  0.00    +0.050 A 
ATOM     15  C   UNL     1       4.798   5.452  -7.729  0.00  0.00    +0.037 C 
ATOM     16  C   UNL     1       3.739   5.661 -10.066  0.00  0.00    +0.263 A 
ATOM     17  O   UNL     1       4.247   5.529 -11.265  0.00  0.00    -0.336 OA
ATOM     18  N   UNL     1       5.543   5.560 -11.237  0.00  0.00    -0.080 NA
ENDBRANCH  11  16
ENDBRANCH   1  11
TORSDOF 3
ENDMDL
MODEL 9
REMARK VINA RESULT:      -6.7      3.018      6.593
REMARK  Name = 
REMARK  3 active torsions:
REMARK  status: ('A' for Active; 'I' for Inactive)
REMARK    1  A    between atoms: C_5  and  N_6
REMARK    2  A    between atoms: N_6  and  S_7
REMARK    3  A    between atoms: S_7  and  C_10
REMARK                            x       y       z     vdW  Elec       q    Type
REMARK                         _______ _______ _______ _____ _____    ______ ____
ROOT
ATOM      1  S   UNL     1       1.856   5.143  -8.081  0.00  0.00    +0.096 S 
ATOM      2  O   UNL     1       2.394   3.786  -7.681  0.00  0.00    -0.148 OA
ATOM      3  O   UNL     1       2.984   6.111  -7.912  0.00  0.00    -0.148 OA
ENDROOT
BRANCH   1   4
ATOM      4  C   UNL     1       0.511   5.552  -7.022  0.00  0.00    +0.127 A 
ATOM      5  C   UNL     1       0.774   6.469  -6.029  0.00  0.00    +0.022 A 
ATOM      6  C   UNL     1      -0.263   6.941  -5.274  0.00  0.00    +0.019 A 
ATOM      7  C   UNL     1      -1.571   6.510  -5.449  0.00  0.00    +0.089 A 
ATOM      8  N   UNL     1      -2.620   7.318  -4.903  0.00  0.00    -0.128 NA
ATOM      9  C   UNL     1      -1.807   5.597  -6.465  0.00  0.00    +0.019 A 
ATOM     10  C   UNL     1      -0.803   5.334  -7.389  0.00  0.00    +0.022 A 
ENDBRANCH   1   4
BRANCH   1  11
ATOM     11  N   UNL     1       1.246   5.080  -9.675  0.00  0.00    -0.057 NA
BRANCH  11  16
ATOM     12  C   UNL     1       0.689   6.883 -14.172  0.00  0.00    +0.055 C 
ATOM     13  C   UNL     1       1.353   6.612 -12.858  0.00  0.00    +0.098 A 
ATOM     14  C   UNL     1       0.773   6.535 -11.603  0.00  0.00    +0.050 A 
ATOM     15  C   UNL     1      -0.539   7.134 -11.261  0.00  0.00    +0.037 C 
ATOM     16  C   UNL     1       1.682   5.944 -10.732  0.00  0.00    +0.263 A 
ATOM     17  O   UNL     1       2.789   5.824 -11.422  0.00  0.00    -0.336 OA
ATOM     18  N   UNL     1       2.610   6.139 -12.667  0.00  0.00    -0.080 NA
ENDBRANCH  11  16
ENDBRANCH   1  11
TORSDOF 3
ENDMDL
