MODEL 1
REMARK VINA RESULT:      -6.6      0.000      0.000
REMARK  Name = 
REMARK  2 active torsions:
REMARK  status: ('A' for Active; 'I' for Inactive)
REMARK    1  A    between atoms: N_6  and  C_7
REMARK    2  A    between atoms: C_7  and  C_8
REMARK                            x       y       z     vdW  Elec       q    Type
REMARK                         _______ _______ _______ _____ _____    ______ ____
ROOT
ATOM      1  C   UNL     1       4.787   6.458 -11.432  0.00  0.00    +0.126 A 
ATOM      2  C   UNL     1       6.107   6.090 -11.662  0.00  0.00    +0.133 A 
ATOM      3 CL   UNL     1       7.343   7.108 -10.948  0.00  0.00    -0.076 Cl
ATOM      4  C   UNL     1       6.444   5.198 -12.671  0.00  0.00    +0.295 A 
ATOM      5  O   UNL     1       7.620   4.756 -12.748  0.00  0.00    -0.264 OA
ATOM      6  N   UNL     1       5.464   4.845 -13.531  0.00  0.00    -0.151 NA
ATOM      7  C   UNL     1       4.197   5.312 -13.421  0.00  0.00    +0.371 A 
ATOM      8  O   UNL     1       3.545   5.456 -14.499  0.00  0.00    -0.243 OA
ATOM      9  N   UNL     1       3.868   6.006 -12.308  0.00  0.00    -0.190 NA
ENDROOT
BRANCH   1  10
ATOM     10  C   UNL     1       4.436   6.788 -10.024  0.00  0.00    +0.250 C 
BRANCH  10  13
ATOM     11  N   UNL     1       1.600   7.167  -8.976  0.00  0.00    +0.188 NA
ATOM     12  C   UNL     1       2.292   6.095  -8.823  0.00  0.00    +0.353 C 
ATOM     13  N   UNL     1       3.561   5.824  -9.418  0.00  0.00    -0.185 N 
ATOM     14  C   UNL     1       3.928   4.475  -9.021  0.00  0.00    +0.203 C 
ATOM     15  C   UNL     1       2.660   3.812  -8.571  0.00  0.00    +0.064 C 
ATOM     16  C   UNL     1       1.835   4.942  -8.027  0.00  0.00    +0.126 C 
ENDBRANCH  10  13
ENDBRANCH   1  10
TORSDOF 2
ENDMDL
MODEL 2
REMARK VINA RESULT:      -6.5      3.100      5.404
REMARK  Name = 
REMARK  2 active torsions:
REMARK  status: ('A' for Active; 'I' for Inactive)
REMARK    1  A    between atoms: N_6  and  C_7
REMARK    2  A    between atoms: C_7  and  C_8
REMARK                            x       y       z     vdW  Elec       q    Type
REMARK                         _______ _______ _______ _____ _____    ______ ____
ROOT
ATOM      1  C   UNL     1       3.398   6.095 -10.213  0.00  0.00    +0.126 A 
ATOM      2  C   UNL     1       2.250   6.070 -10.995  0.00  0.00    +0.133 A 
ATOM      3 CL   UNL     1       2.481   5.910 -12.726  0.00  0.00    -0.076 Cl
ATOM      4  C   UNL     1       1.027   6.497 -10.498  0.00  0.00    +0.295 A 
ATOM      5  O   UNL     1      -0.022   6.308 -11.169  0.00  0.00    -0.264 OA
ATOM      6  N   UNL     1       1.032   7.104  -9.291  0.00  0.00    -0.151 NA
ATOM      7  C   UNL     1       2.167   7.280  -8.571  0.00  0.00    +0.371 A 
ATOM      8  O   UNL     1       2.221   8.310  -7.833  0.00  0.00    -0.243 OA
ATOM      9  N   UNL     1       3.293   6.665  -8.996  0.00  0.00    -0.190 NA
ENDROOT
BRANCH   1  10
ATOM     10  C   UNL     1       4.411   5.044 -10.506  0.00  0.00    +0.250 C 
BRANCH  10  13
ATOM     11  N   UNL     1       5.808   4.993 -13.214  0.00  0.00    +0.188 NA
ATOM     12  C   UNL     1       6.352   5.404 -12.125  0.00  0.00    +0.353 C 
ATOM     13  N   UNL     1       5.692   5.580 -10.871  0.00  0.00    -0.185 N 
ATOM     14  C   UNL     1       6.679   6.123  -9.953  0.00  0.00    +0.203 C 
ATOM     15  C   UNL     1       7.781   6.680 -10.805  0.00  0.00    +0.064 C 
ATOM     16  C   UNL     1       7.765   5.811 -12.029  0.00  0.00    +0.126 C 
ENDBRANCH  10  13
ENDBRANCH   1  10
TORSDOF 2
ENDMDL
MODEL 3
REMARK VINA RESULT:      -6.4      5.922      7.691
REMARK  Name = 
REMARK  2 active torsions:
REMARK  status: ('A' for Active; 'I' for Inactive)
REMARK    1  A    between atoms: N_6  and  C_7
REMARK    2  A    between atoms: C_7  and  C_8
REMARK                            x       y       z     vdW  Elec       q    Type
REMARK                         _______ _______ _______ _____ _____    ______ ____
ROOT
ATOM      1  C   UNL     1       1.279   6.295  -5.122  0.00  0.00    +0.126 A 
ATOM      2  C   UNL     1       2.474   6.516  -4.447  0.00  0.00    +0.133 A 
ATOM      3 CL   UNL     1       2.386   6.591  -2.698  0.00  0.00    -0.076 Cl
ATOM      4  C   UNL     1       3.598   6.997  -5.104  0.00  0.00    +0.295 A 
ATOM      5  O   UNL     1       4.706   7.028  -4.508  0.00  0.00    -0.264 OA
ATOM      6  N   UNL     1       3.434   7.411  -6.380  0.00  0.00    -0.151 NA
ATOM      7  C   UNL     1       2.239   7.351  -7.015  0.00  0.00    +0.371 A 
ATOM      8  O   UNL     1       2.007   8.246  -7.883  0.00  0.00    -0.243 OA
ATOM      9  N   UNL     1       1.229   6.685  -6.412  0.00  0.00    -0.190 NA
ENDROOT
BRANCH   1  10
ATOM     10  C   UNL     1       0.426   5.195  -4.598  0.00  0.00    +0.250 C 
BRANCH  10  13
ATOM     11  N   UNL     1      -0.521   4.989  -1.709  0.00  0.00    +0.188 NA
ATOM     12  C   UNL     1      -1.247   5.412  -2.681  0.00  0.00    +0.353 C 
ATOM     13  N   UNL     1      -0.801   5.659  -4.015  0.00  0.00    -0.185 N 
ATOM     14  C   UNL     1      -1.942   6.187  -4.744  0.00  0.00    +0.203 C 
ATOM     15  C   UNL     1      -2.916   6.666  -3.708  0.00  0.00    +0.064 C 
ATOM     16  C   UNL     1      -2.672   5.757  -2.538  0.00  0.00    +0.126 C 
ENDBRANCH  10  13
ENDBRANCH   1  10
TORSDOF 2
ENDMDL
MODEL 4
REMARK VINA RESULT:      -6.4      7.165      9.570
REMARK  Name = 
REMARK  2 active torsions:
REMARK  status: ('A' for Active; 'I' for Inactive)
REMARK    1  A    between atoms: N_6  and  C_7
REMARK    2  A    between atoms: C_7  and  C_8
REMARK                            x       y       z     vdW  Elec       q    Type
REMARK                         _______ _______ _______ _____ _____    ______ ____
ROOT
ATOM      1  C   UNL     1       0.085   6.476  -3.654  0.00  0.00    +0.126 A 
ATOM      2  C   UNL     1      -1.245   6.179  -3.380  0.00  0.00    +0.133 A 
ATOM      3 CL   UNL     1      -2.446   7.270  -4.044  0.00  0.00    -0.076 Cl
ATOM      4  C   UNL     1      -1.596   5.297  -2.368  0.00  0.00    +0.295 A 
ATOM      5  O   UNL     1      -2.792   4.920  -2.253  0.00  0.00    -0.264 OA
ATOM      6  N   UNL     1      -0.608   4.882  -1.545  0.00  0.00    -0.151 NA
ATOM      7  C   UNL     1       0.678   5.280  -1.695  0.00  0.00    +0.371 A 
ATOM      8  O   UNL     1       1.374   5.377  -0.639  0.00  0.00    -0.243 OA
ATOM      9  N   UNL     1       1.007   5.966  -2.813  0.00  0.00    -0.190 NA
ENDROOT
BRANCH   1  10
ATOM     10  C   UNL     1       0.405   6.800  -5.070  0.00  0.00    +0.250 C 
BRANCH  10  13
ATOM     11  N   UNL     1       3.232   7.259  -6.110  0.00  0.00    +0.188 NA
ATOM     12  C   UNL     1       2.570   6.168  -6.266  0.00  0.00    +0.353 C 
ATOM     13  N   UNL     1       1.308   5.862  -5.674  0.00  0.00    -0.185 N 
ATOM     14  C   UNL     1       0.980   4.504  -6.075  0.00  0.00    +0.203 C 
ATOM     15  C   UNL     1       2.267   3.876  -6.522  0.00  0.00    +0.064 C 
ATOM     16  C   UNL     1       3.062   5.030  -7.062  0.00  0.00    +0.126 C 
ENDBRANCH  10  13
ENDBRANCH   1  10
TORSDOF 2
ENDMDL
MODEL 5
REMARK VINA RESULT:      -6.3      6.750      8.903
REMARK  Name = 
REMARK  2 active torsions:
REMARK  status: ('A' for Active; 'I' for Inactive)
REMARK    1  A    between atoms: N_6  and  C_7
REMARK    2  A    between atoms: C_7  and  C_8
REMARK                            x       y       z     vdW  Elec       q    Type
REMARK                         _______ _______ _______ _____ _____    ______ ____
ROOT
ATOM      1  C   UNL     1       0.316   5.992  -4.099  0.00  0.00    +0.126 A 
ATOM      2  C   UNL     1      -0.424   5.530  -3.018  0.00  0.00    +0.133 A 
ATOM      3 CL   UNL     1       0.476   4.784  -1.710  0.00  0.00    -0.076 Cl
ATOM      4  C   UNL     1      -1.797   5.342  -3.107  0.00  0.00    +0.295 A 
ATOM      5  O   UNL     1      -2.462   5.085  -2.070  0.00  0.00    -0.264 OA
ATOM      6  N   UNL     1      -2.353   5.453  -4.333  0.00  0.00    -0.151 NA
ATOM      7  C   UNL     1      -1.626   5.752  -5.437  0.00  0.00    +0.371 A 
ATOM      8  O   UNL     1      -2.026   5.261  -6.536  0.00  0.00    -0.243 OA
ATOM      9  N   UNL     1      -0.339   6.131  -5.269  0.00  0.00    -0.190 NA
ENDROOT
BRANCH   1  10
ATOM     10  C   UNL     1       1.518   6.803  -3.769  0.00  0.00    +0.250 C 
BRANCH  10  13
ATOM     11  N   UNL     1       2.953   7.393  -6.392  0.00  0.00    +0.188 NA
ATOM     12  C   UNL     1       3.288   6.458  -5.578  0.00  0.00    +0.353 C 
ATOM     13  N   UNL     1       2.737   6.241  -4.278  0.00  0.00    -0.185 N 
ATOM     14  C   UNL     1       3.462   5.121  -3.701  0.00  0.00    +0.203 C 
ATOM     15  C   UNL     1       4.730   4.990  -4.492  0.00  0.00    +0.064 C 
ATOM     16  C   UNL     1       4.353   5.480  -5.861  0.00  0.00    +0.126 C 
ENDBRANCH  10  13
ENDBRANCH   1  10
TORSDOF 2
ENDMDL
MODEL 6
REMARK VINA RESULT:      -6.3      5.573      7.079
REMARK  Name = 
REMARK  2 active torsions:
REMARK  status: ('A' for Active; 'I' for Inactive)
REMARK    1  A    between atoms: N_6  and  C_7
REMARK    2  A    between atoms: C_7  and  C_8
REMARK                            x       y       z     vdW  Elec       q    Type
REMARK                         _______ _______ _______ _____ _____    ______ ____
ROOT
ATOM      1  C   UNL     1       1.513   5.316  -6.267  0.00  0.00    +0.126 A 
ATOM      2  C   UNL     1       1.458   6.319  -7.228  0.00  0.00    +0.133 A 
ATOM      3 CL   UNL     1       0.601   5.941  -8.710  0.00  0.00    -0.076 Cl
ATOM      4  C   UNL     1       2.312   7.412  -7.182  0.00  0.00    +0.295 A 
ATOM      5  O   UNL     1       2.129   8.382  -7.964  0.00  0.00    -0.264 OA
ATOM      6  N   UNL     1       3.314   7.372  -6.277  0.00  0.00    -0.151 NA
ATOM      7  C   UNL     1       3.484   6.329  -5.427  0.00  0.00    +0.371 A 
ATOM      8  O   UNL     1       4.675   6.061  -5.082  0.00  0.00    -0.243 OA
ATOM      9  N   UNL     1       2.511   5.393  -5.365  0.00  0.00    -0.190 NA
ENDROOT
BRANCH   1  10
ATOM     10  C   UNL     1       0.227   4.632  -5.963  0.00  0.00    +0.250 C 
BRANCH  10  13
ATOM     11  N   UNL     1      -0.118   5.396  -3.033  0.00  0.00    +0.188 NA
ATOM     12  C   UNL     1      -0.943   5.711  -3.966  0.00  0.00    +0.353 C 
ATOM     13  N   UNL     1      -0.748   5.500  -5.364  0.00  0.00    -0.185 N 
ATOM     14  C   UNL     1      -1.902   6.073  -6.037  0.00  0.00    +0.203 C 
ATOM     15  C   UNL     1      -2.537   7.011  -5.054  0.00  0.00    +0.064 C 
ATOM     16  C   UNL     1      -2.222   6.401  -3.718  0.00  0.00    +0.126 C 
ENDBRANCH  10  13
ENDBRANCH   1  10
TORSDOF 2
ENDMDL
MODEL 7
REMARK VINA RESULT:      -6.3      3.291      5.156
REMARK  Name = 
REMARK  2 active torsions:
REMARK  status: ('A' for Active; 'I' for Inactive)
REMARK    1  A    between atoms: N_6  and  C_7
REMARK    2  A    between atoms: C_7  and  C_8
REMARK                            x       y       z     vdW  Elec       q    Type
REMARK                         _______ _______ _______ _____ _____    ______ ____
ROOT
ATOM      1  C   UNL     1       3.298   5.393  -9.260  0.00  0.00    +0.126 A 
ATOM      2  C   UNL     1       3.144   6.411  -8.326  0.00  0.00    +0.133 A 
ATOM      3 CL   UNL     1       3.995   6.217  -6.805  0.00  0.00    -0.076 Cl
ATOM      4  C   UNL     1       2.118   7.339  -8.431  0.00  0.00    +0.295 A 
ATOM      5  O   UNL     1       2.101   8.343  -7.670  0.00  0.00    -0.264 OA
ATOM      6  N   UNL     1       1.173   7.109  -9.369  0.00  0.00    -0.151 NA
ATOM      7  C   UNL     1       1.217   6.035 -10.195  0.00  0.00    +0.371 A 
ATOM      8  O   UNL     1       0.104   5.559 -10.573  0.00  0.00    -0.243 OA
ATOM      9  N   UNL     1       2.337   5.278 -10.198  0.00  0.00    -0.190 NA
ENDROOT
BRANCH   1  10
ATOM     10  C   UNL     1       4.693   4.934  -9.501  0.00  0.00    +0.250 C 
BRANCH  10  13
ATOM     11  N   UNL     1       7.717   5.289  -9.390  0.00  0.00    +0.188 NA
ATOM     12  C   UNL     1       6.910   6.120  -9.946  0.00  0.00    +0.353 C 
ATOM     13  N   UNL     1       5.510   5.923 -10.146  0.00  0.00    -0.185 N 
ATOM     14  C   UNL     1       5.025   7.086 -10.868  0.00  0.00    +0.203 C 
ATOM     15  C   UNL     1       6.233   7.736 -11.476  0.00  0.00    +0.064 C 
ATOM     16  C   UNL     1       7.339   7.409 -10.515  0.00  0.00    +0.126 C 
ENDBRANCH  10  13
ENDBRANCH   1  10
TORSDOF 2
ENDMDL
MODEL 8
REMARK VINA RESULT:      -6.1      2.835      4.382
REMARK  Name = 
REMARK  2 active torsions:
REMARK  status: ('A' for Active; 'I' for Inactive)
REMARK    1  A    between atoms: N_6  and  C_7
REMARK    2  A    between atoms: C_7  and  C_8
REMARK                            x       y       z     vdW  Elec       q    Type
REMARK                         _______ _______ _______ _____ _____    ______ ____
ROOT
ATOM      1  C   UNL     1       3.262   6.010 -11.147  0.00  0.00    +0.126 A 
ATOM      2  C   UNL     1       2.079   5.499 -10.626  0.00  0.00    +0.133 A 
ATOM      3 CL   UNL     1       2.137   4.913  -8.974  0.00  0.00    -0.076 Cl
ATOM      4  C   UNL     1       1.021   5.142 -11.449  0.00  0.00    +0.295 A 
ATOM      5  O   UNL     1      -0.093   4.842 -10.942  0.00  0.00    -0.264 OA
ATOM      6  N   UNL     1       1.250   5.142 -12.780  0.00  0.00    -0.151 NA
ATOM      7  C   UNL     1       2.447   5.489 -13.311  0.00  0.00    +0.371 A 
ATOM      8  O   UNL     1       2.781   4.916 -14.392  0.00  0.00    -0.243 OA
ATOM      9  N   UNL     1       3.376   6.028 -12.490  0.00  0.00    -0.190 NA
ENDROOT
BRANCH   1  10
ATOM     10  C   UNL     1       3.995   6.973 -10.281  0.00  0.00    +0.250 C 
BRANCH  10  13
ATOM     11  N   UNL     1       6.409   8.313 -11.572  0.00  0.00    +0.188 NA
ATOM     12  C   UNL     1       6.465   7.234 -10.876  0.00  0.00    +0.353 C 
ATOM     13  N   UNL     1       5.388   6.656 -10.138  0.00  0.00    -0.185 N 
ATOM     14  C   UNL     1       5.929   5.491  -9.458  0.00  0.00    +0.203 C 
ATOM     15  C   UNL     1       7.419   5.665  -9.447  0.00  0.00    +0.064 C 
ATOM     16  C   UNL     1       7.698   6.448 -10.698  0.00  0.00    +0.126 C 
ENDBRANCH  10  13
ENDBRANCH   1  10
TORSDOF 2
ENDMDL
MODEL 9
REMARK VINA RESULT:      -6.1      4.116      6.304
REMARK  Name = 
REMARK  2 active torsions:
REMARK  status: ('A' for Active; 'I' for Inactive)
REMARK    1  A    between atoms: N_6  and  C_7
REMARK    2  A    between atoms: C_7  and  C_8
REMARK                            x       y       z     vdW  Elec       q    Type
REMARK                         _______ _______ _______ _____ _____    ______ ____
ROOT
ATOM      1  C   UNL     1       4.058   5.193  -7.974  0.00  0.00    +0.126 A 
ATOM      2  C   UNL     1       2.826   4.624  -7.676  0.00  0.00    +0.133 A 
ATOM      3 CL   UNL     1       1.647   4.580  -8.973  0.00  0.00    -0.076 Cl
ATOM      4  C   UNL     1       2.419   4.425  -6.364  0.00  0.00    +0.295 A 
ATOM      5  O   UNL     1       1.378   3.757  -6.126  0.00  0.00    -0.264 OA
ATOM      6  N   UNL     1       3.185   4.969  -5.393  0.00  0.00    -0.151 NA
ATOM      7  C   UNL     1       4.315   5.666  -5.665  0.00  0.00    +0.371 A 
ATOM      8  O   UNL     1       4.614   6.604  -4.866  0.00  0.00    -0.243 OA
ATOM      9  N   UNL     1       4.782   5.654  -6.934  0.00  0.00    -0.190 NA
ENDROOT
BRANCH   1  10
ATOM     10  C   UNL     1       4.697   4.745  -9.240  0.00  0.00    +0.250 C 
BRANCH  10  13
ATOM     11  N   UNL     1       7.699   5.173  -9.543  0.00  0.00    +0.188 NA
ATOM     12  C   UNL     1       6.805   6.018  -9.916  0.00  0.00    +0.353 C 
ATOM     13  N   UNL     1       5.395   5.797  -9.925  0.00  0.00    -0.185 N 
ATOM     14  C   UNL     1       4.790   6.994 -10.484  0.00  0.00    +0.203 C 
ATOM     15  C   UNL     1       5.885   7.715 -11.213  0.00  0.00    +0.064 C 
ATOM     16  C   UNL     1       7.125   7.354 -10.448  0.00  0.00    +0.126 C 
ENDBRANCH  10  13
ENDBRANCH   1  10
TORSDOF 2
ENDMDL
