MODEL 1
REMARK VINA RESULT:      -8.6      0.000      0.000
REMARK  Name = 
REMARK  1 active torsions:
REMARK  status: ('A' for Active; 'I' for Inactive)
REMARK    1  A    between atoms: O_2  and  C_3
REMARK                            x       y       z     vdW  Elec       q    Type
REMARK                         _______ _______ _______ _____ _____    ______ ____
ROOT
ATOM      1  C   UNL     1      -1.267   6.978  -5.069  0.00  0.00    +0.172 A 
ATOM      2  C   UNL     1       0.102   6.768  -5.219  0.00  0.00    +0.169 A 
ATOM      3  O   UNL     1       1.168   7.230  -4.542  0.00  0.00    -0.469 OA
ATOM      4  C   UNL     1       2.458   6.720  -5.222  0.00  0.00    +0.228 C 
ATOM      5  C   UNL     1       1.748   6.335  -6.637  0.00  0.00    +0.094 C 
ATOM      6  C   UNL     1       2.444   5.291  -7.253  0.00  0.00    +0.148 C 
ATOM      7  C   UNL     1       1.724   4.860  -8.653  0.00  0.00    +0.090 C 
ATOM      8  N   UNL     1       2.268   6.115  -9.430  0.00  0.00    -0.270 NA
ATOM      9  C   UNL     1       2.378   7.247  -8.707  0.00  0.00    +0.073 C 
ATOM     10  C   UNL     1       1.360   6.113 -10.554  0.00  0.00    +0.090 C 
ATOM     11  C   UNL     1       0.243   5.533  -8.475  0.00  0.00    +0.045 C 
ATOM     12  C   UNL     1      -0.267   5.255  -7.116  0.00  0.00    -0.021 A 
ATOM     13  C   UNL     1      -1.635   5.445  -6.918  0.00  0.00    -0.001 A 
ATOM     14  O   UNL     1       3.766   5.556  -7.522  0.00  0.00    -0.224 OA
ATOM     15  C   UNL     1       2.455   3.913  -6.602  0.00  0.00    +0.040 C 
ATOM     16  C   UNL     1       3.093   4.164  -5.273  0.00  0.00    +0.071 C 
ATOM     17  C   UNL     1       1.650   7.549  -7.469  0.00  0.00    +0.028 C 
ATOM     18  C   UNL     1       2.268   5.228  -4.600  0.00  0.00    +0.191 C 
ATOM     19  O   UNL     1       2.642   5.374  -3.432  0.00  0.00    -0.292 OA
ATOM     20  C   UNL     1       0.493   5.802  -6.084  0.00  0.00    +0.017 A 
ATOM     21  C   UNL     1      -2.129   6.258  -5.896  0.00  0.00    +0.040 A 
ENDROOT
BRANCH   1  23
ATOM     22  C   UNL     1      -2.062   8.309  -3.965  0.00  0.00    +0.253 C 
ATOM     23  O   UNL     1      -1.637   8.202  -4.493  0.00  0.00    -0.468 OA
ENDBRANCH   1  23
TORSDOF 1
ENDMDL
MODEL 2
REMARK VINA RESULT:      -7.7      2.884      6.119
REMARK  Name = 
REMARK  1 active torsions:
REMARK  status: ('A' for Active; 'I' for Inactive)
REMARK    1  A    between atoms: O_2  and  C_3
REMARK                            x       y       z     vdW  Elec       q    Type
REMARK                         _______ _______ _______ _____ _____    ______ ____
ROOT
ATOM      1  C   UNL     1       5.535   6.778 -10.678  0.00  0.00    +0.172 A 
ATOM      2  C   UNL     1       4.173   6.626 -10.434  0.00  0.00    +0.169 A 
ATOM      3  O   UNL     1       3.082   7.101 -11.059  0.00  0.00    -0.469 OA
ATOM      4  C   UNL     1       1.821   6.666 -10.278  0.00  0.00    +0.228 C 
ATOM      5  C   UNL     1       2.608   6.307  -8.897  0.00  0.00    +0.094 C 
ATOM      6  C   UNL     1       1.917   5.313  -8.198  0.00  0.00    +0.148 C 
ATOM      7  C   UNL     1       2.711   4.907  -6.832  0.00  0.00    +0.090 C 
ATOM      8  N   UNL     1       2.263   6.209  -6.071  0.00  0.00    -0.270 NA
ATOM      9  C   UNL     1       2.146   7.317  -6.829  0.00  0.00    +0.073 C 
ATOM     10  C   UNL     1       3.242   6.214  -5.007  0.00  0.00    +0.090 C 
ATOM     11  C   UNL     1       4.200   5.517  -7.129  0.00  0.00    +0.045 C 
ATOM     12  C   UNL     1       4.610   5.170  -8.506  0.00  0.00    -0.021 A 
ATOM     13  C   UNL     1       5.968   5.301  -8.797  0.00  0.00    -0.001 A 
ATOM     14  O   UNL     1       0.626   5.637  -7.856  0.00  0.00    -0.224 OA
ATOM     15  C   UNL     1       1.815   3.913  -8.793  0.00  0.00    +0.040 C 
ATOM     16  C   UNL     1       1.102   4.139 -10.087  0.00  0.00    +0.071 C 
ATOM     17  C   UNL     1       2.802   7.546  -8.121  0.00  0.00    +0.028 C 
ATOM     18  C   UNL     1       1.918   5.146 -10.853  0.00  0.00    +0.191 C 
ATOM     19  O   UNL     1       1.474   5.263 -12.000  0.00  0.00    -0.292 OA
ATOM     20  C   UNL     1       3.805   5.707  -9.508  0.00  0.00    +0.017 A 
ATOM     21  C   UNL     1       6.423   6.057  -9.880  0.00  0.00    +0.040 A 
ENDROOT
BRANCH   1  23
ATOM     22  C   UNL     1       6.538   8.236 -11.378  0.00  0.00    +0.253 C 
ATOM     23  O   UNL     1       5.910   7.966 -11.323  0.00  0.00    -0.468 OA
ENDBRANCH   1  23
TORSDOF 1
ENDMDL
MODEL 3
REMARK VINA RESULT:      -7.6      1.907      4.327
REMARK  Name = 
REMARK  1 active torsions:
REMARK  status: ('A' for Active; 'I' for Inactive)
REMARK    1  A    between atoms: O_2  and  C_3
REMARK                            x       y       z     vdW  Elec       q    Type
REMARK                         _______ _______ _______ _____ _____    ______ ____
ROOT
ATOM      1  C   UNL     1       3.851   5.815  -2.798  0.00  0.00    +0.172 A 
ATOM      2  C   UNL     1       2.697   5.617  -3.551  0.00  0.00    +0.169 A 
ATOM      3  O   UNL     1       1.513   5.050  -3.262  0.00  0.00    -0.469 OA
ATOM      4  C   UNL     1       0.633   5.037  -4.532  0.00  0.00    +0.228 C 
ATOM      5  C   UNL     1       1.862   5.277  -5.576  0.00  0.00    +0.094 C 
ATOM      6  C   UNL     1       1.398   5.938  -6.717  0.00  0.00    +0.148 C 
ATOM      7  C   UNL     1       2.621   6.227  -7.757  0.00  0.00    +0.090 C 
ATOM      8  N   UNL     1       2.682   4.734  -8.250  0.00  0.00    -0.270 NA
ATOM      9  C   UNL     1       2.404   3.800  -7.319  0.00  0.00    +0.073 C 
ATOM     10  C   UNL     1       4.000   4.730  -8.843  0.00  0.00    +0.090 C 
ATOM     11  C   UNL     1       3.924   6.026  -6.788  0.00  0.00    +0.045 C 
ATOM     12  C   UNL     1       3.696   6.721  -5.503  0.00  0.00    -0.021 A 
ATOM     13  C   UNL     1       4.825   6.948  -4.715  0.00  0.00    -0.001 A 
ATOM     14  O   UNL     1       0.405   5.281  -7.403  0.00  0.00    -0.224 OA
ATOM     15  C   UNL     1       0.895   7.372  -6.598  0.00  0.00    +0.040 C 
ATOM     16  C   UNL     1      -0.248   7.259  -5.641  0.00  0.00    +0.071 C 
ATOM     17  C   UNL     1       2.503   3.980  -5.866  0.00  0.00    +0.028 C 
ATOM     18  C   UNL     1       0.303   6.626  -4.392  0.00  0.00    +0.191 C 
ATOM     19  O   UNL     1      -0.548   6.646  -3.498  0.00  0.00    -0.292 OA
ATOM     20  C   UNL     1       2.626   6.232  -4.757  0.00  0.00    +0.017 A 
ATOM     21  C   UNL     1       4.891   6.539  -3.381  0.00  0.00    +0.040 A 
ENDROOT
BRANCH   1  23
ATOM     22  C   UNL     1       4.167   5.017  -1.100  0.00  0.00    +0.253 C 
ATOM     23  O   UNL     1       4.073   4.890  -1.768  0.00  0.00    -0.468 OA
ENDBRANCH   1  23
TORSDOF 1
ENDMDL
MODEL 4
REMARK VINA RESULT:      -7.2      2.705      5.558
REMARK  Name = 
REMARK  1 active torsions:
REMARK  status: ('A' for Active; 'I' for Inactive)
REMARK    1  A    between atoms: O_2  and  C_3
REMARK                            x       y       z     vdW  Elec       q    Type
REMARK                         _______ _______ _______ _____ _____    ______ ____
ROOT
ATOM      1  C   UNL     1       6.322   5.990  -9.397  0.00  0.00    +0.172 A 
ATOM      2  C   UNL     1       5.265   5.750  -8.523  0.00  0.00    +0.169 A 
ATOM      3  O   UNL     1       5.199   5.134  -7.329  0.00  0.00    -0.469 OA
ATOM      4  C   UNL     1       3.727   5.092  -6.862  0.00  0.00    +0.228 C 
ATOM      5  C   UNL     1       3.087   5.386  -8.331  0.00  0.00    +0.094 C 
ATOM      6  C   UNL     1       1.856   6.033  -8.196  0.00  0.00    +0.148 C 
ATOM      7  C   UNL     1       1.217   6.375  -9.659  0.00  0.00    +0.090 C 
ATOM      8  N   UNL     1       0.775   4.888  -9.919  0.00  0.00    -0.270 NA
ATOM      9  C   UNL     1       1.590   3.940  -9.418  0.00  0.00    +0.073 C 
ATOM     10  C   UNL     1       0.594   4.940 -11.353  0.00  0.00    +0.090 C 
ATOM     11  C   UNL     1       2.527   6.222 -10.627  0.00  0.00    +0.045 C 
ATOM     12  C   UNL     1       3.684   6.901 -10.006  0.00  0.00    -0.021 A 
ATOM     13  C   UNL     1       4.766   7.169 -10.845  0.00  0.00    -0.001 A 
ATOM     14  O   UNL     1       0.913   5.340  -7.475  0.00  0.00    -0.224 OA
ATOM     15  C   UNL     1       1.812   7.445  -7.624  0.00  0.00    +0.040 C 
ATOM     16  C   UNL     1       2.393   7.282  -6.256  0.00  0.00    +0.071 C 
ATOM     17  C   UNL     1       3.007   4.117  -9.080  0.00  0.00    +0.028 C 
ATOM     18  C   UNL     1       3.753   6.666  -6.443  0.00  0.00    +0.191 C 
ATOM     19  O   UNL     1       4.359   6.647  -5.366  0.00  0.00    -0.292 OA
ATOM     20  C   UNL     1       4.087   6.366  -8.785  0.00  0.00    +0.017 A 
ATOM     21  C   UNL     1       6.064   6.757 -10.533  0.00  0.00    +0.040 A 
ENDROOT
BRANCH   1  23
ATOM     22  C   UNL     1       7.966   5.080  -9.700  0.00  0.00    +0.253 C 
ATOM     23  O   UNL     1       7.379   5.070  -9.345  0.00  0.00    -0.468 OA
ENDBRANCH   1  23
TORSDOF 1
ENDMDL
MODEL 5
REMARK VINA RESULT:      -7.2      1.990      3.880
REMARK  Name = 
REMARK  1 active torsions:
REMARK  status: ('A' for Active; 'I' for Inactive)
REMARK    1  A    between atoms: O_2  and  C_3
REMARK                            x       y       z     vdW  Elec       q    Type
REMARK                         _______ _______ _______ _____ _____    ______ ____
ROOT
ATOM      1  C   UNL     1      -1.812   6.029  -6.152  0.00  0.00    +0.172 A 
ATOM      2  C   UNL     1      -0.663   5.754  -6.889  0.00  0.00    +0.169 A 
ATOM      3  O   UNL     1      -0.457   5.049  -8.016  0.00  0.00    -0.469 OA
ATOM      4  C   UNL     1       1.056   5.018  -8.324  0.00  0.00    +0.228 C 
ATOM      5  C   UNL     1       1.530   5.445  -6.824  0.00  0.00    +0.094 C 
ATOM      6  C   UNL     1       2.754   6.119  -6.884  0.00  0.00    +0.148 C 
ATOM      7  C   UNL     1       3.226   6.595  -5.396  0.00  0.00    +0.090 C 
ATOM      8  N   UNL     1       3.673   5.147  -4.971  0.00  0.00    -0.270 NA
ATOM      9  C   UNL     1       2.937   4.137  -5.475  0.00  0.00    +0.073 C 
ATOM     10  C   UNL     1       3.701   5.317  -3.536  0.00  0.00    +0.090 C 
ATOM     11  C   UNL     1       1.826   6.476  -4.559  0.00  0.00    +0.045 C 
ATOM     12  C   UNL     1       0.725   7.067  -5.349  0.00  0.00    -0.021 A 
ATOM     13  C   UNL     1      -0.445   7.366  -4.651  0.00  0.00    -0.001 A 
ATOM     14  O   UNL     1       3.783   5.401  -7.445  0.00  0.00    -0.224 OA
ATOM     15  C   UNL     1       2.825   7.483  -7.561  0.00  0.00    +0.040 C 
ATOM     16  C   UNL     1       2.395   7.194  -8.964  0.00  0.00    +0.071 C 
ATOM     17  C   UNL     1       1.561   4.242  -5.971  0.00  0.00    +0.028 C 
ATOM     18  C   UNL     1       1.038   6.551  -8.870  0.00  0.00    +0.191 C 
ATOM     19  O   UNL     1       0.550   6.430  -9.998  0.00  0.00    -0.292 OA
ATOM     20  C   UNL     1       0.466   6.426  -6.558  0.00  0.00    +0.017 A 
ATOM     21  C   UNL     1      -1.693   6.890  -5.061  0.00  0.00    +0.040 A 
ENDROOT
BRANCH   1  23
ATOM     22  C   UNL     1      -3.341   4.955  -5.788  0.00  0.00    +0.253 C 
ATOM     23  O   UNL     1      -2.835   5.074  -6.238  0.00  0.00    -0.468 OA
ENDBRANCH   1  23
TORSDOF 1
ENDMDL
MODEL 6
REMARK VINA RESULT:      -6.9      2.429      5.388
REMARK  Name = 
REMARK  1 active torsions:
REMARK  status: ('A' for Active; 'I' for Inactive)
REMARK    1  A    between atoms: O_2  and  C_3
REMARK                            x       y       z     vdW  Elec       q    Type
REMARK                         _______ _______ _______ _____ _____    ______ ____
ROOT
ATOM      1  C   UNL     1       4.381   6.393  -9.728  0.00  0.00    +0.172 A 
ATOM      2  C   UNL     1       3.291   6.531  -8.872  0.00  0.00    +0.169 A 
ATOM      3  O   UNL     1       2.203   7.319  -8.910  0.00  0.00    -0.469 OA
ATOM      4  C   UNL     1       1.369   7.094  -7.629  0.00  0.00    +0.228 C 
ATOM      5  C   UNL     1       2.572   6.395  -6.780  0.00  0.00    +0.094 C 
ATOM      6  C   UNL     1       2.040   5.510  -5.838  0.00  0.00    +0.148 C 
ATOM      7  C   UNL     1       3.231   4.766  -5.005  0.00  0.00    +0.090 C 
ATOM      8  N   UNL     1       3.535   6.033  -4.123  0.00  0.00    -0.270 NA
ATOM      9  C   UNL     1       3.382   7.223  -4.737  0.00  0.00    +0.073 C 
ATOM     10  C   UNL     1       4.853   5.681  -3.645  0.00  0.00    +0.090 C 
ATOM     11  C   UNL     1       4.524   5.048  -5.968  0.00  0.00    +0.045 C 
ATOM     12  C   UNL     1       4.157   4.787  -7.376  0.00  0.00    -0.021 A 
ATOM     13  C   UNL     1       5.217   4.636  -8.272  0.00  0.00    -0.001 A 
ATOM     14  O   UNL     1       1.181   6.079  -4.929  0.00  0.00    -0.224 OA
ATOM     15  C   UNL     1       1.317   4.255  -6.316  0.00  0.00    +0.040 C 
ATOM     16  C   UNL     1       0.182   4.798  -7.122  0.00  0.00    +0.071 C 
ATOM     17  C   UNL     1       3.414   7.451  -6.186  0.00  0.00    +0.028 C 
ATOM     18  C   UNL     1       0.793   5.675  -8.181  0.00  0.00    +0.191 C 
ATOM     19  O   UNL     1      -0.075   6.032  -8.985  0.00  0.00    -0.292 OA
ATOM     20  C   UNL     1       3.157   5.615  -7.882  0.00  0.00    +0.017 A 
ATOM     21  C   UNL     1       5.311   5.394  -9.442  0.00  0.00    +0.040 A 
ENDROOT
BRANCH   1  23
ATOM     22  C   UNL     1       5.266   7.626 -10.877  0.00  0.00    +0.253 C 
ATOM     23  O   UNL     1       4.718   7.532 -10.474  0.00  0.00    -0.468 OA
ENDBRANCH   1  23
TORSDOF 1
ENDMDL
MODEL 7
REMARK VINA RESULT:      -6.9      2.122      4.768
REMARK  Name = 
REMARK  1 active torsions:
REMARK  status: ('A' for Active; 'I' for Inactive)
REMARK    1  A    between atoms: O_2  and  C_3
REMARK                            x       y       z     vdW  Elec       q    Type
REMARK                         _______ _______ _______ _____ _____    ______ ____
ROOT
ATOM      1  C   UNL     1       3.986   5.973  -8.345  0.00  0.00    +0.172 A 
ATOM      2  C   UNL     1       3.774   5.588  -7.024  0.00  0.00    +0.169 A 
ATOM      3  O   UNL     1       4.364   4.666  -6.244  0.00  0.00    -0.469 OA
ATOM      4  C   UNL     1       3.646   4.625  -4.876  0.00  0.00    +0.228 C 
ATOM      5  C   UNL     1       2.296   5.383  -5.385  0.00  0.00    +0.094 C 
ATOM      6  C   UNL     1       1.706   6.072  -4.322  0.00  0.00    +0.148 C 
ATOM      7  C   UNL     1       0.375   6.875  -4.820  0.00  0.00    +0.090 C 
ATOM      8  N   UNL     1      -0.503   5.570  -4.887  0.00  0.00    -0.270 NA
ATOM      9  C   UNL     1       0.146   4.449  -5.258  0.00  0.00    +0.073 C 
ATOM     10  C   UNL     1      -1.574   6.046  -5.733  0.00  0.00    +0.090 C 
ATOM     11  C   UNL     1       0.593   6.888  -6.442  0.00  0.00    +0.045 C 
ATOM     12  C   UNL     1       1.992   7.253  -6.750  0.00  0.00    -0.021 A 
ATOM     13  C   UNL     1       2.251   7.652  -8.061  0.00  0.00    -0.001 A 
ATOM     14  O   UNL     1       1.351   5.289  -3.250  0.00  0.00    -0.224 OA
ATOM     15  C   UNL     1       2.435   7.260  -3.704  0.00  0.00    +0.040 C 
ATOM     16  C   UNL     1       3.710   6.660  -3.205  0.00  0.00    +0.071 C 
ATOM     17  C   UNL     1       1.402   4.394  -6.016  0.00  0.00    +0.028 C 
ATOM     18  C   UNL     1       4.364   6.003  -4.391  0.00  0.00    +0.191 C 
ATOM     19  O   UNL     1       5.500   5.623  -4.089  0.00  0.00    -0.292 OA
ATOM     20  C   UNL     1       2.947   6.358  -6.275  0.00  0.00    +0.017 A 
ATOM     21  C   UNL     1       3.250   7.053  -8.833  0.00  0.00    +0.040 A 
ENDROOT
BRANCH   1  23
ATOM     22  C   UNL     1       4.560   5.000  -9.877  0.00  0.00    +0.253 C 
ATOM     23  O   UNL     1       4.507   4.985  -9.192  0.00  0.00    -0.468 OA
ENDBRANCH   1  23
TORSDOF 1
ENDMDL
MODEL 8
REMARK VINA RESULT:      -6.9      3.413      5.604
REMARK  Name = 
REMARK  1 active torsions:
REMARK  status: ('A' for Active; 'I' for Inactive)
REMARK    1  A    between atoms: O_2  and  C_3
REMARK                            x       y       z     vdW  Elec       q    Type
REMARK                         _______ _______ _______ _____ _____    ______ ____
ROOT
ATOM      1  C   UNL     1       3.608   7.349  -0.073  0.00  0.00    +0.172 A 
ATOM      2  C   UNL     1       2.805   6.483  -0.810  0.00  0.00    +0.169 A 
ATOM      3  O   UNL     1       2.117   5.378  -0.473  0.00  0.00    -0.469 OA
ATOM      4  C   UNL     1       1.472   4.777  -1.742  0.00  0.00    +0.228 C 
ATOM      5  C   UNL     1       2.424   5.575  -2.796  0.00  0.00    +0.094 C 
ATOM      6  C   UNL     1       1.743   5.773  -4.000  0.00  0.00    +0.148 C 
ATOM      7  C   UNL     1       2.664   6.609  -5.056  0.00  0.00    +0.090 C 
ATOM      8  N   UNL     1       3.570   5.369  -5.396  0.00  0.00    -0.270 NA
ATOM      9  C   UNL     1       3.799   4.516  -4.378  0.00  0.00    +0.073 C 
ATOM     10  C   UNL     1       4.704   6.052  -5.977  0.00  0.00    +0.090 C 
ATOM     11  C   UNL     1       3.798   7.245  -4.063  0.00  0.00    +0.045 C 
ATOM     12  C   UNL     1       3.146   7.796  -2.856  0.00  0.00    -0.021 A 
ATOM     13  C   UNL     1       3.910   8.675  -2.088  0.00  0.00    -0.001 A 
ATOM     14  O   UNL     1       1.324   4.622  -4.624  0.00  0.00    -0.224 OA
ATOM     15  C   UNL     1       0.524   6.688  -4.029  0.00  0.00    +0.040 C 
ATOM     16  C   UNL     1      -0.421   6.035  -3.074  0.00  0.00    +0.071 C 
ATOM     17  C   UNL     1       3.691   4.836  -2.950  0.00  0.00    +0.028 C 
ATOM     18  C   UNL     1       0.310   5.918  -1.764  0.00  0.00    +0.191 C 
ATOM     19  O   UNL     1      -0.463   5.532  -0.882  0.00  0.00    -0.292 OA
ATOM     20  C   UNL     1       2.481   6.855  -2.072  0.00  0.00    +0.017 A 
ATOM     21  C   UNL     1       4.108   8.480  -0.718  0.00  0.00    +0.040 A 
ENDROOT
BRANCH   1  23
ATOM     22  C   UNL     1       4.694   7.087   1.468  0.00  0.00    +0.253 C 
ATOM     23  O   UNL     1       4.241   6.790   1.046  0.00  0.00    -0.468 OA
ENDBRANCH   1  23
TORSDOF 1
ENDMDL
MODEL 9
REMARK VINA RESULT:      -6.7      2.775      4.691
REMARK  Name = 
REMARK  1 active torsions:
REMARK  status: ('A' for Active; 'I' for Inactive)
REMARK    1  A    between atoms: O_2  and  C_3
REMARK                            x       y       z     vdW  Elec       q    Type
REMARK                         _______ _______ _______ _____ _____    ______ ____
ROOT
ATOM      1  C   UNL     1       0.540   4.928  -5.891  0.00  0.00    +0.172 A 
ATOM      2  C   UNL     1       0.757   5.404  -4.600  0.00  0.00    +0.169 A 
ATOM      3  O   UNL     1      -0.042   6.031  -3.720  0.00  0.00    -0.469 OA
ATOM      4  C   UNL     1       0.778   6.401  -2.465  0.00  0.00    +0.228 C 
ATOM      5  C   UNL     1       2.235   6.241  -3.177  0.00  0.00    +0.094 C 
ATOM      6  C   UNL     1       3.195   5.883  -2.227  0.00  0.00    +0.148 C 
ATOM      7  C   UNL     1       4.655   5.675  -2.927  0.00  0.00    +0.090 C 
ATOM      8  N   UNL     1       4.909   7.220  -3.077  0.00  0.00    -0.270 NA
ATOM      9  C   UNL     1       3.817   7.971  -3.322  0.00  0.00    +0.073 C 
ATOM     10  C   UNL     1       5.953   7.195  -4.076  0.00  0.00    +0.090 C 
ATOM     11  C   UNL     1       4.239   5.526  -4.502  0.00  0.00    +0.045 C 
ATOM     12  C   UNL     1       3.081   4.615  -4.624  0.00  0.00    -0.021 A 
ATOM     13  C   UNL     1       2.828   4.106  -5.898  0.00  0.00    -0.001 A 
ATOM     14  O   UNL     1       3.346   6.774  -1.191  0.00  0.00    -0.224 OA
ATOM     15  C   UNL     1       3.104   4.521  -1.548  0.00  0.00    +0.040 C 
ATOM     16  C   UNL     1       1.777   4.566  -0.860  0.00  0.00    +0.071 C 
ATOM     17  C   UNL     1       2.555   7.489  -3.896  0.00  0.00    +0.028 C 
ATOM     18  C   UNL     1       0.756   4.865  -1.925  0.00  0.00    +0.191 C 
ATOM     19  O   UNL     1      -0.382   4.760  -1.458  0.00  0.00    -0.292 OA
ATOM     20  C   UNL     1       1.920   5.060  -3.996  0.00  0.00    +0.017 A 
ATOM     21  C   UNL     1       1.576   4.225  -6.507  0.00  0.00    +0.040 A 
ENDROOT
BRANCH   1  23
ATOM     22  C   UNL     1      -0.877   5.329  -7.097  0.00  0.00    +0.253 C 
ATOM     23  O   UNL     1      -0.450   5.593  -6.628  0.00  0.00    -0.468 OA
ENDBRANCH   1  23
TORSDOF 1
ENDMDL
