MODEL 1
REMARK VINA RESULT:     -10.6      0.000      0.000
REMARK  Name = 
REMARK  5 active torsions:
REMARK  status: ('A' for Active; 'I' for Inactive)
REMARK    1  A    between atoms: O_2  and  C_3
REMARK    2  A    between atoms: C_22  and  C_24
REMARK    3  A    between atoms: C_24  and  C_26
REMARK    4  A    between atoms: C_29  and  O_30
REMARK    5  A    between atoms: O_30  and  C_31
REMARK                            x       y       z     vdW  Elec       q    Type
REMARK                         _______ _______ _______ _____ _____    ______ ____
ROOT
ATOM      1  C   UNL     1       5.722   5.675 -10.980  0.00  0.00    +0.142 A 
ATOM      2  C   UNL     1       4.578   5.917 -10.293  0.00  0.00    +0.076 A 
ATOM      3  C   UNL     1       4.523   5.746  -8.835  0.00  0.00    +0.202 C 
ATOM      4  C   UNL     1       3.269   5.357  -8.194  0.00  0.00    +0.084 A 
ATOM      5  C   UNL     1       2.115   5.554  -8.943  0.00  0.00    +0.084 A 
ATOM      6  C   UNL     1       2.150   6.177 -10.273  0.00  0.00    +0.199 C 
ATOM      7  O   UNL     1       1.074   6.418 -10.875  0.00  0.00    -0.286 OA
ATOM      8  C   UNL     1       0.936   5.104  -8.356  0.00  0.00    +0.195 A 
ATOM      9  O   UNL     1      -0.218   5.390  -9.088  0.00  0.00    -0.287 OA
ATOM     10  C   UNL     1       0.898   4.770  -7.001  0.00  0.00    +0.021 A 
ATOM     11  C   UNL     1      -0.405   5.116  -6.333  0.00  0.00    +0.067 C 
ATOM     12  C   UNL     1      -0.028   6.412  -5.637  0.00  0.00    +0.186 C 
ATOM     13  C   UNL     1       0.783   6.272  -4.437  0.00  0.00    +0.072 C 
ATOM     14  C   UNL     1       1.848   4.981  -4.662  0.00  0.00    +0.146 C 
ATOM     15  O   UNL     1       0.572   7.314  -6.515  0.00  0.00    -0.218 OA
ATOM     16  C   UNL     1       1.989   5.269  -6.281  0.00  0.00    +0.043 A 
ATOM     17  C   UNL     1       3.200   5.045  -6.836  0.00  0.00    +0.197 A 
ATOM     18  O   UNL     1       4.335   5.284  -6.112  0.00  0.00    -0.287 OA
ATOM     19  O   UNL     1       5.591   5.577  -8.216  0.00  0.00    -0.286 OA
ATOM     20  C   UNL     1       3.413   6.088 -11.020  0.00  0.00    +0.045 A 
ATOM     21  C   UNL     1       3.421   5.961 -12.395  0.00  0.00    +0.003 A 
ATOM     22  C   UNL     1       4.500   5.385 -13.056  0.00  0.00    +0.003 A 
ATOM     23  C   UNL     1       5.695   5.415 -12.348  0.00  0.00    +0.037 A 
ENDROOT
BRANCH   1  25
ATOM     24  C   UNL     1       7.734   6.501 -10.629  0.00  0.00    +0.252 C 
ATOM     25  O   UNL     1       6.916   6.018 -10.340  0.00  0.00    -0.471 OA
ENDBRANCH   1  25
BRANCH  12  26
ATOM     26  C   UNL     1      -1.321   7.060  -5.246  0.00  0.00    +0.211 C 
ATOM     27  O   UNL     1      -2.295   6.616  -5.853  0.00  0.00    -0.291 OA
BRANCH  26  28
ATOM     28  C   UNL     1      -1.536   7.098  -3.761  0.00  0.00    +0.248 C 
ATOM     29  O   UNL     1      -2.071   8.310  -3.337  0.00  0.00    -0.212 OA
ENDBRANCH  26  28
ENDBRANCH  12  26
BRANCH  14  30
ATOM     30  O   UNL     1       3.060   5.884  -4.353  0.00  0.00    -0.328 OA
BRANCH  30  31
ATOM     31  C   UNL     1       2.965   5.982  -2.796  0.00  0.00    +0.237 C 
ATOM     32  O   UNL     1       3.825   7.284  -2.705  0.00  0.00    -0.330 OA
ATOM     33  C   UNL     1       3.453   7.696  -1.273  0.00  0.00    +0.150 C 
ATOM     34  C   UNL     1       2.065   6.806  -1.083  0.00  0.00    +0.035 C 
ATOM     35  C   UNL     1       4.594   6.663  -0.446  0.00  0.00    +0.196 C 
ATOM     36  O   UNL     1       3.669   6.583   0.778  0.00  0.00    -0.219 OA
ATOM     37  C   UNL     1       4.288   5.008  -0.882  0.00  0.00    +0.130 C 
ATOM     38  N   UNL     1       2.715   4.953  -0.750  0.00  0.00    -0.130 NA
ATOM     39  C   UNL     1       4.420   5.148  -2.531  0.00  0.00    +0.083 C 
ENDBRANCH  30  31
ENDBRANCH  14  30
TORSDOF 5
ENDMDL
MODEL 2
REMARK VINA RESULT:      -9.7      0.933      1.049
REMARK  Name = 
REMARK  5 active torsions:
REMARK  status: ('A' for Active; 'I' for Inactive)
REMARK    1  A    between atoms: O_2  and  C_3
REMARK    2  A    between atoms: C_22  and  C_24
REMARK    3  A    between atoms: C_24  and  C_26
REMARK    4  A    between atoms: C_29  and  O_30
REMARK    5  A    between atoms: O_30  and  C_31
REMARK                            x       y       z     vdW  Elec       q    Type
REMARK                         _______ _______ _______ _____ _____    ______ ____
ROOT
ATOM      1  C   UNL     1       4.458   5.973 -10.978  0.00  0.00    +0.142 A 
ATOM      2  C   UNL     1       3.412   6.167 -10.138  0.00  0.00    +0.076 A 
ATOM      3  C   UNL     1       3.563   5.977  -8.689  0.00  0.00    +0.202 C 
ATOM      4  C   UNL     1       2.421   5.538  -7.889  0.00  0.00    +0.084 A 
ATOM      5  C   UNL     1       1.170   5.702  -8.470  0.00  0.00    +0.084 A 
ATOM      6  C   UNL     1       1.002   6.341  -9.783  0.00  0.00    +0.199 C 
ATOM      7  O   UNL     1      -0.154   6.551 -10.229  0.00  0.00    -0.286 OA
ATOM      8  C   UNL     1       0.098   5.205  -7.736  0.00  0.00    +0.195 A 
ATOM      9  O   UNL     1      -1.155   5.458  -8.298  0.00  0.00    -0.287 OA
ATOM     10  C   UNL     1       0.256   4.855  -6.394  0.00  0.00    +0.021 A 
ATOM     11  C   UNL     1      -0.954   5.147  -5.548  0.00  0.00    +0.067 C 
ATOM     12  C   UNL     1      -0.528   6.448  -4.891  0.00  0.00    +0.186 C 
ATOM     13  C   UNL     1       0.443   6.323  -3.814  0.00  0.00    +0.072 C 
ATOM     14  C   UNL     1       1.510   5.073  -4.202  0.00  0.00    +0.146 C 
ATOM     15  O   UNL     1      -0.085   7.380  -5.827  0.00  0.00    -0.218 OA
ATOM     16  C   UNL     1       1.418   5.383  -5.821  0.00  0.00    +0.043 A 
ATOM     17  C   UNL     1       2.549   5.208  -6.540  0.00  0.00    +0.197 A 
ATOM     18  O   UNL     1       3.764   5.479  -5.973  0.00  0.00    -0.287 OA
ATOM     19  O   UNL     1       4.709   5.840  -8.224  0.00  0.00    -0.286 OA
ATOM     20  C   UNL     1       2.153   6.305 -10.697  0.00  0.00    +0.045 A 
ATOM     21  C   UNL     1       1.977   6.193 -12.061  0.00  0.00    +0.003 A 
ATOM     22  C   UNL     1       2.974   5.663 -12.872  0.00  0.00    +0.003 A 
ATOM     23  C   UNL     1       4.253   5.727 -12.333  0.00  0.00    +0.037 A 
ENDROOT
BRANCH   1  25
ATOM     24  C   UNL     1       6.627   6.351 -10.896  0.00  0.00    +0.252 C 
ATOM     25  O   UNL     1       5.716   6.351 -10.501  0.00  0.00    -0.471 OA
ENDBRANCH   1  25
BRANCH  12  26
ATOM     26  C   UNL     1      -1.777   7.045  -4.317  0.00  0.00    +0.211 C 
ATOM     27  O   UNL     1      -2.469   7.630  -5.149  0.00  0.00    -0.291 OA
BRANCH  26  28
ATOM     28  C   UNL     1      -2.568   6.074  -3.489  0.00  0.00    +0.248 C 
ATOM     29  O   UNL     1      -3.709   6.654  -2.944  0.00  0.00    -0.212 OA
ENDBRANCH  26  28
ENDBRANCH  12  26
BRANCH  14  30
ATOM     30  O   UNL     1       2.722   6.014  -4.048  0.00  0.00    -0.328 OA
BRANCH  30  31
ATOM     31  C   UNL     1       2.806   6.132  -2.491  0.00  0.00    +0.237 C 
ATOM     32  O   UNL     1       3.408   7.575  -2.513  0.00  0.00    -0.330 OA
ATOM     33  C   UNL     1       3.146   7.946  -1.045  0.00  0.00    +0.150 C 
ATOM     34  C   UNL     1       1.987   6.816  -0.679  0.00  0.00    +0.035 C 
ATOM     35  C   UNL     1       4.556   7.168  -0.370  0.00  0.00    +0.196 C 
ATOM     36  O   UNL     1       3.824   6.946   0.962  0.00  0.00    -0.219 OA
ATOM     37  C   UNL     1       4.519   5.475  -0.760  0.00  0.00    +0.130 C 
ATOM     38  N   UNL     1       3.014   5.127  -0.429  0.00  0.00    -0.130 NA
ATOM     39  C   UNL     1       4.414   5.595  -2.413  0.00  0.00    +0.083 C 
ENDBRANCH  30  31
ENDBRANCH  14  30
TORSDOF 5
ENDMDL
MODEL 3
REMARK VINA RESULT:      -9.5      2.506      7.862
REMARK  Name = 
REMARK  5 active torsions:
REMARK  status: ('A' for Active; 'I' for Inactive)
REMARK    1  A    between atoms: O_2  and  C_3
REMARK    2  A    between atoms: C_22  and  C_24
REMARK    3  A    between atoms: C_24  and  C_26
REMARK    4  A    between atoms: C_29  and  O_30
REMARK    5  A    between atoms: O_30  and  C_31
REMARK                            x       y       z     vdW  Elec       q    Type
REMARK                         _______ _______ _______ _____ _____    ______ ____
ROOT
ATOM      1  C   UNL     1       2.498   5.695  -2.355  0.00  0.00    +0.142 A 
ATOM      2  C   UNL     1       2.055   5.496  -3.621  0.00  0.00    +0.076 A 
ATOM      3  C   UNL     1       2.923   5.763  -4.775  0.00  0.00    +0.202 C 
ATOM      4  C   UNL     1       2.337   6.189  -6.044  0.00  0.00    +0.084 A 
ATOM      5  C   UNL     1       0.979   5.941  -6.203  0.00  0.00    +0.084 A 
ATOM      6  C   UNL     1       0.196   5.232  -5.183  0.00  0.00    +0.199 C 
ATOM      7  O   UNL     1      -1.008   4.949  -5.408  0.00  0.00    -0.286 OA
ATOM      8  C   UNL     1       0.415   6.425  -7.379  0.00  0.00    +0.195 A 
ATOM      9  O   UNL     1      -0.928   6.089  -7.556  0.00  0.00    -0.287 OA
ATOM     10  C   UNL     1       1.224   6.847  -8.436  0.00  0.00    +0.021 A 
ATOM     11  C   UNL     1       0.650   6.543  -9.793  0.00  0.00    +0.067 C 
ATOM     12  C   UNL     1       1.437   5.296 -10.156  0.00  0.00    +0.186 C 
ATOM     13  C   UNL     1       2.816   5.517 -10.567  0.00  0.00    +0.072 C 
ATOM     14  C   UNL     1       3.444   6.793  -9.657  0.00  0.00    +0.146 C 
ATOM     15  O   UNL     1       1.388   4.340  -9.144  0.00  0.00    -0.218 OA
ATOM     16  C   UNL     1       2.546   6.400  -8.329  0.00  0.00    +0.043 A 
ATOM     17  C   UNL     1       3.125   6.590  -7.123  0.00  0.00    +0.197 A 
ATOM     18  O   UNL     1       4.472   6.402  -6.979  0.00  0.00    -0.287 OA
ATOM     19  O   UNL     1       4.133   5.974  -4.572  0.00  0.00    -0.286 OA
ATOM     20  C   UNL     1       0.700   5.274  -3.802  0.00  0.00    +0.045 A 
ATOM     21  C   UNL     1      -0.165   5.311  -2.727  0.00  0.00    +0.003 A 
ATOM     22  C   UNL     1       0.231   5.845  -1.506  0.00  0.00    +0.003 A 
ATOM     23  C   UNL     1       1.605   5.865  -1.301  0.00  0.00    +0.037 A 
ENDROOT
BRANCH   1  25
ATOM     24  C   UNL     1       4.325   4.977  -1.355  0.00  0.00    +0.252 C 
ATOM     25  O   UNL     1       3.842   5.398  -2.114  0.00  0.00    -0.471 OA
ENDBRANCH   1  25
BRANCH  12  26
ATOM     26  C   UNL     1       0.708   4.673 -11.308  0.00  0.00    +0.211 C 
ATOM     27  O   UNL     1      -0.508   4.601 -11.138  0.00  0.00    -0.291 OA
BRANCH  26  28
ATOM     28  C   UNL     1       1.071   5.278 -12.633  0.00  0.00    +0.248 C 
ATOM     29  O   UNL     1       0.734   4.452 -13.700  0.00  0.00    -0.212 OA
ENDBRANCH  26  28
ENDBRANCH  12  26
BRANCH  14  30
ATOM     30  O   UNL     1       4.617   5.916  -9.175  0.00  0.00    -0.328 OA
BRANCH  30  31
ATOM     31  C   UNL     1       5.732   6.333 -10.188  0.00  0.00    +0.237 C 
ATOM     32  O   UNL     1       5.563   5.063 -11.083  0.00  0.00    -0.330 OA
ATOM     33  C   UNL     1       6.315   5.565 -12.325  0.00  0.00    +0.150 C 
ATOM     34  C   UNL     1       6.280   7.197 -12.025  0.00  0.00    +0.035 C 
ATOM     35  C   UNL     1       7.927   5.186 -11.770  0.00  0.00    +0.196 C 
ATOM     36  O   UNL     1       8.511   6.326 -12.618  0.00  0.00    -0.219 OA
ATOM     37  C   UNL     1       8.235   6.031 -10.283  0.00  0.00    +0.130 C 
ATOM     38  N   UNL     1       7.685   7.468 -10.640  0.00  0.00    -0.130 NA
ATOM     39  C   UNL     1       6.954   5.461  -9.394  0.00  0.00    +0.083 C 
ENDBRANCH  30  31
ENDBRANCH  14  30
TORSDOF 5
ENDMDL
MODEL 4
REMARK VINA RESULT:      -9.0      3.035      6.065
REMARK  Name = 
REMARK  5 active torsions:
REMARK  status: ('A' for Active; 'I' for Inactive)
REMARK    1  A    between atoms: O_2  and  C_3
REMARK    2  A    between atoms: C_22  and  C_24
REMARK    3  A    between atoms: C_24  and  C_26
REMARK    4  A    between atoms: C_29  and  O_30
REMARK    5  A    between atoms: O_30  and  C_31
REMARK                            x       y       z     vdW  Elec       q    Type
REMARK                         _______ _______ _______ _____ _____    ______ ____
ROOT
ATOM      1  C   UNL     1       1.015   5.998  -6.736  0.00  0.00    +0.142 A 
ATOM      2  C   UNL     1       0.350   6.353  -5.609  0.00  0.00    +0.076 A 
ATOM      3  C   UNL     1       1.064   6.542  -4.339  0.00  0.00    +0.202 C 
ATOM      4  C   UNL     1       0.385   6.270  -3.074  0.00  0.00    +0.084 A 
ATOM      5  C   UNL     1      -1.003   6.229  -3.124  0.00  0.00    +0.084 A 
ATOM      6  C   UNL     1      -1.744   6.508  -4.362  0.00  0.00    +0.199 C 
ATOM      7  O   UNL     1      -3.000   6.548  -4.340  0.00  0.00    -0.286 OA
ATOM      8  C   UNL     1      -1.636   5.888  -1.933  0.00  0.00    +0.195 A 
ATOM      9  O   UNL     1      -3.030   5.936  -1.984  0.00  0.00    -0.287 OA
ATOM     10  C   UNL     1      -0.933   5.894  -0.726  0.00  0.00    +0.021 A 
ATOM     11  C   UNL     1      -1.760   6.339   0.450  0.00  0.00    +0.067 C 
ATOM     12  C   UNL     1      -1.303   7.780   0.585  0.00  0.00    +0.186 C 
ATOM     13  C   UNL     1       0.012   7.973   1.180  0.00  0.00    +0.072 C 
ATOM     14  C   UNL     1       1.014   6.712   0.674  0.00  0.00    +0.146 C 
ATOM     15  O   UNL     1      -1.383   8.464  -0.627  0.00  0.00    -0.218 OA
ATOM     16  C   UNL     1       0.273   6.600  -0.797  0.00  0.00    +0.043 A 
ATOM     17  C   UNL     1       1.059   6.297  -1.854  0.00  0.00    +0.197 A 
ATOM     18  O   UNL     1       2.348   6.754  -1.896  0.00  0.00    -0.287 OA
ATOM     19  O   UNL     1       2.308   6.575  -4.357  0.00  0.00    -0.286 OA
ATOM     20  C   UNL     1      -1.033   6.291  -5.630  0.00  0.00    +0.045 A 
ATOM     21  C   UNL     1      -1.696   5.831  -6.750  0.00  0.00    +0.003 A 
ATOM     22  C   UNL     1      -1.017   5.157  -7.759  0.00  0.00    +0.003 A 
ATOM     23  C   UNL     1       0.348   5.409  -7.807  0.00  0.00    +0.037 A 
ENDROOT
BRANCH   1  25
ATOM     24  C   UNL     1       2.843   6.772  -7.692  0.00  0.00    +0.252 C 
ATOM     25  O   UNL     1       2.294   6.537  -6.898  0.00  0.00    -0.471 OA
ENDBRANCH   1  25
BRANCH  12  26
ATOM     26  C   UNL     1      -2.311   8.449   1.469  0.00  0.00    +0.211 C 
ATOM     27  O   UNL     1      -3.124   7.669   1.963  0.00  0.00    -0.291 OA
BRANCH  26  28
ATOM     28  C   UNL     1      -1.689   9.357   2.490  0.00  0.00    +0.248 C 
ATOM     29  O   UNL     1      -1.803  10.699   2.142  0.00  0.00    -0.212 OA
ENDBRANCH  26  28
ENDBRANCH  12  26
BRANCH  14  30
ATOM     30  O   UNL     1       2.050   7.713   0.122  0.00  0.00    -0.328 OA
BRANCH  30  31
ATOM     31  C   UNL     1       2.954   7.924   1.380  0.00  0.00    +0.237 C 
ATOM     32  O   UNL     1       3.168   9.450   1.120  0.00  0.00    -0.330 OA
ATOM     33  C   UNL     1       3.696   9.840   2.508  0.00  0.00    +0.150 C 
ATOM     34  C   UNL     1       3.161   8.534   3.382  0.00  0.00    +0.035 C 
ATOM     35  C   UNL     1       5.359   9.374   2.248  0.00  0.00    +0.196 C 
ATOM     36  O   UNL     1       5.537   9.088   3.747  0.00  0.00    -0.219 OA
ATOM     37  C   UNL     1       5.423   7.686   1.840  0.00  0.00    +0.130 C 
ATOM     38  N   UNL     1       4.444   7.082   2.922  0.00  0.00    -0.130 NA
ATOM     39  C   UNL     1       4.406   7.700   0.528  0.00  0.00    +0.083 C 
ENDBRANCH  30  31
ENDBRANCH  14  30
TORSDOF 5
ENDMDL
MODEL 5
REMARK VINA RESULT:      -8.9      2.888      9.147
REMARK  Name = 
REMARK  5 active torsions:
REMARK  status: ('A' for Active; 'I' for Inactive)
REMARK    1  A    between atoms: O_2  and  C_3
REMARK    2  A    between atoms: C_22  and  C_24
REMARK    3  A    between atoms: C_24  and  C_26
REMARK    4  A    between atoms: C_29  and  O_30
REMARK    5  A    between atoms: O_30  and  C_31
REMARK                            x       y       z     vdW  Elec       q    Type
REMARK                         _______ _______ _______ _____ _____    ______ ____
ROOT
ATOM      1  C   UNL     1      -1.115   5.770  -3.949  0.00  0.00    +0.142 A 
ATOM      2  C   UNL     1       0.006   5.971  -4.683  0.00  0.00    +0.076 A 
ATOM      3  C   UNL     1       0.020   5.704  -6.128  0.00  0.00    +0.202 C 
ATOM      4  C   UNL     1       1.257   5.280  -6.779  0.00  0.00    +0.084 A 
ATOM      5  C   UNL     1       2.431   5.530  -6.079  0.00  0.00    +0.084 A 
ATOM      6  C   UNL     1       2.432   6.239  -4.792  0.00  0.00    +0.199 C 
ATOM      7  O   UNL     1       3.523   6.523  -4.238  0.00  0.00    -0.286 OA
ATOM      8  C   UNL     1       3.596   5.047  -6.669  0.00  0.00    +0.195 A 
ATOM      9  O   UNL     1       4.769   5.385  -5.992  0.00  0.00    -0.287 OA
ATOM     10  C   UNL     1       3.597   4.625  -8.000  0.00  0.00    +0.021 A 
ATOM     11  C   UNL     1       4.878   4.932  -8.727  0.00  0.00    +0.067 C 
ATOM     12  C   UNL     1       4.472   6.178  -9.495  0.00  0.00    +0.186 C 
ATOM     13  C   UNL     1       3.628   5.957 -10.659  0.00  0.00    +0.072 C 
ATOM     14  C   UNL     1       2.578   4.679 -10.319  0.00  0.00    +0.146 C 
ATOM     15  O   UNL     1       3.894   7.133  -8.661  0.00  0.00    -0.218 OA
ATOM     16  C   UNL     1       2.482   5.071  -8.719  0.00  0.00    +0.043 A 
ATOM     17  C   UNL     1       1.289   4.879  -8.115  0.00  0.00    +0.197 A 
ATOM     18  O   UNL     1       0.132   5.066  -8.819  0.00  0.00    -0.287 OA
ATOM     19  O   UNL     1      -1.064   5.492  -6.703  0.00  0.00    -0.286 OA
ATOM     20  C   UNL     1       1.191   6.194  -4.003  0.00  0.00    +0.045 A 
ATOM     21  C   UNL     1       1.224   6.157  -2.624  0.00  0.00    +0.003 A 
ATOM     22  C   UNL     1       0.168   5.621  -1.896  0.00  0.00    +0.003 A 
ATOM     23  C   UNL     1      -1.047   5.600  -2.569  0.00  0.00    +0.037 A 
ENDROOT
BRANCH   1  25
ATOM     24  C   UNL     1      -3.138   6.570  -4.297  0.00  0.00    +0.252 C 
ATOM     25  O   UNL     1      -2.329   6.066  -4.575  0.00  0.00    -0.471 OA
ENDBRANCH   1  25
BRANCH  12  26
ATOM     26  C   UNL     1       5.750   6.804  -9.965  0.00  0.00    +0.211 C 
ATOM     27  O   UNL     1       6.703   6.026  -9.972  0.00  0.00    -0.291 OA
BRANCH  26  28
ATOM     28  C   UNL     1       5.601   7.546 -11.261  0.00  0.00    +0.248 C 
ATOM     29  O   UNL     1       6.622   8.470 -11.459  0.00  0.00    -0.212 OA
ENDBRANCH  26  28
ENDBRANCH  12  26
BRANCH  14  30
ATOM     30  O   UNL     1       1.352   5.555 -10.650  0.00  0.00    -0.328 OA
BRANCH  30  31
ATOM     31  C   UNL     1       1.548   5.766 -12.187  0.00  0.00    +0.237 C 
ATOM     32  O   UNL     1       0.413   6.834 -12.307  0.00  0.00    -0.330 OA
ATOM     33  C   UNL     1       0.792   7.407 -13.680  0.00  0.00    +0.150 C 
ATOM     34  C   UNL     1       2.363   6.880 -13.774  0.00  0.00    +0.035 C 
ATOM     35  C   UNL     1       0.002   6.189 -14.650  0.00  0.00    +0.196 C 
ATOM     36  O   UNL     1       1.016   6.401 -15.784  0.00  0.00    -0.219 OA
ATOM     37  C   UNL     1       0.656   4.628 -14.254  0.00  0.00    +0.130 C 
ATOM     38  N   UNL     1       2.202   4.950 -14.239  0.00  0.00    -0.130 NA
ATOM     39  C   UNL     1       0.359   4.633 -12.620  0.00  0.00    +0.083 C 
ENDBRANCH  30  31
ENDBRANCH  14  30
TORSDOF 5
ENDMDL
