MODEL 1
REMARK VINA RESULT:      -8.4      0.000      0.000
REMARK  Name = 
REMARK  2 active torsions:
REMARK  status: ('A' for Active; 'I' for Inactive)
REMARK    1  A    between atoms: C_25  and  C_26
REMARK    2  A    between atoms: C_26  and  C_28
REMARK                            x       y       z     vdW  Elec       q    Type
REMARK                         _______ _______ _______ _____ _____    ______ ____
ROOT
ATOM      1  C   UNL     1       3.842   8.445  -2.280  0.00  0.00    +0.061 C 
ATOM      2  C   UNL     1       3.238   7.162  -2.367  0.00  0.00    +0.188 C 
ATOM      3  O   UNL     1       2.140   7.259  -3.178  0.00  0.00    -0.330 OA
ATOM      4  C   UNL     1       1.820   6.042  -3.692  0.00  0.00    +0.173 C 
ATOM      5  C   UNL     1       3.044   5.102  -3.044  0.00  0.00    +0.149 C 
ATOM      6  C   UNL     1       3.592   4.537  -4.533  0.00  0.00    +0.033 C 
ATOM      7  C   UNL     1       3.441   5.997  -5.256  0.00  0.00    +0.005 C 
ATOM      8  C   UNL     1       3.352   5.302  -6.814  0.00  0.00    +0.004 C 
ATOM      9  C   UNL     1       3.189   6.841  -7.494  0.00  0.00    +0.038 C 
ATOM     10  C   UNL     1       1.444   6.880  -7.445  0.00  0.00    +0.153 C 
ATOM     11  C   UNL     1       1.348   6.946  -5.786  0.00  0.00    +0.036 C 
ATOM     12  O   UNL     1       1.267   5.351  -7.564  0.00  0.00    -0.223 OA
ATOM     13  C   UNL     1       3.286   6.366  -9.023  0.00  0.00    +0.036 C 
ATOM     14  C   UNL     1       4.036   5.134  -9.174  0.00  0.00    -0.038 C 
ATOM     15  C   UNL     1       4.216   4.811 -10.460  0.00  0.00    +0.034 C 
ATOM     16  C   UNL     1       4.096   5.805 -11.539  0.00  0.00    +0.195 C 
ATOM     17  C   UNL     1       4.191   7.190 -11.051  0.00  0.00    +0.038 C 
ATOM     18  O   UNL     1       4.091   5.502 -12.752  0.00  0.00    -0.287 OA
ATOM     19  C   UNL     1       5.136   4.659  -8.278  0.00  0.00    +0.022 C 
ATOM     20  C   UNL     1       2.006   6.403  -9.729  0.00  0.00    +0.009 C 
ATOM     21  C   UNL     1       4.131   7.392  -9.732  0.00  0.00    -0.020 C 
ATOM     22  C   UNL     1       4.959   5.370  -6.972  0.00  0.00    +0.004 C 
ATOM     23  C   UNL     1       1.819   5.823  -5.102  0.00  0.00    +0.034 C 
ATOM     24  C   UNL     1       1.452   4.429  -5.367  0.00  0.00    +0.003 C 
ATOM     25  O   UNL     1       4.045   6.295  -3.077  0.00  0.00    -0.334 OA
ATOM     26  C   UNL     1       2.963   6.674  -0.978  0.00  0.00    +0.061 C 
ENDROOT
BRANCH   4  27
ATOM     27  C   UNL     1       0.656   5.514  -2.909  0.00  0.00    +0.210 C 
ATOM     28  O   UNL     1       0.769   4.545  -2.157  0.00  0.00    -0.291 OA
BRANCH  27  29
ATOM     29  C   UNL     1      -0.725   6.023  -3.050  0.00  0.00    +0.248 C 
ATOM     30  O   UNL     1      -1.698   5.096  -2.734  0.00  0.00    -0.212 OA
ENDBRANCH  27  29
ENDBRANCH   4  27
TORSDOF 2
ENDMDL
MODEL 2
REMARK VINA RESULT:      -8.0      1.817      6.863
REMARK  Name = 
REMARK  2 active torsions:
REMARK  status: ('A' for Active; 'I' for Inactive)
REMARK    1  A    between atoms: C_25  and  C_26
REMARK    2  A    between atoms: C_26  and  C_28
REMARK                            x       y       z     vdW  Elec       q    Type
REMARK                         _______ _______ _______ _____ _____    ______ ____
ROOT
ATOM      1  C   UNL     1       4.371   4.078  -9.349  0.00  0.00    +0.061 C 
ATOM      2  C   UNL     1       3.383   5.097  -9.286  0.00  0.00    +0.188 C 
ATOM      3  O   UNL     1       2.364   4.659  -8.485  0.00  0.00    -0.330 OA
ATOM      4  C   UNL     1       1.661   5.712  -7.992  0.00  0.00    +0.173 C 
ATOM      5  C   UNL     1       2.525   6.991  -8.641  0.00  0.00    +0.149 C 
ATOM      6  C   UNL     1       2.840   7.719  -7.155  0.00  0.00    +0.033 C 
ATOM      7  C   UNL     1       3.159   6.295  -6.413  0.00  0.00    +0.005 C 
ATOM      8  C   UNL     1       2.829   6.941  -4.866  0.00  0.00    +0.004 C 
ATOM      9  C   UNL     1       3.163   5.438  -4.165  0.00  0.00    +0.038 C 
ATOM     10  C   UNL     1       1.525   4.837  -4.230  0.00  0.00    +0.153 C 
ATOM     11  C   UNL     1       1.478   4.726  -5.889  0.00  0.00    +0.036 C 
ATOM     12  O   UNL     1       0.862   6.228  -4.135  0.00  0.00    -0.223 OA
ATOM     13  C   UNL     1       3.079   5.936  -2.643  0.00  0.00    +0.036 C 
ATOM     14  C   UNL     1       3.389   7.345  -2.502  0.00  0.00    -0.038 C 
ATOM     15  C   UNL     1       3.438   7.723  -1.219  0.00  0.00    +0.034 C 
ATOM     16  C   UNL     1       3.630   6.754  -0.127  0.00  0.00    +0.195 C 
ATOM     17  C   UNL     1       4.175   5.470  -0.594  0.00  0.00    +0.038 C 
ATOM     18  O   UNL     1       3.511   7.053   1.082  0.00  0.00    -0.287 OA
ATOM     19  C   UNL     1       4.289   8.142  -3.394  0.00  0.00    +0.022 C 
ATOM     20  C   UNL     1       1.871   5.494  -1.948  0.00  0.00    +0.009 C 
ATOM     21  C   UNL     1       4.201   5.245  -1.911  0.00  0.00    -0.020 C 
ATOM     22  C   UNL     1       4.369   7.398  -4.691  0.00  0.00    +0.004 C 
ATOM     23  C   UNL     1       1.570   5.934  -6.585  0.00  0.00    +0.034 C 
ATOM     24  C   UNL     1       0.769   7.137  -6.344  0.00  0.00    +0.003 C 
ATOM     25  O   UNL     1       3.858   6.186  -8.581  0.00  0.00    -0.334 OA
ATOM     26  C   UNL     1       2.985   5.456 -10.685  0.00  0.00    +0.061 C 
ENDROOT
BRANCH   4  27
ATOM     27  C   UNL     1       0.400   5.828  -8.793  0.00  0.00    +0.210 C 
ATOM     28  O   UNL     1      -0.532   5.036  -8.648  0.00  0.00    -0.291 OA
BRANCH  27  29
ATOM     29  C   UNL     1       0.208   6.809  -9.883  0.00  0.00    +0.248 C 
ATOM     30  O   UNL     1      -0.454   6.302 -10.982  0.00  0.00    -0.212 OA
ENDBRANCH  27  29
ENDBRANCH   4  27
TORSDOF 2
ENDMDL
MODEL 3
REMARK VINA RESULT:      -7.8      1.819      6.858
REMARK  Name = 
REMARK  2 active torsions:
REMARK  status: ('A' for Active; 'I' for Inactive)
REMARK    1  A    between atoms: C_25  and  C_26
REMARK    2  A    between atoms: C_26  and  C_28
REMARK                            x       y       z     vdW  Elec       q    Type
REMARK                         _______ _______ _______ _____ _____    ______ ____
ROOT
ATOM      1  C   UNL     1       4.863   4.637 -10.217  0.00  0.00    +0.061 C 
ATOM      2  C   UNL     1       3.800   5.572 -10.091  0.00  0.00    +0.188 C 
ATOM      3  O   UNL     1       2.782   4.975  -9.399  0.00  0.00    -0.330 OA
ATOM      4  C   UNL     1       1.981   5.913  -8.828  0.00  0.00    +0.173 C 
ATOM      5  C   UNL     1       2.776   7.314  -9.282  0.00  0.00    +0.149 C 
ATOM      6  C   UNL     1       2.971   7.884  -7.709  0.00  0.00    +0.033 C 
ATOM      7  C   UNL     1       3.361   6.409  -7.117  0.00  0.00    +0.005 C 
ATOM      8  C   UNL     1       2.916   6.846  -5.526  0.00  0.00    +0.004 C 
ATOM      9  C   UNL     1       3.329   5.299  -4.983  0.00  0.00    +0.038 C 
ATOM     10  C   UNL     1       1.744   4.598  -5.201  0.00  0.00    +0.153 C 
ATOM     11  C   UNL     1       1.779   4.678  -6.862  0.00  0.00    +0.036 C 
ATOM     12  O   UNL     1       0.976   5.920  -4.984  0.00  0.00    -0.223 OA
ATOM     13  C   UNL     1       3.141   5.609  -3.421  0.00  0.00    +0.036 C 
ATOM     14  C   UNL     1       3.339   7.010  -3.105  0.00  0.00    -0.038 C 
ATOM     15  C   UNL     1       3.303   7.238  -1.787  0.00  0.00    +0.034 C 
ATOM     16  C   UNL     1       3.518   6.165  -0.803  0.00  0.00    +0.195 C 
ATOM     17  C   UNL     1       4.176   4.983  -1.383  0.00  0.00    +0.038 C 
ATOM     18  O   UNL     1       3.324   6.311   0.424  0.00  0.00    -0.287 OA
ATOM     19  C   UNL     1       4.216   7.965  -3.854  0.00  0.00    +0.022 C 
ATOM     20  C   UNL     1       1.939   5.008  -2.845  0.00  0.00    +0.009 C 
ATOM     21  C   UNL     1       4.278   4.916  -2.714  0.00  0.00    -0.020 C 
ATOM     22  C   UNL     1       4.409   7.385  -5.220  0.00  0.00    +0.004 C 
ATOM     23  C   UNL     1       1.812   5.963  -7.412  0.00  0.00    +0.034 C 
ATOM     24  C   UNL     1       0.914   7.071  -7.078  0.00  0.00    +0.003 C 
ATOM     25  O   UNL     1       4.161   6.601  -9.244  0.00  0.00    -0.334 OA
ATOM     26  C   UNL     1       3.438   6.063 -11.459  0.00  0.00    +0.061 C 
ENDROOT
BRANCH   4  27
ATOM     27  C   UNL     1       0.752   6.034  -9.676  0.00  0.00    +0.210 C 
ATOM     28  O   UNL     1       0.360   7.124 -10.093  0.00  0.00    -0.291 OA
BRANCH  27  29
ATOM     29  C   UNL     1      -0.144   4.899  -9.987  0.00  0.00    +0.248 C 
ATOM     30  O   UNL     1       0.004   4.405 -11.268  0.00  0.00    -0.212 OA
ENDBRANCH  27  29
ENDBRANCH   4  27
TORSDOF 2
ENDMDL
MODEL 4
REMARK VINA RESULT:      -7.7      2.223      7.538
REMARK  Name = 
REMARK  2 active torsions:
REMARK  status: ('A' for Active; 'I' for Inactive)
REMARK    1  A    between atoms: C_25  and  C_26
REMARK    2  A    between atoms: C_26  and  C_28
REMARK                            x       y       z     vdW  Elec       q    Type
REMARK                         _______ _______ _______ _____ _____    ______ ____
ROOT
ATOM      1  C   UNL     1       2.788   5.550 -13.275  0.00  0.00    +0.061 C 
ATOM      2  C   UNL     1       3.926   5.611 -12.426  0.00  0.00    +0.188 C 
ATOM      3  O   UNL     1       3.840   6.750 -11.672  0.00  0.00    -0.330 OA
ATOM      4  C   UNL     1       4.584   6.629 -10.542  0.00  0.00    +0.173 C 
ATOM      5  C   UNL     1       5.155   5.066 -10.714  0.00  0.00    +0.149 C 
ATOM      6  C   UNL     1       4.544   4.527  -9.240  0.00  0.00    +0.033 C 
ATOM      7  C   UNL     1       3.126   5.326  -9.422  0.00  0.00    +0.005 C 
ATOM      8  C   UNL     1       2.822   5.326  -7.741  0.00  0.00    +0.004 C 
ATOM      9  C   UNL     1       1.374   6.160  -8.002  0.00  0.00    +0.038 C 
ATOM     10  C   UNL     1       2.054   7.761  -7.848  0.00  0.00    +0.153 C 
ATOM     11  C   UNL     1       2.952   7.671  -9.245  0.00  0.00    +0.036 C 
ATOM     12  O   UNL     1       3.189   7.339  -6.890  0.00  0.00    -0.223 OA
ATOM     13  C   UNL     1       0.851   6.073  -6.488  0.00  0.00    +0.036 C 
ATOM     14  C   UNL     1       1.386   4.927  -5.780  0.00  0.00    -0.038 C 
ATOM     15  C   UNL     1       0.851   4.793  -4.561  0.00  0.00    +0.034 C 
ATOM     16  C   UNL     1      -0.429   5.425  -4.198  0.00  0.00    +0.195 C 
ATOM     17  C   UNL     1      -1.223   5.819  -5.372  0.00  0.00    +0.038 C 
ATOM     18  O   UNL     1      -0.867   5.459  -3.027  0.00  0.00    -0.287 OA
ATOM     19  C   UNL     1       1.799   3.627  -6.397  0.00  0.00    +0.022 C 
ATOM     20  C   UNL     1       0.937   7.342  -5.766  0.00  0.00    +0.009 C 
ATOM     21  C   UNL     1      -0.627   5.791  -6.567  0.00  0.00    -0.020 C 
ATOM     22  C   UNL     1       2.057   3.906  -7.845  0.00  0.00    +0.004 C 
ATOM     23  C   UNL     1       3.974   6.718  -9.255  0.00  0.00    +0.034 C 
ATOM     24  C   UNL     1       5.003   6.541  -8.227  0.00  0.00    +0.003 C 
ATOM     25  O   UNL     1       3.863   4.623 -11.463  0.00  0.00    -0.334 OA
ATOM     26  C   UNL     1       5.156   5.500 -13.274  0.00  0.00    +0.061 C 
ENDROOT
BRANCH   4  27
ATOM     27  C   UNL     1       5.857   7.388 -10.756  0.00  0.00    +0.210 C 
ATOM     28  O   UNL     1       5.857   8.549 -11.167  0.00  0.00    -0.291 OA
BRANCH  27  29
ATOM     29  C   UNL     1       7.203   6.791 -10.606  0.00  0.00    +0.248 C 
ATOM     30  O   UNL     1       7.943   6.781 -11.771  0.00  0.00    -0.212 OA
ENDBRANCH  27  29
ENDBRANCH   4  27
TORSDOF 2
ENDMDL
MODEL 5
REMARK VINA RESULT:      -7.6      1.616      2.339
REMARK  Name = 
REMARK  2 active torsions:
REMARK  status: ('A' for Active; 'I' for Inactive)
REMARK    1  A    between atoms: C_25  and  C_26
REMARK    2  A    between atoms: C_26  and  C_28
REMARK                            x       y       z     vdW  Elec       q    Type
REMARK                         _______ _______ _______ _____ _____    ______ ____
ROOT
ATOM      1  C   UNL     1       2.268   6.253  -2.341  0.00  0.00    +0.061 C 
ATOM      2  C   UNL     1       1.127   5.978  -3.142  0.00  0.00    +0.188 C 
ATOM      3  O   UNL     1       0.964   7.009  -4.026  0.00  0.00    -0.330 OA
ATOM      4  C   UNL     1       0.241   6.603  -5.103  0.00  0.00    +0.173 C 
ATOM      5  C   UNL     1       0.007   4.989  -4.725  0.00  0.00    +0.149 C 
ATOM      6  C   UNL     1       0.690   4.408  -6.151  0.00  0.00    +0.033 C 
ATOM      7  C   UNL     1       1.916   5.493  -6.123  0.00  0.00    +0.005 C 
ATOM      8  C   UNL     1       2.184   5.348  -7.804  0.00  0.00    +0.004 C 
ATOM      9  C   UNL     1       3.433   6.483  -7.704  0.00  0.00    +0.038 C 
ATOM     10  C   UNL     1       2.436   7.883  -8.015  0.00  0.00    +0.153 C 
ATOM     11  C   UNL     1       1.600   7.785  -6.580  0.00  0.00    +0.036 C 
ATOM     12  O   UNL     1       1.395   7.125  -8.868  0.00  0.00    -0.223 OA
ATOM     13  C   UNL     1       3.936   6.319  -9.219  0.00  0.00    +0.036 C 
ATOM     14  C   UNL     1       3.636   5.010  -9.764  0.00  0.00    -0.038 C 
ATOM     15  C   UNL     1       4.166   4.839 -10.981  0.00  0.00    +0.034 C 
ATOM     16  C   UNL     1       5.282   5.666 -11.469  0.00  0.00    +0.195 C 
ATOM     17  C   UNL     1       5.999   6.354 -10.384  0.00  0.00    +0.038 C 
ATOM     18  O   UNL     1       5.683   5.645 -12.654  0.00  0.00    -0.287 OA
ATOM     19  C   UNL     1       3.511   3.739  -8.983  0.00  0.00    +0.022 C 
ATOM     20  C   UNL     1       3.579   7.446 -10.080  0.00  0.00    +0.009 C 
ATOM     21  C   UNL     1       5.442   6.354  -9.169  0.00  0.00    -0.020 C 
ATOM     22  C   UNL     1       3.226   4.136  -7.568  0.00  0.00    +0.004 C 
ATOM     23  C   UNL     1       0.797   6.654  -6.416  0.00  0.00    +0.034 C 
ATOM     24  C   UNL     1      -0.191   6.147  -7.371  0.00  0.00    +0.003 C 
ATOM     25  O   UNL     1       1.375   4.912  -3.985  0.00  0.00    -0.334 OA
ATOM     26  C   UNL     1      -0.038   5.725  -2.235  0.00  0.00    +0.061 C 
ENDROOT
BRANCH   4  27
ATOM     27  C   UNL     1      -1.158   7.109  -4.924  0.00  0.00    +0.210 C 
ATOM     28  O   UNL     1      -1.395   8.304  -4.747  0.00  0.00    -0.291 OA
BRANCH  27  29
ATOM     29  C   UNL     1      -2.343   6.228  -4.834  0.00  0.00    +0.248 C 
ATOM     30  O   UNL     1      -3.112   6.438  -3.707  0.00  0.00    -0.212 OA
ENDBRANCH  27  29
ENDBRANCH   4  27
TORSDOF 2
ENDMDL
MODEL 6
REMARK VINA RESULT:      -7.6      1.961      2.927
REMARK  Name = 
REMARK  2 active torsions:
REMARK  status: ('A' for Active; 'I' for Inactive)
REMARK    1  A    between atoms: C_25  and  C_26
REMARK    2  A    between atoms: C_26  and  C_28
REMARK                            x       y       z     vdW  Elec       q    Type
REMARK                         _______ _______ _______ _____ _____    ______ ____
ROOT
ATOM      1  C   UNL     1       3.820   7.857  -4.190  0.00  0.00    +0.061 C 
ATOM      2  C   UNL     1       3.360   6.577  -4.602  0.00  0.00    +0.188 C 
ATOM      3  O   UNL     1       2.529   6.744  -5.676  0.00  0.00    -0.330 OA
ATOM      4  C   UNL     1       2.456   5.598  -6.403  0.00  0.00    +0.173 C 
ATOM      5  C   UNL     1       3.515   4.623  -5.549  0.00  0.00    +0.149 C 
ATOM      6  C   UNL     1       4.499   4.286  -6.874  0.00  0.00    +0.033 C 
ATOM      7  C   UNL     1       4.450   5.825  -7.428  0.00  0.00    +0.005 C 
ATOM      8  C   UNL     1       4.854   5.346  -9.018  0.00  0.00    +0.004 C 
ATOM      9  C   UNL     1       4.776   6.957  -9.525  0.00  0.00    +0.038 C 
ATOM     10  C   UNL     1       3.089   6.927  -9.976  0.00  0.00    +0.153 C 
ATOM     11  C   UNL     1       2.527   6.762  -8.420  0.00  0.00    +0.036 C 
ATOM     12  O   UNL     1       3.066   5.423 -10.325  0.00  0.00    -0.223 OA
ATOM     13  C   UNL     1       5.332   6.698 -11.007  0.00  0.00    +0.036 C 
ATOM     14  C   UNL     1       6.182   5.526 -11.084  0.00  0.00    -0.038 C 
ATOM     15  C   UNL     1       6.740   5.388 -12.292  0.00  0.00    +0.034 C 
ATOM     16  C   UNL     1       6.855   6.516 -13.232  0.00  0.00    +0.195 C 
ATOM     17  C   UNL     1       6.708   7.823 -12.574  0.00  0.00    +0.038 C 
ATOM     18  O   UNL     1       7.213   6.381 -14.422  0.00  0.00    -0.287 OA
ATOM     19  C   UNL     1       7.019   4.972  -9.972  0.00  0.00    +0.022 C 
ATOM     20  C   UNL     1       4.303   6.786 -12.042  0.00  0.00    +0.009 C 
ATOM     21  C   UNL     1       6.265   7.842 -11.313  0.00  0.00    -0.020 C 
ATOM     22  C   UNL     1       6.431   5.492  -8.697  0.00  0.00    +0.004 C 
ATOM     23  C   UNL     1       2.867   5.574  -7.770  0.00  0.00    +0.034 C 
ATOM     24  C   UNL     1       2.692   4.217  -8.295  0.00  0.00    +0.003 C 
ATOM     25  O   UNL     1       4.395   5.844  -5.148  0.00  0.00    -0.334 OA
ATOM     26  C   UNL     1       2.743   5.894  -3.420  0.00  0.00    +0.061 C 
ENDROOT
BRANCH   4  27
ATOM     27  C   UNL     1       1.162   4.927  -6.059  0.00  0.00    +0.210 C 
ATOM     28  O   UNL     1       1.105   3.723  -5.804  0.00  0.00    -0.291 OA
BRANCH  27  29
ATOM     29  C   UNL     1      -0.151   5.608  -6.101  0.00  0.00    +0.248 C 
ATOM     30  O   UNL     1      -1.063   5.011  -6.949  0.00  0.00    -0.212 OA
ENDBRANCH  27  29
ENDBRANCH   4  27
TORSDOF 2
ENDMDL
MODEL 7
REMARK VINA RESULT:      -7.5      2.110      7.426
REMARK  Name = 
REMARK  2 active torsions:
REMARK  status: ('A' for Active; 'I' for Inactive)
REMARK    1  A    between atoms: C_25  and  C_26
REMARK    2  A    between atoms: C_26  and  C_28
REMARK                            x       y       z     vdW  Elec       q    Type
REMARK                         _______ _______ _______ _____ _____    ______ ____
ROOT
ATOM      1  C   UNL     1       7.747   6.315  -9.893  0.00  0.00    +0.061 C 
ATOM      2  C   UNL     1       6.614   6.496 -10.732  0.00  0.00    +0.188 C 
ATOM      3  O   UNL     1       5.868   5.349 -10.699  0.00  0.00    -0.330 OA
ATOM      4  C   UNL     1       4.581   5.609 -11.051  0.00  0.00    +0.173 C 
ATOM      5  C   UNL     1       4.653   7.265 -11.280  0.00  0.00    +0.149 C 
ATOM      6  C   UNL     1       3.429   7.614 -10.176  0.00  0.00    +0.033 C 
ATOM      7  C   UNL     1       3.963   6.518  -9.085  0.00  0.00    +0.005 C 
ATOM      8  C   UNL     1       2.434   6.408  -8.332  0.00  0.00    +0.004 C 
ATOM      9  C   UNL     1       3.050   5.272  -7.242  0.00  0.00    +0.038 C 
ATOM     10  C   UNL     1       2.649   3.865  -8.195  0.00  0.00    +0.153 C 
ATOM     11  C   UNL     1       3.745   4.191  -9.402  0.00  0.00    +0.036 C 
ATOM     12  O   UNL     1       1.432   4.511  -8.893  0.00  0.00    -0.223 OA
ATOM     13  C   UNL     1       1.744   5.200  -6.312  0.00  0.00    +0.036 C 
ATOM     14  C   UNL     1       0.964   6.421  -6.355  0.00  0.00    -0.038 C 
ATOM     15  C   UNL     1      -0.052   6.399  -5.486  0.00  0.00    +0.034 C 
ATOM     16  C   UNL     1      -0.073   5.483  -4.333  0.00  0.00    +0.195 C 
ATOM     17  C   UNL     1       1.258   4.947  -4.007  0.00  0.00    +0.038 C 
ATOM     18  O   UNL     1      -1.077   5.321  -3.605  0.00  0.00    -0.287 OA
ATOM     19  C   UNL     1       1.496   7.795  -6.619  0.00  0.00    +0.022 C 
ATOM     20  C   UNL     1       0.976   3.967  -6.477  0.00  0.00    +0.009 C 
ATOM     21  C   UNL     1       2.242   5.139  -4.891  0.00  0.00    -0.020 C 
ATOM     22  C   UNL     1       2.803   7.618  -7.326  0.00  0.00    +0.004 C 
ATOM     23  C   UNL     1       3.511   5.352 -10.143  0.00  0.00    +0.034 C 
ATOM     24  C   UNL     1       2.247   5.735 -10.778  0.00  0.00    +0.003 C 
ATOM     25  O   UNL     1       5.748   7.420 -10.182  0.00  0.00    -0.334 OA
ATOM     26  C   UNL     1       7.093   6.905 -12.091  0.00  0.00    +0.061 C 
ENDROOT
BRANCH   4  27
ATOM     27  C   UNL     1       4.404   5.166 -12.471  0.00  0.00    +0.210 C 
ATOM     28  O   UNL     1       5.117   4.295 -12.971  0.00  0.00    -0.291 OA
BRANCH  27  29
ATOM     29  C   UNL     1       3.456   5.798 -13.415  0.00  0.00    +0.248 C 
ATOM     30  O   UNL     1       2.857   4.909 -14.285  0.00  0.00    -0.212 OA
ENDBRANCH  27  29
ENDBRANCH   4  27
TORSDOF 2
ENDMDL
MODEL 8
REMARK VINA RESULT:      -7.3      2.400      7.650
REMARK  Name = 
REMARK  2 active torsions:
REMARK  status: ('A' for Active; 'I' for Inactive)
REMARK    1  A    between atoms: C_25  and  C_26
REMARK    2  A    between atoms: C_26  and  C_28
REMARK                            x       y       z     vdW  Elec       q    Type
REMARK                         _______ _______ _______ _____ _____    ______ ____
ROOT
ATOM      1  C   UNL     1      -0.029   7.757 -11.677  0.00  0.00    +0.061 C 
ATOM      2  C   UNL     1       0.637   6.578 -11.245  0.00  0.00    +0.188 C 
ATOM      3  O   UNL     1       1.520   6.921 -10.258  0.00  0.00    -0.330 OA
ATOM      4  C   UNL     1       1.811   5.842  -9.485  0.00  0.00    +0.173 C 
ATOM      5  C   UNL     1       0.832   4.683 -10.192  0.00  0.00    +0.149 C 
ATOM      6  C   UNL     1       0.016   4.299  -8.770  0.00  0.00    +0.033 C 
ATOM      7  C   UNL     1      -0.105   5.862  -8.299  0.00  0.00    +0.005 C 
ATOM      8  C   UNL     1      -0.307   5.432  -6.658  0.00  0.00    +0.004 C 
ATOM      9  C   UNL     1      -0.413   7.067  -6.241  0.00  0.00    +0.038 C 
ATOM     10  C   UNL     1       1.292   7.291  -5.940  0.00  0.00    +0.153 C 
ATOM     11  C   UNL     1       1.744   7.108  -7.530  0.00  0.00    +0.036 C 
ATOM     12  O   UNL     1       1.553   5.828  -5.520  0.00  0.00    -0.223 OA
ATOM     13  C   UNL     1      -0.806   6.828  -4.704  0.00  0.00    +0.036 C 
ATOM     14  C   UNL     1      -1.476   5.559  -4.493  0.00  0.00    -0.038 C 
ATOM     15  C   UNL     1      -1.908   5.422  -3.235  0.00  0.00    +0.034 C 
ATOM     16  C   UNL     1      -2.102   6.580  -2.346  0.00  0.00    +0.195 C 
ATOM     17  C   UNL     1      -2.192   7.852  -3.079  0.00  0.00    +0.038 C 
ATOM     18  O   UNL     1      -2.340   6.471  -1.123  0.00  0.00    -0.287 OA
ATOM     19  C   UNL     1      -2.314   4.831  -5.497  0.00  0.00    +0.022 C 
ATOM     20  C   UNL     1       0.282   7.116  -3.770  0.00  0.00    +0.009 C 
ATOM     21  C   UNL     1      -1.860   7.852  -4.373  0.00  0.00    -0.020 C 
ATOM     22  C   UNL     1      -1.911   5.345  -6.843  0.00  0.00    +0.004 C 
ATOM     23  C   UNL     1       1.520   5.847  -8.088  0.00  0.00    +0.034 C 
ATOM     24  C   UNL     1       1.924   4.561  -7.513  0.00  0.00    +0.003 C 
ATOM     25  O   UNL     1      -0.239   5.748 -10.573  0.00  0.00    -0.334 OA
ATOM     26  C   UNL     1       1.244   5.913 -12.442  0.00  0.00    +0.061 C 
ENDROOT
BRANCH   4  27
ATOM     27  C   UNL     1       3.154   5.331  -9.909  0.00  0.00    +0.210 C 
ATOM     28  O   UNL     1       3.423   4.129  -9.893  0.00  0.00    -0.291 OA
BRANCH  27  29
ATOM     29  C   UNL     1       4.288   6.209 -10.271  0.00  0.00    +0.248 C 
ATOM     30  O   UNL     1       5.436   5.525 -10.616  0.00  0.00    -0.212 OA
ENDBRANCH  27  29
ENDBRANCH   4  27
TORSDOF 2
ENDMDL
MODEL 9
REMARK VINA RESULT:      -7.2      1.602      3.262
REMARK  Name = 
REMARK  2 active torsions:
REMARK  status: ('A' for Active; 'I' for Inactive)
REMARK    1  A    between atoms: C_25  and  C_26
REMARK    2  A    between atoms: C_26  and  C_28
REMARK                            x       y       z     vdW  Elec       q    Type
REMARK                         _______ _______ _______ _____ _____    ______ ____
ROOT
ATOM      1  C   UNL     1      -0.617   5.385  -1.954  0.00  0.00    +0.061 C 
ATOM      2  C   UNL     1       0.720   5.862  -1.879  0.00  0.00    +0.188 C 
ATOM      3  O   UNL     1       1.548   4.900  -2.391  0.00  0.00    -0.330 OA
ATOM      4  C   UNL     1       2.721   5.453  -2.800  0.00  0.00    +0.173 C 
ATOM      5  C   UNL     1       2.432   7.068  -2.471  0.00  0.00    +0.149 C 
ATOM      6  C   UNL     1       2.727   7.589  -4.046  0.00  0.00    +0.033 C 
ATOM      7  C   UNL     1       1.928   6.328  -4.719  0.00  0.00    +0.005 C 
ATOM      8  C   UNL     1       2.763   6.491  -6.200  0.00  0.00    +0.004 C 
ATOM      9  C   UNL     1       1.908   5.175  -6.829  0.00  0.00    +0.038 C 
ATOM     10  C   UNL     1       3.064   3.958  -6.347  0.00  0.00    +0.153 C 
ATOM     11  C   UNL     1       2.783   4.130  -4.717  0.00  0.00    +0.036 C 
ATOM     12  O   UNL     1       4.288   4.897  -6.408  0.00  0.00    -0.223 OA
ATOM     13  C   UNL     1       2.455   5.315  -8.330  0.00  0.00    +0.036 C 
ATOM     14  C   UNL     1       2.842   6.674  -8.655  0.00  0.00    -0.038 C 
ATOM     15  C   UNL     1       3.180   6.805  -9.943  0.00  0.00    +0.034 C 
ATOM     16  C   UNL     1       2.754   5.835 -10.965  0.00  0.00    +0.195 C 
ATOM     17  C   UNL     1       1.621   5.005 -10.526  0.00  0.00    +0.038 C 
ATOM     18  O   UNL     1       3.191   5.837 -12.137  0.00  0.00    -0.287 OA
ATOM     19  C   UNL     1       2.264   7.919  -8.058  0.00  0.00    +0.022 C 
ATOM     20  C   UNL     1       3.431   4.289  -8.695  0.00  0.00    +0.009 C 
ATOM     21  C   UNL     1       1.280   5.047  -9.235  0.00  0.00    -0.020 C 
ATOM     22  C   UNL     1       1.646   7.519  -6.755  0.00  0.00    +0.004 C 
ATOM     23  C   UNL     1       3.132   5.364  -4.164  0.00  0.00    +0.034 C 
ATOM     24  C   UNL     1       4.416   6.052  -4.319  0.00  0.00    +0.003 C 
ATOM     25  O   UNL     1       0.910   6.907  -2.761  0.00  0.00    -0.334 OA
ATOM     26  C   UNL     1       1.002   6.257  -0.462  0.00  0.00    +0.061 C 
ENDROOT
BRANCH   4  27
ATOM     27  C   UNL     1       3.748   5.162  -1.748  0.00  0.00    +0.210 C 
ATOM     28  O   UNL     1       3.975   4.013  -1.368  0.00  0.00    -0.291 OA
BRANCH  27  29
ATOM     29  C   UNL     1       4.484   6.210  -1.009  0.00  0.00    +0.248 C 
ATOM     30  O   UNL     1       4.433   6.068   0.363  0.00  0.00    -0.212 OA
ENDBRANCH  27  29
ENDBRANCH   4  27
TORSDOF 2
ENDMDL
