MODEL 1
REMARK VINA RESULT:      -8.0      0.000      0.000
REMARK  Name = 
REMARK  7 active torsions:
REMARK  status: ('A' for Active; 'I' for Inactive)
REMARK    1  A    between atoms: C_2  and  N_3
REMARK    2  A    between atoms: N_3  and  C_4
REMARK    3  A    between atoms: N_3  and  C_6
REMARK    4  A    between atoms: C_6  and  C_7
REMARK    5  A    between atoms: C_7  and  N_8
REMARK    6  A    between atoms: C_9  and  C_11
REMARK    7  A    between atoms: C_15  and  C_16
REMARK                            x       y       z     vdW  Elec       q    Type
REMARK                         _______ _______ _______ _____ _____    ______ ____
ROOT
ATOM      1  C   UNL     1       3.997   6.333  -8.934  0.00  0.00    +0.066 A 
ATOM      2  C   UNL     1       2.956   6.629  -8.078  0.00  0.00    +0.001 A 
ATOM      3  C   UNL     1       1.901   7.645  -8.351  0.00  0.00    +0.033 C 
ATOM      4  C   UNL     1       3.023   5.805  -6.961  0.00  0.00    +0.077 A 
ATOM      5  N   UNL     1       3.966   4.882  -7.275  0.00  0.00    -0.250 NA
ATOM      6  C   UNL     1       4.701   5.305  -8.320  0.00  0.00    +0.063 A 
ATOM      7  C   UNL     1       6.146   5.034  -8.596  0.00  0.00    +0.052 C 
ENDROOT
BRANCH   4   8
ATOM      8  C   UNL     1       1.808   5.414  -6.235  0.00  0.00    +0.023 C 
ATOM      9  C   UNL     1       1.713   5.664  -4.951  0.00  0.00    +0.058 C 
ATOM     10  C   UNL     1       0.480   5.559  -4.162  0.00  0.00    +0.022 A 
ATOM     11  C   UNL     1       0.895   5.664  -2.840  0.00  0.00    +0.074 A 
ATOM     12  C   UNL     1      -0.110   5.536  -1.889  0.00  0.00    +0.019 A 
ATOM     13  C   UNL     1      -1.430   5.828  -2.212  0.00  0.00    +0.031 A 
ATOM     14  C   UNL     1      -1.823   5.835  -3.545  0.00  0.00    +0.140 A 
ATOM     15  F   UNL     1      -3.000   6.410  -3.928  0.00  0.00    -0.204 F 
ATOM     16  N   UNL     1       2.203   6.245  -2.807  0.00  0.00    -0.175 NA
ATOM     17  C   UNL     1      -0.868   5.448  -4.477  0.00  0.00    +0.031 A 
ATOM     18  C   UNL     1       2.687   6.413  -4.146  0.00  0.00    +0.269 C 
ATOM     19  O   UNL     1       3.616   7.177  -4.550  0.00  0.00    -0.268 OA
ENDBRANCH   4   8
BRANCH   1  21
ATOM     20  N   UNL     1       3.600   5.946 -11.384  0.00  0.00    -0.200 NA
ATOM     21  C   UNL     1       4.152   6.730 -10.341  0.00  0.00    +0.266 C 
ATOM     22  O   UNL     1       5.013   7.596 -10.682  0.00  0.00    -0.268 OA
BRANCH  20  23
ATOM     23  C   UNL     1       4.045   5.992 -12.755  0.00  0.00    +0.133 C 
BRANCH  23  24
ATOM     24  C   UNL     1       5.029   4.902 -13.094  0.00  0.00    +0.096 C 
BRANCH  24  25
ATOM     25  N   UNL     1       6.371   5.387 -13.284  0.00  0.00    -0.271 NA
BRANCH  25  27
ATOM     26  C   UNL     1       8.599   5.741 -12.467  0.00  0.00    +0.019 C 
ATOM     27  C   UNL     1       7.211   5.218 -12.123  0.00  0.00    +0.072 C 
ENDBRANCH  25  27
BRANCH  25  28
ATOM     28  C   UNL     1       6.433   6.710 -13.848  0.00  0.00    +0.072 C 
ATOM     29  C   UNL     1       6.606   6.696 -15.348  0.00  0.00    +0.019 C 
ENDBRANCH  25  28
ENDBRANCH  24  25
ENDBRANCH  23  24
ENDBRANCH  20  23
ENDBRANCH   1  21
TORSDOF 7
ENDMDL
MODEL 2
REMARK VINA RESULT:      -7.9      2.814      3.896
REMARK  Name = 
REMARK  7 active torsions:
REMARK  status: ('A' for Active; 'I' for Inactive)
REMARK    1  A    between atoms: C_2  and  N_3
REMARK    2  A    between atoms: N_3  and  C_4
REMARK    3  A    between atoms: N_3  and  C_6
REMARK    4  A    between atoms: C_6  and  C_7
REMARK    5  A    between atoms: C_7  and  N_8
REMARK    6  A    between atoms: C_9  and  C_11
REMARK    7  A    between atoms: C_15  and  C_16
REMARK                            x       y       z     vdW  Elec       q    Type
REMARK                         _______ _______ _______ _____ _____    ______ ____
ROOT
ATOM      1  C   UNL     1       2.293   6.098 -10.469  0.00  0.00    +0.066 A 
ATOM      2  C   UNL     1       2.966   5.989  -9.270  0.00  0.00    +0.001 A 
ATOM      3  C   UNL     1       4.331   5.414  -9.116  0.00  0.00    +0.033 C 
ATOM      4  C   UNL     1       2.195   6.539  -8.252  0.00  0.00    +0.077 A 
ATOM      5  N   UNL     1       1.180   7.167  -8.896  0.00  0.00    -0.250 NA
ATOM      6  C   UNL     1       1.095   6.732 -10.167  0.00  0.00    +0.063 A 
ATOM      7  C   UNL     1      -0.134   6.590 -11.009  0.00  0.00    +0.052 C 
ENDROOT
BRANCH   4   8
ATOM      8  C   UNL     1       2.823   7.149  -7.073  0.00  0.00    +0.023 C 
ATOM      9  C   UNL     1       2.601   6.638  -5.886  0.00  0.00    +0.058 C 
ATOM     10  C   UNL     1       3.347   6.982  -4.669  0.00  0.00    +0.022 A 
ATOM     11  C   UNL     1       2.620   6.407  -3.634  0.00  0.00    +0.074 A 
ATOM     12  C   UNL     1       3.112   6.648  -2.357  0.00  0.00    +0.019 A 
ATOM     13  C   UNL     1       4.455   6.945  -2.160  0.00  0.00    +0.031 A 
ATOM     14  C   UNL     1       5.215   7.414  -3.225  0.00  0.00    +0.140 A 
ATOM     15  F   UNL     1       6.578   7.421  -3.168  0.00  0.00    -0.204 F 
ATOM     16  N   UNL     1       1.754   5.403  -4.174  0.00  0.00    -0.175 NA
ATOM     17  C   UNL     1       4.539   7.649  -4.416  0.00  0.00    +0.031 A 
ATOM     18  C   UNL     1       1.844   5.411  -5.605  0.00  0.00    +0.269 C 
ATOM     19  O   UNL     1       1.516   4.490  -6.413  0.00  0.00    -0.268 OA
ENDBRANCH   4   8
BRANCH   1  21
ATOM     20  N   UNL     1       4.028   5.207 -12.053  0.00  0.00    -0.200 NA
ATOM     21  C   UNL     1       2.831   5.931 -11.827  0.00  0.00    +0.266 C 
ATOM     22  O   UNL     1       2.424   6.658 -12.783  0.00  0.00    -0.268 OA
BRANCH  20  23
ATOM     23  C   UNL     1       4.851   5.348 -13.229  0.00  0.00    +0.133 C 
BRANCH  23  24
ATOM     24  C   UNL     1       6.063   6.215 -13.002  0.00  0.00    +0.096 C 
BRANCH  24  25
ATOM     25  N   UNL     1       6.801   5.859 -11.817  0.00  0.00    -0.271 NA
BRANCH  25  27
ATOM     26  C   UNL     1       6.399   8.210 -11.553  0.00  0.00    +0.019 C 
ATOM     27  C   UNL     1       7.063   6.980 -10.948  0.00  0.00    +0.072 C 
ENDBRANCH  25  27
BRANCH  25  28
ATOM     28  C   UNL     1       7.964   5.054 -12.082  0.00  0.00    +0.072 C 
ATOM     29  C   UNL     1       9.220   5.877 -12.239  0.00  0.00    +0.019 C 
ENDBRANCH  25  28
ENDBRANCH  24  25
ENDBRANCH  23  24
ENDBRANCH  20  23
ENDBRANCH   1  21
TORSDOF 7
ENDMDL
MODEL 3
REMARK VINA RESULT:      -7.8      2.904      9.275
REMARK  Name = 
REMARK  7 active torsions:
REMARK  status: ('A' for Active; 'I' for Inactive)
REMARK    1  A    between atoms: C_2  and  N_3
REMARK    2  A    between atoms: N_3  and  C_4
REMARK    3  A    between atoms: N_3  and  C_6
REMARK    4  A    between atoms: C_6  and  C_7
REMARK    5  A    between atoms: C_7  and  N_8
REMARK    6  A    between atoms: C_9  and  C_11
REMARK    7  A    between atoms: C_15  and  C_16
REMARK                            x       y       z     vdW  Elec       q    Type
REMARK                         _______ _______ _______ _____ _____    ______ ____
ROOT
ATOM      1  C   UNL     1       3.090   5.968  -4.471  0.00  0.00    +0.066 A 
ATOM      2  C   UNL     1       2.684   5.477  -5.695  0.00  0.00    +0.001 A 
ATOM      3  C   UNL     1       1.887   4.234  -5.885  0.00  0.00    +0.033 C 
ATOM      4  C   UNL     1       3.091   6.345  -6.702  0.00  0.00    +0.077 A 
ATOM      5  N   UNL     1       3.532   7.446  -6.046  0.00  0.00    -0.250 NA
ATOM      6  C   UNL     1       3.750   7.158  -4.749  0.00  0.00    +0.063 A 
ATOM      7  C   UNL     1       4.783   7.745  -3.838  0.00  0.00    +0.052 C 
ENDROOT
BRANCH   4   8
ATOM      8  C   UNL     1       2.321   6.475  -7.946  0.00  0.00    +0.023 C 
ATOM      9  C   UNL     1       2.888   6.183  -9.091  0.00  0.00    +0.058 C 
ATOM     10  C   UNL     1       2.178   6.028 -10.367  0.00  0.00    +0.022 A 
ATOM     11  C   UNL     1       3.182   5.977 -11.327  0.00  0.00    +0.074 A 
ATOM     12  C   UNL     1       2.742   5.886 -12.642  0.00  0.00    +0.019 A 
ATOM     13  C   UNL     1       1.493   5.349 -12.935  0.00  0.00    +0.031 A 
ATOM     14  C   UNL     1       0.522   5.296 -11.942  0.00  0.00    +0.140 A 
ATOM     15  F   UNL     1      -0.586   4.512 -12.084  0.00  0.00    -0.204 F 
ATOM     16  N   UNL     1       4.423   5.662 -10.687  0.00  0.00    -0.175 NA
ATOM     17  C   UNL     1       0.844   5.882 -10.725  0.00  0.00    +0.031 A 
ATOM     18  C   UNL     1       4.234   5.620  -9.267  0.00  0.00    +0.269 C 
ATOM     19  O   UNL     1       4.968   5.061  -8.397  0.00  0.00    -0.268 OA
ENDBRANCH   4   8
BRANCH   1  21
ATOM     20  N   UNL     1       1.449   6.087  -2.572  0.00  0.00    -0.200 NA
ATOM     21  C   UNL     1       2.636   5.555  -3.136  0.00  0.00    +0.266 C 
ATOM     22  O   UNL     1       3.419   4.956  -2.338  0.00  0.00    -0.268 OA
BRANCH  20  23
ATOM     23  C   UNL     1       1.155   6.095  -1.160  0.00  0.00    +0.133 C 
BRANCH  23  24
ATOM     24  C   UNL     1      -0.275   5.734  -0.852  0.00  0.00    +0.096 C 
BRANCH  24  25
ATOM     25  N   UNL     1      -1.227   6.427  -1.682  0.00  0.00    -0.271 NA
BRANCH  25  27
ATOM     26  C   UNL     1      -1.872   7.286   0.464  0.00  0.00    +0.019 C 
ATOM     27  C   UNL     1      -1.830   7.565  -1.033  0.00  0.00    +0.072 C 
ENDBRANCH  25  27
BRANCH  25  28
ATOM     28  C   UNL     1      -2.180   5.556  -2.317  0.00  0.00    +0.072 C 
ATOM     29  C   UNL     1      -3.432   6.279  -2.751  0.00  0.00    +0.019 C 
ENDBRANCH  25  28
ENDBRANCH  24  25
ENDBRANCH  23  24
ENDBRANCH  20  23
ENDBRANCH   1  21
TORSDOF 7
ENDMDL
MODEL 4
REMARK VINA RESULT:      -7.7      3.172      9.131
REMARK  Name = 
REMARK  7 active torsions:
REMARK  status: ('A' for Active; 'I' for Inactive)
REMARK    1  A    between atoms: C_2  and  N_3
REMARK    2  A    between atoms: N_3  and  C_4
REMARK    3  A    between atoms: N_3  and  C_6
REMARK    4  A    between atoms: C_6  and  C_7
REMARK    5  A    between atoms: C_7  and  N_8
REMARK    6  A    between atoms: C_9  and  C_11
REMARK    7  A    between atoms: C_15  and  C_16
REMARK                            x       y       z     vdW  Elec       q    Type
REMARK                         _______ _______ _______ _____ _____    ______ ____
ROOT
ATOM      1  C   UNL     1       3.455   5.834  -4.480  0.00  0.00    +0.066 A 
ATOM      2  C   UNL     1       3.029   5.380  -5.712  0.00  0.00    +0.001 A 
ATOM      3  C   UNL     1       2.404   4.051  -5.954  0.00  0.00    +0.033 C 
ATOM      4  C   UNL     1       3.233   6.370  -6.667  0.00  0.00    +0.077 A 
ATOM      5  N   UNL     1       3.563   7.473  -5.950  0.00  0.00    -0.250 NA
ATOM      6  C   UNL     1       3.917   7.125  -4.699  0.00  0.00    +0.063 A 
ATOM      7  C   UNL     1       4.923   7.787  -3.811  0.00  0.00    +0.052 C 
ENDROOT
BRANCH   4   8
ATOM      8  C   UNL     1       2.359   6.477  -7.842  0.00  0.00    +0.023 C 
ATOM      9  C   UNL     1       2.836   6.197  -9.031  0.00  0.00    +0.058 C 
ATOM     10  C   UNL     1       2.028   6.020 -10.243  0.00  0.00    +0.022 A 
ATOM     11  C   UNL     1       2.949   5.991 -11.283  0.00  0.00    +0.074 A 
ATOM     12  C   UNL     1       2.404   5.885 -12.557  0.00  0.00    +0.019 A 
ATOM     13  C   UNL     1       1.150   5.317 -12.745  0.00  0.00    +0.031 A 
ATOM     14  C   UNL     1       0.266   5.242 -11.675  0.00  0.00    +0.140 A 
ATOM     15  F   UNL     1      -0.830   4.431 -11.724  0.00  0.00    -0.204 F 
ATOM     16  N   UNL     1       4.246   5.708 -10.748  0.00  0.00    -0.175 NA
ATOM     17  C   UNL     1       0.672   5.840 -10.489  0.00  0.00    +0.031 A 
ATOM     18  C   UNL     1       4.177   5.667  -9.316  0.00  0.00    +0.269 C 
ATOM     19  O   UNL     1       4.995   5.128  -8.511  0.00  0.00    -0.268 OA
ENDBRANCH   4   8
BRANCH   1  21
ATOM     20  N   UNL     1       1.921   5.488  -2.520  0.00  0.00    -0.200 NA
ATOM     21  C   UNL     1       3.167   5.261  -3.158  0.00  0.00    +0.266 C 
ATOM     22  O   UNL     1       4.099   4.807  -2.427  0.00  0.00    -0.268 OA
BRANCH  20  23
ATOM     23  C   UNL     1       1.702   5.356  -1.101  0.00  0.00    +0.133 C 
BRANCH  23  24
ATOM     24  C   UNL     1       1.281   6.646  -0.446  0.00  0.00    +0.096 C 
BRANCH  24  25
ATOM     25  N   UNL     1       2.284   7.193   0.431  0.00  0.00    -0.271 NA
BRANCH  25  27
ATOM     26  C   UNL     1       1.735   9.488   0.863  0.00  0.00    +0.019 C 
ATOM     27  C   UNL     1       1.747   8.077   1.436  0.00  0.00    +0.072 C 
ENDBRANCH  25  27
BRANCH  25  28
ATOM     28  C   UNL     1       3.422   7.736  -0.263  0.00  0.00    +0.072 C 
ATOM     29  C   UNL     1       4.726   7.125   0.187  0.00  0.00    +0.019 C 
ENDBRANCH  25  28
ENDBRANCH  24  25
ENDBRANCH  23  24
ENDBRANCH  20  23
ENDBRANCH   1  21
TORSDOF 7
ENDMDL
MODEL 5
REMARK VINA RESULT:      -7.7      3.503      9.042
REMARK  Name = 
REMARK  7 active torsions:
REMARK  status: ('A' for Active; 'I' for Inactive)
REMARK    1  A    between atoms: C_2  and  N_3
REMARK    2  A    between atoms: N_3  and  C_4
REMARK    3  A    between atoms: N_3  and  C_6
REMARK    4  A    between atoms: C_6  and  C_7
REMARK    5  A    between atoms: C_7  and  N_8
REMARK    6  A    between atoms: C_9  and  C_11
REMARK    7  A    between atoms: C_15  and  C_16
REMARK                            x       y       z     vdW  Elec       q    Type
REMARK                         _______ _______ _______ _____ _____    ______ ____
ROOT
ATOM      1  C   UNL     1       0.309   6.330  -6.502  0.00  0.00    +0.066 A 
ATOM      2  C   UNL     1       1.260   6.616  -7.460  0.00  0.00    +0.001 A 
ATOM      3  C   UNL     1       2.453   7.477  -7.236  0.00  0.00    +0.033 C 
ATOM      4  C   UNL     1       0.953   5.940  -8.636  0.00  0.00    +0.077 A 
ATOM      5  N   UNL     1      -0.044   5.088  -8.289  0.00  0.00    -0.250 NA
ATOM      6  C   UNL     1      -0.584   5.459  -7.113  0.00  0.00    +0.063 A 
ATOM      7  C   UNL     1      -2.004   5.308  -6.666  0.00  0.00    +0.052 C 
ENDROOT
BRANCH   4   8
ATOM      8  C   UNL     1       2.010   5.514  -9.561  0.00  0.00    +0.023 C 
ATOM      9  C   UNL     1       1.914   5.814 -10.834  0.00  0.00    +0.058 C 
ATOM     10  C   UNL     1       2.997   5.675 -11.816  0.00  0.00    +0.022 A 
ATOM     11  C   UNL     1       2.384   5.860 -13.049  0.00  0.00    +0.074 A 
ATOM     12  C   UNL     1       3.215   5.718 -14.153  0.00  0.00    +0.019 A 
ATOM     13  C   UNL     1       4.585   5.922 -14.039  0.00  0.00    +0.031 A 
ATOM     14  C   UNL     1       5.185   5.849 -12.787  0.00  0.00    +0.140 A 
ATOM     15  F   UNL     1       6.441   6.339 -12.580  0.00  0.00    -0.204 F 
ATOM     16  N   UNL     1       1.126   6.514 -12.850  0.00  0.00    -0.175 NA
ATOM     17  C   UNL     1       4.369   5.475 -11.727  0.00  0.00    +0.031 A 
ATOM     18  C   UNL     1       0.873   6.651 -11.445  0.00  0.00    +0.269 C 
ATOM     19  O   UNL     1       0.070   7.447 -10.871  0.00  0.00    -0.268 OA
ENDBRANCH   4   8
BRANCH   1  21
ATOM     20  N   UNL     1       1.045   5.659  -4.195  0.00  0.00    -0.200 NA
ATOM     21  C   UNL     1       0.383   6.572  -5.054  0.00  0.00    +0.266 C 
ATOM     22  O   UNL     1      -0.374   7.423  -4.496  0.00  0.00    -0.268 OA
BRANCH  20  23
ATOM     23  C   UNL     1       0.809   5.567  -2.775  0.00  0.00    +0.133 C 
BRANCH  23  24
ATOM     24  C   UNL     1       1.857   6.274  -1.956  0.00  0.00    +0.096 C 
BRANCH  24  25
ATOM     25  N   UNL     1       3.144   6.325  -2.600  0.00  0.00    -0.271 NA
BRANCH  25  27
ATOM     26  C   UNL     1       4.319   5.796  -0.576  0.00  0.00    +0.019 C 
ATOM     27  C   UNL     1       4.104   5.410  -2.033  0.00  0.00    +0.072 C 
ENDBRANCH  25  27
BRANCH  25  28
ATOM     28  C   UNL     1       3.653   7.661  -2.767  0.00  0.00    +0.072 C 
ATOM     29  C   UNL     1       4.640   7.770  -3.904  0.00  0.00    +0.019 C 
ENDBRANCH  25  28
ENDBRANCH  24  25
ENDBRANCH  23  24
ENDBRANCH  20  23
ENDBRANCH   1  21
TORSDOF 7
ENDMDL
MODEL 6
REMARK VINA RESULT:      -7.7      3.963      9.850
REMARK  Name = 
REMARK  7 active torsions:
REMARK  status: ('A' for Active; 'I' for Inactive)
REMARK    1  A    between atoms: C_2  and  N_3
REMARK    2  A    between atoms: N_3  and  C_4
REMARK    3  A    between atoms: N_3  and  C_6
REMARK    4  A    between atoms: C_6  and  C_7
REMARK    5  A    between atoms: C_7  and  N_8
REMARK    6  A    between atoms: C_9  and  C_11
REMARK    7  A    between atoms: C_15  and  C_16
REMARK                            x       y       z     vdW  Elec       q    Type
REMARK                         _______ _______ _______ _____ _____    ______ ____
ROOT
ATOM      1  C   UNL     1       3.103   6.011  -2.935  0.00  0.00    +0.066 A 
ATOM      2  C   UNL     1       3.925   6.305  -4.004  0.00  0.00    +0.001 A 
ATOM      3  C   UNL     1       5.272   6.930  -3.887  0.00  0.00    +0.033 C 
ATOM      4  C   UNL     1       3.321   5.886  -5.183  0.00  0.00    +0.077 A 
ATOM      5  N   UNL     1       2.258   5.148  -4.778  0.00  0.00    -0.250 NA
ATOM      6  C   UNL     1       1.985   5.397  -3.484  0.00  0.00    +0.063 A 
ATOM      7  C   UNL     1       0.650   5.388  -2.808  0.00  0.00    +0.052 C 
ENDROOT
BRANCH   4   8
ATOM      8  C   UNL     1       4.126   5.465  -6.337  0.00  0.00    +0.023 C 
ATOM      9  C   UNL     1       3.848   5.939  -7.527  0.00  0.00    +0.058 C 
ATOM     10  C   UNL     1       4.708   5.805  -8.709  0.00  0.00    +0.022 A 
ATOM     11  C   UNL     1       3.917   6.222  -9.773  0.00  0.00    +0.074 A 
ATOM     12  C   UNL     1       4.510   6.130 -11.026  0.00  0.00    +0.019 A 
ATOM     13  C   UNL     1       5.893   6.155 -11.159  0.00  0.00    +0.031 A 
ATOM     14  C   UNL     1       6.690   5.847 -10.062  0.00  0.00    +0.140 A 
ATOM     15  F   UNL     1       8.019   6.155 -10.051  0.00  0.00    -0.204 F 
ATOM     16  N   UNL     1       2.819   6.987  -9.264  0.00  0.00    -0.175 NA
ATOM     17  C   UNL     1       6.032   5.435  -8.910  0.00  0.00    +0.031 A 
ATOM     18  C   UNL     1       2.842   6.966  -7.831  0.00  0.00    +0.269 C 
ATOM     19  O   UNL     1       2.274   7.768  -7.029  0.00  0.00    -0.268 OA
ENDBRANCH   4   8
BRANCH   1  21
ATOM     20  N   UNL     1       3.234   7.138  -0.693  0.00  0.00    -0.200 NA
ATOM     21  C   UNL     1       3.448   5.997  -1.506  0.00  0.00    +0.266 C 
ATOM     22  O   UNL     1       4.205   5.099  -1.027  0.00  0.00    -0.268 OA
BRANCH  20  23
ATOM     23  C   UNL     1       3.912   7.381   0.557  0.00  0.00    +0.133 C 
BRANCH  23  24
ATOM     24  C   UNL     1       4.026   8.846   0.892  0.00  0.00    +0.096 C 
BRANCH  24  25
ATOM     25  N   UNL     1       3.018   9.654   0.257  0.00  0.00    -0.271 NA
BRANCH  25  27
ATOM     26  C   UNL     1       3.972  11.855   0.247  0.00  0.00    +0.019 C 
ATOM     27  C   UNL     1       3.561  10.668  -0.614  0.00  0.00    +0.072 C 
ENDBRANCH  25  27
BRANCH  25  28
ATOM     28  C   UNL     1       2.020  10.153   1.166  0.00  0.00    +0.072 C 
ATOM     29  C   UNL     1       0.696   9.442   1.026  0.00  0.00    +0.019 C 
ENDBRANCH  25  28
ENDBRANCH  24  25
ENDBRANCH  23  24
ENDBRANCH  20  23
ENDBRANCH   1  21
TORSDOF 7
ENDMDL
MODEL 7
REMARK VINA RESULT:      -7.6      2.235      3.193
REMARK  Name = 
REMARK  7 active torsions:
REMARK  status: ('A' for Active; 'I' for Inactive)
REMARK    1  A    between atoms: C_2  and  N_3
REMARK    2  A    between atoms: N_3  and  C_4
REMARK    3  A    between atoms: N_3  and  C_6
REMARK    4  A    between atoms: C_6  and  C_7
REMARK    5  A    between atoms: C_7  and  N_8
REMARK    6  A    between atoms: C_9  and  C_11
REMARK    7  A    between atoms: C_15  and  C_16
REMARK                            x       y       z     vdW  Elec       q    Type
REMARK                         _______ _______ _______ _____ _____    ______ ____
ROOT
ATOM      1  C   UNL     1       4.540   5.743 -10.874  0.00  0.00    +0.066 A 
ATOM      2  C   UNL     1       3.233   5.941 -10.478  0.00  0.00    +0.001 A 
ATOM      3  C   UNL     1       2.100   6.208 -11.406  0.00  0.00    +0.033 C 
ATOM      4  C   UNL     1       3.141   5.804  -9.097  0.00  0.00    +0.077 A 
ATOM      5  N   UNL     1       4.345   5.305  -8.723  0.00  0.00    -0.250 NA
ATOM      6  C   UNL     1       5.246   5.476  -9.709  0.00  0.00    +0.063 A 
ATOM      7  C   UNL     1       6.717   5.718  -9.577  0.00  0.00    +0.052 C 
ENDROOT
BRANCH   4   8
ATOM      8  C   UNL     1       1.904   5.325  -8.466  0.00  0.00    +0.023 C 
ATOM      9  C   UNL     1       1.580   5.755  -7.271  0.00  0.00    +0.058 C 
ATOM     10  C   UNL     1       0.273   5.560  -6.632  0.00  0.00    +0.022 A 
ATOM     11  C   UNL     1       0.463   5.946  -5.311  0.00  0.00    +0.074 A 
ATOM     12  C   UNL     1      -0.643   5.795  -4.483  0.00  0.00    +0.019 A 
ATOM     13  C   UNL     1      -1.928   5.793  -5.012  0.00  0.00    +0.031 A 
ATOM     14  C   UNL     1      -2.112   5.518  -6.362  0.00  0.00    +0.140 A 
ATOM     15  F   UNL     1      -3.292   5.805  -6.984  0.00  0.00    -0.204 F 
ATOM     16  N   UNL     1       1.646   6.748  -5.225  0.00  0.00    -0.175 NA
ATOM     17  C   UNL     1      -0.979   5.163  -7.084  0.00  0.00    +0.031 A 
ATOM     18  C   UNL     1       2.295   6.784  -6.503  0.00  0.00    +0.269 C 
ATOM     19  O   UNL     1       3.144   7.626  -6.923  0.00  0.00    -0.268 OA
ENDBRANCH   4   8
BRANCH   1  21
ATOM     20  N   UNL     1       5.546   6.559 -13.027  0.00  0.00    -0.200 NA
ATOM     21  C   UNL     1       5.045   5.498 -12.233  0.00  0.00    +0.266 C 
ATOM     22  O   UNL     1       4.784   4.415 -12.839  0.00  0.00    -0.268 OA
BRANCH  20  23
ATOM     23  C   UNL     1       5.649   6.516 -14.465  0.00  0.00    +0.133 C 
BRANCH  23  24
ATOM     24  C   UNL     1       6.459   7.652 -15.034  0.00  0.00    +0.096 C 
BRANCH  24  25
ATOM     25  N   UNL     1       5.821   8.302 -16.150  0.00  0.00    -0.271 NA
BRANCH  25  27
ATOM     26  C   UNL     1       3.535   8.549 -16.835  0.00  0.00    +0.019 C 
ATOM     27  C   UNL     1       4.690   7.571 -16.668  0.00  0.00    +0.072 C 
ENDBRANCH  25  27
BRANCH  25  28
ATOM     28  C   UNL     1       6.740   8.735 -17.168  0.00  0.00    +0.072 C 
ATOM     29  C   UNL     1       6.457  10.137 -17.651  0.00  0.00    +0.019 C 
ENDBRANCH  25  28
ENDBRANCH  24  25
ENDBRANCH  23  24
ENDBRANCH  20  23
ENDBRANCH   1  21
TORSDOF 7
ENDMDL
MODEL 8
REMARK VINA RESULT:      -7.6      3.176      9.567
REMARK  Name = 
REMARK  7 active torsions:
REMARK  status: ('A' for Active; 'I' for Inactive)
REMARK    1  A    between atoms: C_2  and  N_3
REMARK    2  A    between atoms: N_3  and  C_4
REMARK    3  A    between atoms: N_3  and  C_6
REMARK    4  A    between atoms: C_6  and  C_7
REMARK    5  A    between atoms: C_7  and  N_8
REMARK    6  A    between atoms: C_9  and  C_11
REMARK    7  A    between atoms: C_15  and  C_16
REMARK                            x       y       z     vdW  Elec       q    Type
REMARK                         _______ _______ _______ _____ _____    ______ ____
ROOT
ATOM      1  C   UNL     1       0.801   6.097  -5.846  0.00  0.00    +0.066 A 
ATOM      2  C   UNL     1       1.990   6.443  -6.455  0.00  0.00    +0.001 A 
ATOM      3  C   UNL     1       3.058   7.261  -5.818  0.00  0.00    +0.033 C 
ATOM      4  C   UNL     1       2.048   5.872  -7.721  0.00  0.00    +0.077 A 
ATOM      5  N   UNL     1       0.998   5.013  -7.756  0.00  0.00    -0.250 NA
ATOM      6  C   UNL     1       0.133   5.296  -6.764  0.00  0.00    +0.063 A 
ATOM      7  C   UNL     1      -1.354   5.134  -6.769  0.00  0.00    +0.052 C 
ENDROOT
BRANCH   4   8
ATOM      8  C   UNL     1       3.334   5.504  -8.327  0.00  0.00    +0.023 C 
ATOM      9  C   UNL     1       3.496   5.623  -9.623  0.00  0.00    +0.058 C 
ATOM     10  C   UNL     1       4.783   5.534 -10.322  0.00  0.00    +0.022 A 
ATOM     11  C   UNL     1       4.450   5.465 -11.669  0.00  0.00    +0.074 A 
ATOM     12  C   UNL     1       5.524   5.318 -12.540  0.00  0.00    +0.019 A 
ATOM     13  C   UNL     1       6.795   5.746 -12.175  0.00  0.00    +0.031 A 
ATOM     14  C   UNL     1       7.096   5.925 -10.830  0.00  0.00    +0.140 A 
ATOM     15  F   UNL     1       8.200   6.628 -10.445  0.00  0.00    -0.204 F 
ATOM     16  N   UNL     1       3.109   5.933 -11.843  0.00  0.00    -0.175 NA
ATOM     17  C   UNL     1       6.112   5.564  -9.918  0.00  0.00    +0.031 A 
ATOM     18  C   UNL     1       2.526   6.204 -10.561  0.00  0.00    +0.269 C 
ATOM     19  O   UNL     1       1.519   6.930 -10.299  0.00  0.00    -0.268 OA
ENDBRANCH   4   8
BRANCH   1  21
ATOM     20  N   UNL     1       0.938   5.296  -3.469  0.00  0.00    -0.200 NA
ATOM     21  C   UNL     1       0.444   6.217  -4.426  0.00  0.00    +0.266 C 
ATOM     22  O   UNL     1      -0.528   6.945  -4.058  0.00  0.00    -0.268 OA
BRANCH  20  23
ATOM     23  C   UNL     1       0.329   5.059  -2.183  0.00  0.00    +0.133 C 
BRANCH  23  24
ATOM     24  C   UNL     1       1.331   4.735  -1.105  0.00  0.00    +0.096 C 
BRANCH  24  25
ATOM     25  N   UNL     1       1.732   5.886  -0.337  0.00  0.00    -0.271 NA
BRANCH  25  27
ATOM     26  C   UNL     1       0.628   7.449   1.109  0.00  0.00    +0.019 C 
ATOM     27  C   UNL     1       0.743   6.936  -0.320  0.00  0.00    +0.072 C 
ENDBRANCH  25  27
BRANCH  25  28
ATOM     28  C   UNL     1       3.058   6.352  -0.645  0.00  0.00    +0.072 C 
ATOM     29  C   UNL     1       3.952   5.257  -1.176  0.00  0.00    +0.019 C 
ENDBRANCH  25  28
ENDBRANCH  24  25
ENDBRANCH  23  24
ENDBRANCH  20  23
ENDBRANCH   1  21
TORSDOF 7
ENDMDL
MODEL 9
REMARK VINA RESULT:      -7.6      2.777      4.601
REMARK  Name = 
REMARK  7 active torsions:
REMARK  status: ('A' for Active; 'I' for Inactive)
REMARK    1  A    between atoms: C_2  and  N_3
REMARK    2  A    between atoms: N_3  and  C_4
REMARK    3  A    between atoms: N_3  and  C_6
REMARK    4  A    between atoms: C_6  and  C_7
REMARK    5  A    between atoms: C_7  and  N_8
REMARK    6  A    between atoms: C_9  and  C_11
REMARK    7  A    between atoms: C_15  and  C_16
REMARK                            x       y       z     vdW  Elec       q    Type
REMARK                         _______ _______ _______ _____ _____    ______ ____
ROOT
ATOM      1  C   UNL     1       4.695   5.681 -11.930  0.00  0.00    +0.066 A 
ATOM      2  C   UNL     1       4.850   5.644 -10.559  0.00  0.00    +0.001 A 
ATOM      3  C   UNL     1       6.153   5.478  -9.859  0.00  0.00    +0.033 C 
ATOM      4  C   UNL     1       3.615   5.833  -9.947  0.00  0.00    +0.077 A 
ATOM      5  N   UNL     1       2.788   6.204 -10.956  0.00  0.00    -0.250 NA
ATOM      6  C   UNL     1       3.342   5.904 -12.146  0.00  0.00    +0.063 A 
ATOM      7  C   UNL     1       2.645   5.501 -13.407  0.00  0.00    +0.052 C 
ENDROOT
BRANCH   4   8
ATOM      8  C   UNL     1       3.515   6.468  -8.627  0.00  0.00    +0.023 C 
ATOM      9  C   UNL     1       2.980   5.805  -7.630  0.00  0.00    +0.058 C 
ATOM     10  C   UNL     1       3.040   6.211  -6.221  0.00  0.00    +0.022 A 
ATOM     11  C   UNL     1       2.144   5.370  -5.571  0.00  0.00    +0.074 A 
ATOM     12  C   UNL     1       1.986   5.607  -4.211  0.00  0.00    +0.019 A 
ATOM     13  C   UNL     1       2.995   6.220  -3.478  0.00  0.00    +0.031 A 
ATOM     14  C   UNL     1       3.961   6.970  -4.138  0.00  0.00    +0.140 A 
ATOM     15  F   UNL     1       5.123   7.323  -3.517  0.00  0.00    -0.204 F 
ATOM     16  N   UNL     1       1.885   4.234  -6.402  0.00  0.00    -0.175 NA
ATOM     17  C   UNL     1       3.792   7.136  -5.507  0.00  0.00    +0.031 A 
ATOM     18  C   UNL     1       2.543   4.403  -7.665  0.00  0.00    +0.269 C 
ATOM     19  O   UNL     1       2.839   3.510  -8.516  0.00  0.00    -0.268 OA
ENDBRANCH   4   8
BRANCH   1  21
ATOM     20  N   UNL     1       5.977   7.073 -13.583  0.00  0.00    -0.200 NA
ATOM     21  C   UNL     1       5.740   5.826 -12.953  0.00  0.00    +0.266 C 
ATOM     22  O   UNL     1       6.251   4.808 -13.511  0.00  0.00    -0.268 OA
BRANCH  20  23
ATOM     23  C   UNL     1       6.639   7.226 -14.855  0.00  0.00    +0.133 C 
BRANCH  23  24
ATOM     24  C   UNL     1       5.735   7.771 -15.930  0.00  0.00    +0.096 C 
BRANCH  24  25
ATOM     25  N   UNL     1       6.329   8.849 -16.679  0.00  0.00    -0.271 NA
BRANCH  25  27
ATOM     26  C   UNL     1       4.068   9.599 -16.959  0.00  0.00    +0.019 C 
ATOM     27  C   UNL     1       5.427   9.451 -17.629  0.00  0.00    +0.072 C 
ENDBRANCH  25  27
BRANCH  25  28
ATOM     28  C   UNL     1       7.616   8.524 -17.235  0.00  0.00    +0.072 C 
ATOM     29  C   UNL     1       7.529   8.036 -18.661  0.00  0.00    +0.019 C 
ENDBRANCH  25  28
ENDBRANCH  24  25
ENDBRANCH  23  24
ENDBRANCH  20  23
ENDBRANCH   1  21
TORSDOF 7
ENDMDL
