MODEL 1
REMARK VINA RESULT:      -7.5      0.000      0.000
REMARK  Name = 
REMARK  4 active torsions:
REMARK  status: ('A' for Active; 'I' for Inactive)
REMARK    1  A    between atoms: N_2  and  C_4
REMARK    2  A    between atoms: C_4  and  C_5
REMARK    3  A    between atoms: C_5  and  C_6
REMARK    4  A    between atoms: C_6  and  N_7
REMARK                            x       y       z     vdW  Elec       q    Type
REMARK                         _______ _______ _______ _____ _____    ______ ____
ROOT
ATOM      1  N   UNL     1       1.285   5.463  -5.484  0.00  0.00    -0.287 N 
ATOM      2  C   UNL     1       2.258   5.483  -4.431  0.00  0.00    +0.048 A 
ATOM      3  C   UNL     1       1.951   5.241  -3.097  0.00  0.00    -0.008 A 
ATOM      4  C   UNL     1       3.008   5.380  -2.206  0.00  0.00    -0.002 A 
ATOM      5  C   UNL     1       4.134   6.115  -2.560  0.00  0.00    +0.011 A 
ATOM      6  C   UNL     1       4.291   6.622  -3.844  0.00  0.00    +0.059 A 
ATOM      7 CL   UNL     1       5.274   8.039  -4.170  0.00  0.00    -0.082 Cl
ATOM      8  C   UNL     1       0.617   5.191  -2.437  0.00  0.00    +0.032 C 
ATOM      9  C   UNL     1      -0.307   6.284  -2.930  0.00  0.00    +0.032 C 
ATOM     10  C   UNL     1      -0.893   5.957  -4.266  0.00  0.00    -0.008 A 
ATOM     11  C   UNL     1      -2.048   6.694  -4.493  0.00  0.00    -0.003 A 
ATOM     12  C   UNL     1      -2.704   6.400  -5.682  0.00  0.00    -0.000 A 
ATOM     13  C   UNL     1      -2.105   5.605  -6.650  0.00  0.00    +0.001 A 
ATOM     14  C   UNL     1      -0.727   5.433  -6.614  0.00  0.00    +0.015 A 
ATOM     15  C   UNL     1       3.465   6.057  -4.812  0.00  0.00    +0.026 A 
ATOM     16  C   UNL     1      -0.131   5.657  -5.389  0.00  0.00    +0.048 A 
ENDROOT
BRANCH   1  17
ATOM     17  C   UNL     1       1.886   5.372  -6.787  0.00  0.00    +0.097 C 
BRANCH  17  18
ATOM     18  C   UNL     1       2.211   3.926  -7.111  0.00  0.00    +0.039 C 
BRANCH  18  19
ATOM     19  C   UNL     1       2.638   3.773  -8.545  0.00  0.00    +0.074 C 
BRANCH  19  21
ATOM     20  C   UNL     1       3.329   5.378 -10.180  0.00  0.00    +0.090 C 
ATOM     21  N   UNL     1       2.247   4.921  -9.343  0.00  0.00    -0.270 NA
ATOM     22  C   UNL     1       1.081   4.620 -10.155  0.00  0.00    +0.090 C 
ENDBRANCH  19  21
ENDBRANCH  18  19
ENDBRANCH  17  18
ENDBRANCH   1  17
TORSDOF 4
ENDMDL
MODEL 2
REMARK VINA RESULT:      -7.4      2.205      5.968
REMARK  Name = 
REMARK  4 active torsions:
REMARK  status: ('A' for Active; 'I' for Inactive)
REMARK    1  A    between atoms: N_2  and  C_4
REMARK    2  A    between atoms: C_4  and  C_5
REMARK    3  A    between atoms: C_5  and  C_6
REMARK    4  A    between atoms: C_6  and  N_7
REMARK                            x       y       z     vdW  Elec       q    Type
REMARK                         _______ _______ _______ _____ _____    ______ ____
ROOT
ATOM      1  N   UNL     1       1.662   6.120  -6.207  0.00  0.00    -0.287 N 
ATOM      2  C   UNL     1       0.252   6.036  -5.962  0.00  0.00    +0.048 A 
ATOM      3  C   UNL     1      -0.643   5.421  -6.830  0.00  0.00    -0.008 A 
ATOM      4  C   UNL     1      -1.982   5.505  -6.468  0.00  0.00    -0.002 A 
ATOM      5  C   UNL     1      -2.407   6.480  -5.572  0.00  0.00    +0.011 A 
ATOM      6  C   UNL     1      -1.502   7.310  -4.924  0.00  0.00    +0.059 A 
ATOM      7 CL   UNL     1      -1.951   8.905  -4.347  0.00  0.00    -0.082 Cl
ATOM      8  C   UNL     1      -0.433   4.989  -8.240  0.00  0.00    +0.032 C 
ATOM      9  C   UNL     1       0.358   6.004  -9.038  0.00  0.00    +0.032 C 
ATOM     10  C   UNL     1       1.821   5.929  -8.738  0.00  0.00    -0.008 A 
ATOM     11  C   UNL     1       2.565   6.498  -9.763  0.00  0.00    -0.003 A 
ATOM     12  C   UNL     1       3.943   6.407  -9.605  0.00  0.00    -0.000 A 
ATOM     13  C   UNL     1       4.497   5.989  -8.402  0.00  0.00    +0.001 A 
ATOM     14  C   UNL     1       3.717   6.042  -7.253  0.00  0.00    +0.015 A 
ATOM     15  C   UNL     1      -0.178   6.878  -4.943  0.00  0.00    +0.026 A 
ATOM     16  C   UNL     1       2.352   6.048  -7.460  0.00  0.00    +0.048 A 
ENDROOT
BRANCH   1  17
ATOM     17  C   UNL     1       2.406   6.457  -5.024  0.00  0.00    +0.097 C 
BRANCH  17  18
ATOM     18  C   UNL     1       2.707   5.205  -4.223  0.00  0.00    +0.039 C 
BRANCH  18  19
ATOM     19  C   UNL     1       3.985   5.351  -3.443  0.00  0.00    +0.074 C 
BRANCH  19  21
ATOM     20  C   UNL     1       4.054   4.705  -1.139  0.00  0.00    +0.090 C 
ATOM     21  N   UNL     1       3.728   5.756  -2.072  0.00  0.00    -0.270 NA
ATOM     22  C   UNL     1       4.462   6.965  -1.738  0.00  0.00    +0.090 C 
ENDBRANCH  19  21
ENDBRANCH  18  19
ENDBRANCH  17  18
ENDBRANCH   1  17
TORSDOF 4
ENDMDL
MODEL 3
REMARK VINA RESULT:      -7.2      3.438      8.493
REMARK  Name = 
REMARK  4 active torsions:
REMARK  status: ('A' for Active; 'I' for Inactive)
REMARK    1  A    between atoms: N_2  and  C_4
REMARK    2  A    between atoms: C_4  and  C_5
REMARK    3  A    between atoms: C_5  and  C_6
REMARK    4  A    between atoms: C_6  and  N_7
REMARK                            x       y       z     vdW  Elec       q    Type
REMARK                         _______ _______ _______ _____ _____    ______ ____
ROOT
ATOM      1  N   UNL     1       3.917   5.589 -10.568  0.00  0.00    -0.287 N 
ATOM      2  C   UNL     1       2.925   5.496 -11.599  0.00  0.00    +0.048 A 
ATOM      3  C   UNL     1       3.226   5.235 -12.931  0.00  0.00    -0.008 A 
ATOM      4  C   UNL     1       2.144   5.259 -13.803  0.00  0.00    -0.002 A 
ATOM      5  C   UNL     1       0.969   5.912 -13.448  0.00  0.00    +0.011 A 
ATOM      6  C   UNL     1       0.795   6.446 -12.178  0.00  0.00    +0.059 A 
ATOM      7 CL   UNL     1      -0.293   7.790 -11.875  0.00  0.00    -0.082 Cl
ATOM      8  C   UNL     1       4.546   5.271 -13.618  0.00  0.00    +0.032 C 
ATOM      9  C   UNL     1       5.388   6.451 -13.180  0.00  0.00    +0.032 C 
ATOM     10  C   UNL     1       6.024   6.217 -11.847  0.00  0.00    -0.008 A 
ATOM     11  C   UNL     1       7.119   7.051 -11.669  0.00  0.00    -0.003 A 
ATOM     12  C   UNL     1       7.820   6.851 -10.485  0.00  0.00    -0.000 A 
ATOM     13  C   UNL     1       7.306   6.043  -9.480  0.00  0.00    +0.001 A 
ATOM     14  C   UNL     1       5.946   5.759  -9.481  0.00  0.00    +0.015 A 
ATOM     15  C   UNL     1       1.683   5.983 -11.210  0.00  0.00    +0.026 A 
ATOM     16  C   UNL     1       5.310   5.893 -10.699  0.00  0.00    +0.048 A 
ENDROOT
BRANCH   1  17
ATOM     17  C   UNL     1       3.350   5.493  -9.249  0.00  0.00    +0.097 C 
BRANCH  17  18
ATOM     18  C   UNL     1       3.296   4.043  -8.810  0.00  0.00    +0.039 C 
BRANCH  18  19
ATOM     19  C   UNL     1       2.286   3.843  -7.714  0.00  0.00    +0.074 C 
BRANCH  19  21
ATOM     20  C   UNL     1       0.871   5.365  -6.525  0.00  0.00    +0.090 C 
ATOM     21  N   UNL     1       2.232   4.991  -6.825  0.00  0.00    -0.270 NA
ATOM     22  C   UNL     1       2.962   4.736  -5.596  0.00  0.00    +0.090 C 
ENDBRANCH  19  21
ENDBRANCH  18  19
ENDBRANCH  17  18
ENDBRANCH   1  17
TORSDOF 4
ENDMDL
MODEL 4
REMARK VINA RESULT:      -7.2      2.484      4.064
REMARK  Name = 
REMARK  4 active torsions:
REMARK  status: ('A' for Active; 'I' for Inactive)
REMARK    1  A    between atoms: N_2  and  C_4
REMARK    2  A    between atoms: C_4  and  C_5
REMARK    3  A    between atoms: C_5  and  C_6
REMARK    4  A    between atoms: C_6  and  N_7
REMARK                            x       y       z     vdW  Elec       q    Type
REMARK                         _______ _______ _______ _____ _____    ______ ____
ROOT
ATOM      1  N   UNL     1       1.348   5.214  -8.281  0.00  0.00    -0.287 N 
ATOM      2  C   UNL     1       2.779   5.186  -8.367  0.00  0.00    +0.048 A 
ATOM      3  C   UNL     1       3.612   5.070  -7.261  0.00  0.00    -0.008 A 
ATOM      4  C   UNL     1       4.974   5.140  -7.528  0.00  0.00    -0.002 A 
ATOM      5  C   UNL     1       5.429   5.710  -8.712  0.00  0.00    +0.011 A 
ATOM      6  C   UNL     1       4.547   6.109  -9.707  0.00  0.00    +0.059 A 
ATOM      7 CL   UNL     1       4.951   7.374 -10.855  0.00  0.00    -0.082 Cl
ATOM      8  C   UNL     1       3.279   5.223  -5.817  0.00  0.00    +0.032 C 
ATOM      9  C   UNL     1       2.341   6.385  -5.566  0.00  0.00    +0.032 C 
ATOM     10  C   UNL     1       0.927   6.044  -5.913  0.00  0.00    -0.008 A 
ATOM     11  C   UNL     1       0.041   6.897  -5.270  0.00  0.00    -0.003 A 
ATOM     12  C   UNL     1      -1.303   6.606  -5.476  0.00  0.00    -0.000 A 
ATOM     13  C   UNL     1      -1.694   5.684  -6.437  0.00  0.00    +0.001 A 
ATOM     14  C   UNL     1      -0.800   5.351  -7.447  0.00  0.00    +0.015 A 
ATOM     15  C   UNL     1       3.260   5.586  -9.608  0.00  0.00    +0.026 A 
ATOM     16  C   UNL     1       0.532   5.582  -7.162  0.00  0.00    +0.048 A 
ENDROOT
BRANCH   1  17
ATOM     17  C   UNL     1       0.715   4.967  -9.548  0.00  0.00    +0.097 C 
BRANCH  17  18
ATOM     18  C   UNL     1       0.394   6.280 -10.235  0.00  0.00    +0.039 C 
BRANCH  18  19
ATOM     19  C   UNL     1       0.206   6.089 -11.715  0.00  0.00    +0.074 C 
BRANCH  19  21
ATOM     20  C   UNL     1       2.160   5.918 -13.088  0.00  0.00    +0.090 C 
ATOM     21  N   UNL     1       1.208   6.814 -12.477  0.00  0.00    -0.270 NA
ATOM     22  C   UNL     1       0.590   7.652 -13.489  0.00  0.00    +0.090 C 
ENDBRANCH  19  21
ENDBRANCH  18  19
ENDBRANCH  17  18
ENDBRANCH   1  17
TORSDOF 4
ENDMDL
MODEL 5
REMARK VINA RESULT:      -7.1      1.300      2.309
REMARK  Name = 
REMARK  4 active torsions:
REMARK  status: ('A' for Active; 'I' for Inactive)
REMARK    1  A    between atoms: N_2  and  C_4
REMARK    2  A    between atoms: C_4  and  C_5
REMARK    3  A    between atoms: C_5  and  C_6
REMARK    4  A    between atoms: C_6  and  N_7
REMARK                            x       y       z     vdW  Elec       q    Type
REMARK                         _______ _______ _______ _____ _____    ______ ____
ROOT
ATOM      1  N   UNL     1       0.401   6.107  -3.986  0.00  0.00    -0.287 N 
ATOM      2  C   UNL     1       1.739   5.805  -3.568  0.00  0.00    +0.048 A 
ATOM      3  C   UNL     1       2.040   5.114  -2.400  0.00  0.00    -0.008 A 
ATOM      4  C   UNL     1       3.394   4.981  -2.116  0.00  0.00    -0.002 A 
ATOM      5  C   UNL     1       4.321   5.834  -2.704  0.00  0.00    +0.011 A 
ATOM      6  C   UNL     1       3.945   6.752  -3.677  0.00  0.00    +0.059 A 
ATOM      7 CL   UNL     1       4.847   8.231  -3.958  0.00  0.00    -0.082 Cl
ATOM      8  C   UNL     1       1.155   4.793  -1.246  0.00  0.00    +0.032 C 
ATOM      9  C   UNL     1       0.257   5.954  -0.874  0.00  0.00    +0.032 C 
ATOM     10  C   UNL     1      -0.907   6.078  -1.805  0.00  0.00    -0.008 A 
ATOM     11  C   UNL     1      -1.934   6.804  -1.218  0.00  0.00    -0.003 A 
ATOM     12  C   UNL     1      -3.089   6.907  -1.984  0.00  0.00    -0.000 A 
ATOM     13  C   UNL     1      -3.100   6.511  -3.314  0.00  0.00    +0.001 A 
ATOM     14  C   UNL     1      -1.890   6.388  -3.985  0.00  0.00    +0.015 A 
ATOM     15  C   UNL     1       2.705   6.519  -4.267  0.00  0.00    +0.026 A 
ATOM     16  C   UNL     1      -0.781   6.205  -3.183  0.00  0.00    +0.048 A 
ENDROOT
BRANCH   1  17
ATOM     17  C   UNL     1       0.330   6.486  -5.372  0.00  0.00    +0.097 C 
BRANCH  17  18
ATOM     18  C   UNL     1       0.276   5.249  -6.248  0.00  0.00    +0.039 C 
BRANCH  18  19
ATOM     19  C   UNL     1       1.117   5.419  -7.483  0.00  0.00    +0.074 C 
BRANCH  19  21
ATOM     20  C   UNL     1       2.192   3.559  -6.428  0.00  0.00    +0.090 C 
ATOM     21  N   UNL     1       2.304   4.583  -7.438  0.00  0.00    -0.270 NA
ATOM     22  C   UNL     1       2.568   3.980  -8.733  0.00  0.00    +0.090 C 
ENDBRANCH  19  21
ENDBRANCH  18  19
ENDBRANCH  17  18
ENDBRANCH   1  17
TORSDOF 4
ENDMDL
MODEL 6
REMARK VINA RESULT:      -7.1      1.581      2.169
REMARK  Name = 
REMARK  4 active torsions:
REMARK  status: ('A' for Active; 'I' for Inactive)
REMARK    1  A    between atoms: N_2  and  C_4
REMARK    2  A    between atoms: C_4  and  C_5
REMARK    3  A    between atoms: C_5  and  C_6
REMARK    4  A    between atoms: C_6  and  N_7
REMARK                            x       y       z     vdW  Elec       q    Type
REMARK                         _______ _______ _______ _____ _____    ______ ____
ROOT
ATOM      1  N   UNL     1       0.992   5.481  -4.165  0.00  0.00    -0.287 N 
ATOM      2  C   UNL     1       1.326   5.761  -2.799  0.00  0.00    +0.048 A 
ATOM      3  C   UNL     1       0.403   5.719  -1.760  0.00  0.00    -0.008 A 
ATOM      4  C   UNL     1       0.889   6.097  -0.514  0.00  0.00    -0.002 A 
ATOM      5  C   UNL     1       2.049   6.858  -0.414  0.00  0.00    +0.011 A 
ATOM      6  C   UNL     1       2.817   7.154  -1.532  0.00  0.00    +0.059 A 
ATOM      7 CL   UNL     1       3.842   8.578  -1.604  0.00  0.00    -0.082 Cl
ATOM      8  C   UNL     1      -1.084   5.664  -1.829  0.00  0.00    +0.032 C 
ATOM      9  C   UNL     1      -1.641   6.575  -2.902  0.00  0.00    +0.032 C 
ATOM     10  C   UNL     1      -1.500   5.979  -4.266  0.00  0.00    -0.008 A 
ATOM     11  C   UNL     1      -2.392   6.564  -5.155  0.00  0.00    -0.003 A 
ATOM     12  C   UNL     1      -2.384   6.020  -6.434  0.00  0.00    -0.000 A 
ATOM     13  C   UNL     1      -1.392   5.130  -6.824  0.00  0.00    +0.001 A 
ATOM     14  C   UNL     1      -0.209   5.086  -6.096  0.00  0.00    +0.015 A 
ATOM     15  C   UNL     1       2.568   6.367  -2.652  0.00  0.00    +0.026 A 
ATOM     16  C   UNL     1      -0.288   5.563  -4.803  0.00  0.00    +0.048 A 
ENDROOT
BRANCH   1  17
ATOM     17  C   UNL     1       2.154   5.226  -4.974  0.00  0.00    +0.097 C 
BRANCH  17  18
ATOM     18  C   UNL     1       2.574   6.492  -5.696  0.00  0.00    +0.039 C 
BRANCH  18  19
ATOM     19  C   UNL     1       3.647   6.209  -6.711  0.00  0.00    +0.074 C 
BRANCH  19  21
ATOM     20  C   UNL     1       2.841   5.527  -8.859  0.00  0.00    +0.090 C 
ATOM     21  N   UNL     1       3.249   6.642  -8.040  0.00  0.00    -0.270 NA
ATOM     22  C   UNL     1       2.185   7.628  -7.972  0.00  0.00    +0.090 C 
ENDBRANCH  19  21
ENDBRANCH  18  19
ENDBRANCH  17  18
ENDBRANCH   1  17
TORSDOF 4
ENDMDL
MODEL 7
REMARK VINA RESULT:      -7.0      2.428      4.111
REMARK  Name = 
REMARK  4 active torsions:
REMARK  status: ('A' for Active; 'I' for Inactive)
REMARK    1  A    between atoms: N_2  and  C_4
REMARK    2  A    between atoms: C_4  and  C_5
REMARK    3  A    between atoms: C_5  and  C_6
REMARK    4  A    between atoms: C_6  and  N_7
REMARK                            x       y       z     vdW  Elec       q    Type
REMARK                         _______ _______ _______ _____ _____    ______ ____
ROOT
ATOM      1  N   UNL     1       3.462   5.708  -8.158  0.00  0.00    -0.287 N 
ATOM      2  C   UNL     1       3.772   5.432  -6.785  0.00  0.00    +0.048 A 
ATOM      3  C   UNL     1       3.033   4.563  -5.992  0.00  0.00    -0.008 A 
ATOM      4  C   UNL     1       3.434   4.478  -4.664  0.00  0.00    -0.002 A 
ATOM      5  C   UNL     1       4.203   5.488  -4.097  0.00  0.00    +0.011 A 
ATOM      6  C   UNL     1       4.694   6.538  -4.862  0.00  0.00    +0.059 A 
ATOM      7 CL   UNL     1       5.064   8.105  -4.162  0.00  0.00    -0.082 Cl
ATOM      8  C   UNL     1       1.688   3.974  -6.247  0.00  0.00    +0.032 C 
ATOM      9  C   UNL     1       0.728   4.980  -6.845  0.00  0.00    +0.032 C 
ATOM     10  C   UNL     1       0.977   5.188  -8.305  0.00  0.00    -0.008 A 
ATOM     11  C   UNL     1      -0.145   5.719  -8.926  0.00  0.00    -0.003 A 
ATOM     12  C   UNL     1      -0.031   5.876 -10.303  0.00  0.00    -0.000 A 
ATOM     13  C   UNL     1       1.194   5.729 -10.938  0.00  0.00    +0.001 A 
ATOM     14  C   UNL     1       2.355   5.818 -10.180  0.00  0.00    +0.015 A 
ATOM     15  C   UNL     1       4.682   6.328  -6.238  0.00  0.00    +0.026 A 
ATOM     16  C   UNL     1       2.204   5.572  -8.829  0.00  0.00    +0.048 A 
ENDROOT
BRANCH   1  17
ATOM     17  C   UNL     1       4.557   6.327  -8.855  0.00  0.00    +0.097 C 
BRANCH  17  18
ATOM     18  C   UNL     1       5.569   5.276  -9.272  0.00  0.00    +0.039 C 
BRANCH  18  19
ATOM     19  C   UNL     1       6.810   5.911  -9.838  0.00  0.00    +0.074 C 
BRANCH  19  21
ATOM     20  C   UNL     1       6.088   5.515 -12.085  0.00  0.00    +0.090 C 
ATOM     21  N   UNL     1       7.155   5.344 -11.130  0.00  0.00    -0.270 NA
ATOM     22  C   UNL     1       8.383   5.925 -11.644  0.00  0.00    +0.090 C 
ENDBRANCH  19  21
ENDBRANCH  18  19
ENDBRANCH  17  18
ENDBRANCH   1  17
TORSDOF 4
ENDMDL
MODEL 8
REMARK VINA RESULT:      -7.0      3.328      5.706
REMARK  Name = 
REMARK  4 active torsions:
REMARK  status: ('A' for Active; 'I' for Inactive)
REMARK    1  A    between atoms: N_2  and  C_4
REMARK    2  A    between atoms: C_4  and  C_5
REMARK    3  A    between atoms: C_5  and  C_6
REMARK    4  A    between atoms: C_6  and  N_7
REMARK                            x       y       z     vdW  Elec       q    Type
REMARK                         _______ _______ _______ _____ _____    ______ ____
ROOT
ATOM      1  N   UNL     1       2.940   6.027 -10.010  0.00  0.00    -0.287 N 
ATOM      2  C   UNL     1       4.369   6.011 -10.129  0.00  0.00    +0.048 A 
ATOM      3  C   UNL     1       5.207   5.366  -9.227  0.00  0.00    -0.008 A 
ATOM      4  C   UNL     1       6.568   5.523  -9.459  0.00  0.00    -0.002 A 
ATOM      5  C   UNL     1       7.031   6.576 -10.241  0.00  0.00    +0.011 A 
ATOM      6  C   UNL     1       6.153   7.419 -10.910  0.00  0.00    +0.059 A 
ATOM      7 CL   UNL     1       6.585   9.067 -11.331  0.00  0.00    -0.082 Cl
ATOM      8  C   UNL     1       4.891   4.825  -7.877  0.00  0.00    +0.032 C 
ATOM      9  C   UNL     1       3.989   5.750  -7.086  0.00  0.00    +0.032 C 
ATOM     10  C   UNL     1       2.563   5.645  -7.524  0.00  0.00    -0.008 A 
ATOM     11  C   UNL     1       1.708   6.112  -6.535  0.00  0.00    -0.003 A 
ATOM     12  C   UNL     1       0.355   5.983  -6.825  0.00  0.00    -0.000 A 
ATOM     13  C   UNL     1      -0.072   5.636  -8.099  0.00  0.00    +0.001 A 
ATOM     14  C   UNL     1       0.804   5.800  -9.166  0.00  0.00    +0.015 A 
ATOM     15  C   UNL     1       4.852   6.940 -11.044  0.00  0.00    +0.026 A 
ATOM     16  C   UNL     1       2.144   5.839  -8.834  0.00  0.00    +0.048 A 
ENDROOT
BRANCH   1  17
ATOM     17  C   UNL     1       2.291   6.424 -11.230  0.00  0.00    +0.097 C 
BRANCH  17  18
ATOM     18  C   UNL     1       2.373   5.305 -12.252  0.00  0.00    +0.039 C 
BRANCH  18  19
ATOM     19  C   UNL     1       2.546   5.850 -13.643  0.00  0.00    +0.074 C 
BRANCH  19  21
ATOM     20  C   UNL     1       0.766   4.276 -13.931  0.00  0.00    +0.090 C 
ATOM     21  N   UNL     1       1.540   5.326 -14.549  0.00  0.00    -0.270 NA
ATOM     22  C   UNL     1       0.661   6.381 -15.022  0.00  0.00    +0.090 C 
ENDBRANCH  19  21
ENDBRANCH  18  19
ENDBRANCH  17  18
ENDBRANCH   1  17
TORSDOF 4
ENDMDL
MODEL 9
REMARK VINA RESULT:      -6.9      1.991      5.087
REMARK  Name = 
REMARK  4 active torsions:
REMARK  status: ('A' for Active; 'I' for Inactive)
REMARK    1  A    between atoms: N_2  and  C_4
REMARK    2  A    between atoms: C_4  and  C_5
REMARK    3  A    between atoms: C_5  and  C_6
REMARK    4  A    between atoms: C_6  and  N_7
REMARK                            x       y       z     vdW  Elec       q    Type
REMARK                         _______ _______ _______ _____ _____    ______ ____
ROOT
ATOM      1  N   UNL     1       1.023   6.196  -5.471  0.00  0.00    -0.287 N 
ATOM      2  C   UNL     1       1.837   6.537  -4.341  0.00  0.00    +0.048 A 
ATOM      3  C   UNL     1       3.145   6.993  -4.448  0.00  0.00    -0.008 A 
ATOM      4  C   UNL     1       3.806   7.200  -3.243  0.00  0.00    -0.002 A 
ATOM      5  C   UNL     1       3.352   6.590  -2.079  0.00  0.00    +0.011 A 
ATOM      6  C   UNL     1       2.167   5.866  -2.058  0.00  0.00    +0.059 A 
ATOM      7 CL   UNL     1       1.884   4.580  -0.897  0.00  0.00    -0.082 Cl
ATOM      8  C   UNL     1       4.053   6.970  -5.629  0.00  0.00    +0.032 C 
ATOM      9  C   UNL     1       3.954   5.671  -6.401  0.00  0.00    +0.032 C 
ATOM     10  C   UNL     1       2.735   5.629  -7.266  0.00  0.00    -0.008 A 
ATOM     11  C   UNL     1       2.882   4.694  -8.281  0.00  0.00    -0.003 A 
ATOM     12  C   UNL     1       1.825   4.638  -9.181  0.00  0.00    -0.000 A 
ATOM     13  C   UNL     1       0.634   5.303  -8.925  0.00  0.00    +0.001 A 
ATOM     14  C   UNL     1       0.351   5.689  -7.620  0.00  0.00    +0.015 A 
ATOM     15  C   UNL     1       1.313   6.090  -3.134  0.00  0.00    +0.026 A 
ATOM     16  C   UNL     1       1.444   5.810  -6.785  0.00  0.00    +0.048 A 
ENDROOT
BRANCH   1  17
ATOM     17  C   UNL     1      -0.374   6.113  -5.139  0.00  0.00    +0.097 C 
BRANCH  17  18
ATOM     18  C   UNL     1      -0.946   7.505  -4.948  0.00  0.00    +0.039 C 
BRANCH  18  19
ATOM     19  C   UNL     1      -2.282   7.453  -4.258  0.00  0.00    +0.074 C 
BRANCH  19  21
ATOM     20  C   UNL     1      -2.022   7.352  -1.880  0.00  0.00    +0.090 C 
ATOM     21  N   UNL     1      -2.243   6.594  -3.088  0.00  0.00    -0.270 NA
ATOM     22  C   UNL     1      -3.463   5.815  -2.971  0.00  0.00    +0.090 C 
ENDBRANCH  19  21
ENDBRANCH  18  19
ENDBRANCH  17  18
ENDBRANCH   1  17
TORSDOF 4
ENDMDL
