MODEL 1
REMARK VINA RESULT:      -7.0      0.000      0.000
REMARK  Name = 
REMARK  8 active torsions:
REMARK  status: ('A' for Active; 'I' for Inactive)
REMARK    1  A    between atoms: O_2  and  C_3
REMARK    2  A    between atoms: C_3  and  C_5
REMARK    3  A    between atoms: C_11  and  C_12
REMARK    4  A    between atoms: C_12  and  O_14
REMARK    5  A    between atoms: O_14  and  C_15
REMARK    6  A    between atoms: C_15  and  C_16
REMARK    7  A    between atoms: C_19  and  C_20
REMARK    8  A    between atoms: C_25  and  N_26
REMARK                            x       y       z     vdW  Elec       q    Type
REMARK                         _______ _______ _______ _____ _____    ______ ____
ROOT
ATOM      1  C   UNL     1      -0.129   5.821  -3.659  0.00  0.00    +0.073 C 
ATOM      2  C   UNL     1       1.207   6.754  -3.837  0.00  0.00    +0.087 C 
ATOM      3  C   UNL     1       1.480   6.161  -5.327  0.00  0.00    +0.073 C 
ATOM      4  C   UNL     1       0.601   6.767  -6.138  0.00  0.00    +0.051 C 
ATOM      5  C   UNL     1       1.011   6.588  -7.565  0.00  0.00    +0.049 C 
ATOM      6  N   UNL     1      -0.766   6.953  -5.723  0.00  0.00    -0.221 NA
ATOM      7  C   UNL     1      -1.059   6.130  -4.575  0.00  0.00    +0.051 C 
ATOM      8  C   UNL     1      -2.447   5.626  -4.313  0.00  0.00    +0.049 C 
ENDROOT
BRANCH   2   9
ATOM      9  C   UNL     1       2.251   5.739  -3.098  0.00  0.00    +0.055 A 
ATOM     10  C   UNL     1       3.523   6.311  -3.064  0.00  0.00    +0.287 A 
ATOM     11  C   UNL     1       4.444   5.792  -2.157  0.00  0.00    +0.075 A 
ATOM     12  C   UNL     1       4.083   4.677  -1.407  0.00  0.00    +0.006 A 
ATOM     13  C   UNL     1       2.745   4.550  -1.116  0.00  0.00    +0.000 A 
ATOM     14  C   UNL     1       1.851   5.245  -1.872  0.00  0.00    +0.002 A 
BRANCH  10  15
ATOM     15  N   UNL     1       3.784   7.687  -3.381  0.00  0.00    +0.081 N 
ATOM     16  O   UNL     1       4.466   8.037  -4.538  0.00  0.00    -0.576 OA
ATOM     17  O   UNL     1       3.807   8.489  -2.450  0.00  0.00    +0.041 OA
ENDBRANCH  10  15
ENDBRANCH   2   9
BRANCH   1  18
ATOM     18  C   UNL     1      -0.686   5.907  -2.292  0.00  0.00    +0.339 C 
ATOM     19  O   UNL     1      -1.227   4.876  -1.849  0.00  0.00    -0.245 OA
BRANCH  18  21
ATOM     20  C   UNL     1      -2.023   7.301  -0.834  0.00  0.00    +0.256 C 
ATOM     21  O   UNL     1      -1.048   7.119  -1.710  0.00  0.00    -0.442 OA
ENDBRANCH  18  21
ENDBRANCH   1  18
BRANCH   3  22
ATOM     22  C   UNL     1       1.879   4.799  -5.477  0.00  0.00    +0.339 C 
ATOM     23  O   UNL     1       1.129   3.848  -5.863  0.00  0.00    -0.245 OA
BRANCH  22  24
ATOM     24  O   UNL     1       3.210   4.598  -5.815  0.00  0.00    -0.446 OA
BRANCH  24  25
ATOM     25  C   UNL     1       3.880   5.429  -6.762  0.00  0.00    +0.209 C 
BRANCH  25  26
ATOM     26  C   UNL     1       4.551   4.652  -7.853  0.00  0.00    +0.044 C 
ATOM     27  C   UNL     1       5.521   5.500  -8.665  0.00  0.00    +0.004 C 
ATOM     28  C   UNL     1       3.462   4.208  -8.812  0.00  0.00    +0.004 C 
ENDBRANCH  25  26
ENDBRANCH  24  25
ENDBRANCH  22  24
ENDBRANCH   3  22
TORSDOF 8
ENDMDL
MODEL 2
REMARK VINA RESULT:      -6.6      2.049      6.168
REMARK  Name = 
REMARK  8 active torsions:
REMARK  status: ('A' for Active; 'I' for Inactive)
REMARK    1  A    between atoms: O_2  and  C_3
REMARK    2  A    between atoms: C_3  and  C_5
REMARK    3  A    between atoms: C_11  and  C_12
REMARK    4  A    between atoms: C_12  and  O_14
REMARK    5  A    between atoms: O_14  and  C_15
REMARK    6  A    between atoms: C_15  and  C_16
REMARK    7  A    between atoms: C_19  and  C_20
REMARK    8  A    between atoms: C_25  and  N_26
REMARK                            x       y       z     vdW  Elec       q    Type
REMARK                         _______ _______ _______ _____ _____    ______ ____
ROOT
ATOM      1  C   UNL     1       3.205   5.391  -5.211  0.00  0.00    +0.073 C 
ATOM      2  C   UNL     1       2.533   6.878  -5.365  0.00  0.00    +0.087 C 
ATOM      3  C   UNL     1       2.168   6.930  -3.780  0.00  0.00    +0.073 C 
ATOM      4  C   UNL     1       3.315   7.202  -3.141  0.00  0.00    +0.051 C 
ATOM      5  C   UNL     1       3.030   7.645  -1.741  0.00  0.00    +0.049 C 
ATOM      6  N   UNL     1       4.540   6.553  -3.534  0.00  0.00    -0.221 NA
ATOM      7  C   UNL     1       4.261   5.422  -4.383  0.00  0.00    +0.051 C 
ATOM      8  C   UNL     1       5.179   4.238  -4.430  0.00  0.00    +0.049 C 
ENDROOT
BRANCH   2   9
ATOM      9  C   UNL     1       1.050   6.373  -5.825  0.00  0.00    +0.055 A 
ATOM     10  C   UNL     1       0.783   6.811  -7.122  0.00  0.00    +0.287 A 
ATOM     11  C   UNL     1      -0.239   6.175  -7.824  0.00  0.00    +0.075 A 
ATOM     12  C   UNL     1      -0.996   5.210  -7.168  0.00  0.00    +0.006 A 
ATOM     13  C   UNL     1      -0.352   4.504  -6.179  0.00  0.00    +0.000 A 
ATOM     14  C   UNL     1       0.785   5.030  -5.646  0.00  0.00    +0.002 A 
BRANCH  10  15
ATOM     15  N   UNL     1       1.777   7.372  -7.993  0.00  0.00    +0.081 N 
ATOM     16  O   UNL     1       2.187   8.691  -7.855  0.00  0.00    -0.576 OA
ATOM     17  O   UNL     1       1.925   6.849  -9.095  0.00  0.00    +0.041 OA
ENDBRANCH  10  15
ENDBRANCH   2   9
BRANCH   1  18
ATOM     18  C   UNL     1       3.577   4.814  -6.520  0.00  0.00    +0.339 C 
ATOM     19  O   UNL     1       4.336   5.499  -7.231  0.00  0.00    -0.245 OA
BRANCH  18  21
ATOM     20  C   UNL     1       2.716   3.660  -8.465  0.00  0.00    +0.256 C 
ATOM     21  O   UNL     1       2.798   3.852  -7.158  0.00  0.00    -0.442 OA
ENDBRANCH  18  21
ENDBRANCH   1  18
BRANCH   3  22
ATOM     22  C   UNL     1       1.168   6.053  -3.262  0.00  0.00    +0.339 C 
ATOM     23  O   UNL     1       1.383   5.043  -2.522  0.00  0.00    -0.245 OA
BRANCH  22  24
ATOM     24  O   UNL     1      -0.072   6.632  -3.028  0.00  0.00    -0.446 OA
BRANCH  24  25
ATOM     25  C   UNL     1      -1.226   5.847  -2.735  0.00  0.00    +0.209 C 
BRANCH  25  26
ATOM     26  C   UNL     1      -2.421   6.233  -3.550  0.00  0.00    +0.044 C 
ATOM     27  C   UNL     1      -2.182   7.485  -4.384  0.00  0.00    +0.004 C 
ATOM     28  C   UNL     1      -3.531   6.576  -2.572  0.00  0.00    +0.004 C 
ENDBRANCH  25  26
ENDBRANCH  24  25
ENDBRANCH  22  24
ENDBRANCH   3  22
TORSDOF 8
ENDMDL
MODEL 3
REMARK VINA RESULT:      -6.3      2.318      5.379
REMARK  Name = 
REMARK  8 active torsions:
REMARK  status: ('A' for Active; 'I' for Inactive)
REMARK    1  A    between atoms: O_2  and  C_3
REMARK    2  A    between atoms: C_3  and  C_5
REMARK    3  A    between atoms: C_11  and  C_12
REMARK    4  A    between atoms: C_12  and  O_14
REMARK    5  A    between atoms: O_14  and  C_15
REMARK    6  A    between atoms: C_15  and  C_16
REMARK    7  A    between atoms: C_19  and  C_20
REMARK    8  A    between atoms: C_25  and  N_26
REMARK                            x       y       z     vdW  Elec       q    Type
REMARK                         _______ _______ _______ _____ _____    ______ ____
ROOT
ATOM      1  C   UNL     1       3.340   5.829  -4.974  0.00  0.00    +0.073 C 
ATOM      2  C   UNL     1       2.482   5.070  -3.801  0.00  0.00    +0.087 C 
ATOM      3  C   UNL     1       1.073   5.447  -4.522  0.00  0.00    +0.073 C 
ATOM      4  C   UNL     1       0.946   4.604  -5.558  0.00  0.00    +0.051 C 
ATOM      5  C   UNL     1      -0.467   4.605  -6.048  0.00  0.00    +0.049 C 
ATOM      6  N   UNL     1       2.078   4.303  -6.396  0.00  0.00    -0.221 NA
ATOM      7  C   UNL     1       3.139   5.252  -6.169  0.00  0.00    +0.051 C 
ATOM      8  C   UNL     1       4.119   5.598  -7.249  0.00  0.00    +0.049 C 
ENDROOT
BRANCH   2   9
ATOM      9  C   UNL     1       2.434   6.324  -2.756  0.00  0.00    +0.055 A 
ATOM     10  C   UNL     1       2.636   5.863  -1.455  0.00  0.00    +0.287 A 
ATOM     11  C   UNL     1       3.010   6.793  -0.488  0.00  0.00    +0.075 A 
ATOM     12  C   UNL     1       3.069   8.137  -0.844  0.00  0.00    +0.006 A 
ATOM     13  C   UNL     1       3.387   8.402  -2.156  0.00  0.00    +0.000 A 
ATOM     14  C   UNL     1       3.230   7.407  -3.071  0.00  0.00    +0.002 A 
BRANCH  10  15
ATOM     15  N   UNL     1       3.091   4.538  -1.142  0.00  0.00    +0.081 N 
ATOM     16  O   UNL     1       2.215   3.577  -0.655  0.00  0.00    -0.576 OA
ATOM     17  O   UNL     1       4.284   4.393  -0.885  0.00  0.00    +0.041 OA
ENDBRANCH  10  15
ENDBRANCH   2   9
BRANCH   1  18
ATOM     18  C   UNL     1       4.783   5.889  -4.653  0.00  0.00    +0.339 C 
ATOM     19  O   UNL     1       5.241   4.943  -3.987  0.00  0.00    -0.245 OA
BRANCH  18  21
ATOM     20  C   UNL     1       6.559   7.347  -3.895  0.00  0.00    +0.256 C 
ATOM     21  O   UNL     1       5.491   7.088  -4.633  0.00  0.00    -0.442 OA
ENDBRANCH  18  21
ENDBRANCH   1  18
BRANCH   3  22
ATOM     22  C   UNL     1       0.647   6.809  -4.560  0.00  0.00    +0.339 C 
ATOM     23  O   UNL     1       0.675   7.563  -5.583  0.00  0.00    -0.245 OA
BRANCH  22  24
ATOM     24  O   UNL     1      -0.372   7.141  -3.680  0.00  0.00    -0.446 OA
BRANCH  24  25
ATOM     25  C   UNL     1      -1.718   7.320  -4.118  0.00  0.00    +0.209 C 
BRANCH  25  26
ATOM     26  C   UNL     1      -2.729   6.854  -3.116  0.00  0.00    +0.044 C 
ATOM     27  C   UNL     1      -2.255   7.034  -1.679  0.00  0.00    +0.004 C 
ATOM     28  C   UNL     1      -2.902   5.361  -3.327  0.00  0.00    +0.004 C 
ENDBRANCH  25  26
ENDBRANCH  24  25
ENDBRANCH  22  24
ENDBRANCH   3  22
TORSDOF 8
ENDMDL
MODEL 4
REMARK VINA RESULT:      -6.1      2.372      3.537
REMARK  Name = 
REMARK  8 active torsions:
REMARK  status: ('A' for Active; 'I' for Inactive)
REMARK    1  A    between atoms: O_2  and  C_3
REMARK    2  A    between atoms: C_3  and  C_5
REMARK    3  A    between atoms: C_11  and  C_12
REMARK    4  A    between atoms: C_12  and  O_14
REMARK    5  A    between atoms: O_14  and  C_15
REMARK    6  A    between atoms: C_15  and  C_16
REMARK    7  A    between atoms: C_19  and  C_20
REMARK    8  A    between atoms: C_25  and  N_26
REMARK                            x       y       z     vdW  Elec       q    Type
REMARK                         _______ _______ _______ _____ _____    ______ ____
ROOT
ATOM      1  C   UNL     1       1.798   5.821  -6.907  0.00  0.00    +0.073 C 
ATOM      2  C   UNL     1       3.058   6.838  -6.651  0.00  0.00    +0.087 C 
ATOM      3  C   UNL     1       3.699   6.488  -8.105  0.00  0.00    +0.073 C 
ATOM      4  C   UNL     1       2.970   7.162  -9.006  0.00  0.00    +0.051 C 
ATOM      5  C   UNL     1       3.695   7.218 -10.313  0.00  0.00    +0.049 C 
ATOM      6  N   UNL     1       1.535   7.213  -8.892  0.00  0.00    -0.221 NA
ATOM      7  C   UNL     1       1.068   6.215  -7.962  0.00  0.00    +0.051 C 
ATOM      8  C   UNL     1      -0.296   5.607  -8.092  0.00  0.00    +0.049 C 
ENDROOT
BRANCH   2   9
ATOM      9  C   UNL     1       3.997   5.779  -5.835  0.00  0.00    +0.055 A 
ATOM     10  C   UNL     1       4.614   6.423  -4.762  0.00  0.00    +0.287 A 
ATOM     11  C   UNL     1       5.134   5.630  -3.742  0.00  0.00    +0.075 A 
ATOM     12  C   UNL     1       5.096   4.247  -3.888  0.00  0.00    +0.006 A 
ATOM     13  C   UNL     1       4.055   3.745  -4.633  0.00  0.00    +0.000 A 
ATOM     14  C   UNL     1       3.397   4.590  -5.474  0.00  0.00    +0.002 A 
BRANCH  10  15
ATOM     15  N   UNL     1       4.247   7.733  -4.304  0.00  0.00    +0.081 N 
ATOM     16  O   UNL     1       5.160   8.779  -4.319  0.00  0.00    -0.576 OA
ATOM     17  O   UNL     1       3.312   7.815  -3.510  0.00  0.00    +0.041 OA
ENDBRANCH  10  15
ENDBRANCH   2   9
BRANCH   1  18
ATOM     18  C   UNL     1       0.952   5.674  -5.704  0.00  0.00    +0.339 C 
ATOM     19  O   UNL     1       0.279   4.630  -5.626  0.00  0.00    -0.245 OA
BRANCH  18  21
ATOM     20  C   UNL     1      -0.734   7.137  -4.768  0.00  0.00    +0.256 C 
ATOM     21  O   UNL     1       0.524   6.769  -4.957  0.00  0.00    -0.442 OA
ENDBRANCH  18  21
ENDBRANCH   1  18
BRANCH   3  22
ATOM     22  C   UNL     1       4.233   5.185  -8.340  0.00  0.00    +0.339 C 
ATOM     23  O   UNL     1       3.599   4.208  -8.848  0.00  0.00    -0.245 OA
BRANCH  22  24
ATOM     24  O   UNL     1       5.594   5.136  -8.610  0.00  0.00    -0.446 OA
BRANCH  24  25
ATOM     25  C   UNL     1       6.106   5.298  -9.931  0.00  0.00    +0.209 C 
BRANCH  25  26
ATOM     26  C   UNL     1       7.431   5.996  -9.965  0.00  0.00    +0.044 C 
ATOM     27  C   UNL     1       7.316   7.450 -10.403  0.00  0.00    +0.004 C 
ATOM     28  C   UNL     1       8.271   5.296 -11.018  0.00  0.00    +0.004 C 
ENDBRANCH  25  26
ENDBRANCH  24  25
ENDBRANCH  22  24
ENDBRANCH   3  22
TORSDOF 8
ENDMDL
MODEL 5
REMARK VINA RESULT:      -5.9      4.395      6.445
REMARK  Name = 
REMARK  8 active torsions:
REMARK  status: ('A' for Active; 'I' for Inactive)
REMARK    1  A    between atoms: O_2  and  C_3
REMARK    2  A    between atoms: C_3  and  C_5
REMARK    3  A    between atoms: C_11  and  C_12
REMARK    4  A    between atoms: C_12  and  O_14
REMARK    5  A    between atoms: O_14  and  C_15
REMARK    6  A    between atoms: C_15  and  C_16
REMARK    7  A    between atoms: C_19  and  C_20
REMARK    8  A    between atoms: C_25  and  N_26
REMARK                            x       y       z     vdW  Elec       q    Type
REMARK                         _______ _______ _______ _____ _____    ______ ____
ROOT
ATOM      1  C   UNL     1       1.514   5.085 -10.221  0.00  0.00    +0.073 C 
ATOM      2  C   UNL     1       2.057   6.629 -10.143  0.00  0.00    +0.087 C 
ATOM      3  C   UNL     1       2.481   6.610 -11.714  0.00  0.00    +0.073 C 
ATOM      4  C   UNL     1       1.342   6.744 -12.410  0.00  0.00    +0.051 C 
ATOM      5  C   UNL     1       1.648   7.119 -13.825  0.00  0.00    +0.049 C 
ATOM      6  N   UNL     1       0.158   6.023 -12.018  0.00  0.00    -0.221 NA
ATOM      7  C   UNL     1       0.493   4.975 -11.086  0.00  0.00    +0.051 C 
ATOM      8  C   UNL     1      -0.328   3.725 -10.991  0.00  0.00    +0.049 C 
ENDROOT
BRANCH   2   9
ATOM      9  C   UNL     1       3.556   6.279  -9.599  0.00  0.00    +0.055 A 
ATOM     10  C   UNL     1       3.741   6.834  -8.331  0.00  0.00    +0.287 A 
ATOM     11  C   UNL     1       4.780   6.335  -7.550  0.00  0.00    +0.075 A 
ATOM     12  C   UNL     1       5.633   5.386  -8.105  0.00  0.00    +0.006 A 
ATOM     13  C   UNL     1       5.083   4.559  -9.056  0.00  0.00    +0.000 A 
ATOM     14  C   UNL     1       3.930   4.952  -9.663  0.00  0.00    +0.002 A 
BRANCH  10  15
ATOM     15  N   UNL     1       2.675   7.378  -7.539  0.00  0.00    +0.081 N 
ATOM     16  O   UNL     1       2.096   8.598  -7.859  0.00  0.00    -0.576 OA
ATOM     17  O   UNL     1       2.586   7.002  -6.372  0.00  0.00    +0.041 OA
ENDBRANCH  10  15
ENDBRANCH   2   9
BRANCH   1  18
ATOM     18  C   UNL     1       1.136   4.563  -8.890  0.00  0.00    +0.339 C 
ATOM     19  O   UNL     1       0.310   5.236  -8.246  0.00  0.00    -0.245 OA
BRANCH  18  21
ATOM     20  C   UNL     1       2.103   3.680  -6.855  0.00  0.00    +0.256 C 
ATOM     21  O   UNL     1       1.956   3.698  -8.170  0.00  0.00    -0.442 OA
ENDBRANCH  18  21
ENDBRANCH   1  18
BRANCH   3  22
ATOM     22  C   UNL     1       3.568   5.787 -12.137  0.00  0.00    +0.339 C 
ATOM     23  O   UNL     1       3.469   4.742 -12.853  0.00  0.00    -0.245 OA
BRANCH  22  24
ATOM     24  O   UNL     1       4.780   6.442 -12.313  0.00  0.00    -0.446 OA
BRANCH  24  25
ATOM     25  C   UNL     1       5.996   5.729 -12.530  0.00  0.00    +0.209 C 
BRANCH  25  26
ATOM     26  C   UNL     1       7.197   6.437 -11.982  0.00  0.00    +0.044 C 
ATOM     27  C   UNL     1       8.020   5.558 -11.049  0.00  0.00    +0.004 C 
ATOM     28  C   UNL     1       6.682   7.592 -11.142  0.00  0.00    +0.004 C 
ENDBRANCH  25  26
ENDBRANCH  24  25
ENDBRANCH  22  24
ENDBRANCH   3  22
TORSDOF 8
ENDMDL
MODEL 6
REMARK VINA RESULT:      -5.9      2.361      5.860
REMARK  Name = 
REMARK  8 active torsions:
REMARK  status: ('A' for Active; 'I' for Inactive)
REMARK    1  A    between atoms: O_2  and  C_3
REMARK    2  A    between atoms: C_3  and  C_5
REMARK    3  A    between atoms: C_11  and  C_12
REMARK    4  A    between atoms: C_12  and  O_14
REMARK    5  A    between atoms: O_14  and  C_15
REMARK    6  A    between atoms: C_15  and  C_16
REMARK    7  A    between atoms: C_19  and  C_20
REMARK    8  A    between atoms: C_25  and  N_26
REMARK                            x       y       z     vdW  Elec       q    Type
REMARK                         _______ _______ _______ _____ _____    ______ ____
ROOT
ATOM      1  C   UNL     1      -0.442   5.843  -5.337  0.00  0.00    +0.073 C 
ATOM      2  C   UNL     1      -0.254   5.324  -3.794  0.00  0.00    +0.087 C 
ATOM      3  C   UNL     1      -1.517   6.218  -3.289  0.00  0.00    +0.073 C 
ATOM      4  C   UNL     1      -2.619   5.560  -3.677  0.00  0.00    +0.051 C 
ATOM      5  C   UNL     1      -3.813   6.084  -2.944  0.00  0.00    +0.049 C 
ATOM      6  N   UNL     1      -2.690   4.965  -4.987  0.00  0.00    -0.221 NA
ATOM      7  C   UNL     1      -1.635   5.474  -5.828  0.00  0.00    +0.051 C 
ATOM      8  C   UNL     1      -1.798   5.557  -7.316  0.00  0.00    +0.049 C 
ENDROOT
BRANCH   2   9
ATOM      9  C   UNL     1       0.870   6.425  -3.356  0.00  0.00    +0.055 A 
ATOM     10  C   UNL     1       1.348   6.129  -2.079  0.00  0.00    +0.287 A 
ATOM     11  C   UNL     1       2.558   6.702  -1.691  0.00  0.00    +0.075 A 
ATOM     12  C   UNL     1       3.172   7.607  -2.551  0.00  0.00    +0.006 A 
ATOM     13  C   UNL     1       2.948   7.413  -3.894  0.00  0.00    +0.000 A 
ATOM     14  C   UNL     1       1.880   6.656  -4.268  0.00  0.00    +0.002 A 
BRANCH  10  15
ATOM     15  N   UNL     1       1.086   4.893  -1.398  0.00  0.00    +0.081 N 
ATOM     16  O   UNL     1      -0.207   4.529  -1.049  0.00  0.00    -0.576 OA
ATOM     17  O   UNL     1       2.005   4.397  -0.749  0.00  0.00    +0.041 OA
ENDBRANCH  10  15
ENDBRANCH   2   9
BRANCH   1  18
ATOM     18  C   UNL     1       0.656   5.382  -6.214  0.00  0.00    +0.339 C 
ATOM     19  O   UNL     1       0.903   6.089  -7.208  0.00  0.00    -0.245 OA
BRANCH  18  21
ATOM     20  C   UNL     1       2.270   3.619  -6.594  0.00  0.00    +0.256 C 
ATOM     21  O   UNL     1       1.065   4.051  -6.257  0.00  0.00    -0.442 OA
ENDBRANCH  18  21
ENDBRANCH   1  18
BRANCH   3  22
ATOM     22  C   UNL     1      -1.411   7.641  -3.285  0.00  0.00    +0.339 C 
ATOM     23  O   UNL     1      -1.668   8.404  -4.268  0.00  0.00    -0.245 OA
BRANCH  22  24
ATOM     24  O   UNL     1      -1.638   8.254  -2.060  0.00  0.00    -0.446 OA
BRANCH  24  25
ATOM     25  C   UNL     1      -1.713   7.508  -0.846  0.00  0.00    +0.209 C 
BRANCH  25  26
ATOM     26  C   UNL     1      -1.271   8.291   0.352  0.00  0.00    +0.044 C 
ATOM     27  C   UNL     1       0.051   7.793   0.921  0.00  0.00    +0.004 C 
ATOM     28  C   UNL     1      -2.315   8.070   1.432  0.00  0.00    +0.004 C 
ENDBRANCH  25  26
ENDBRANCH  24  25
ENDBRANCH  22  24
ENDBRANCH   3  22
TORSDOF 8
ENDMDL
MODEL 7
REMARK VINA RESULT:      -5.8      3.736      7.252
REMARK  Name = 
REMARK  8 active torsions:
REMARK  status: ('A' for Active; 'I' for Inactive)
REMARK    1  A    between atoms: O_2  and  C_3
REMARK    2  A    between atoms: C_3  and  C_5
REMARK    3  A    between atoms: C_11  and  C_12
REMARK    4  A    between atoms: C_12  and  O_14
REMARK    5  A    between atoms: O_14  and  C_15
REMARK    6  A    between atoms: C_15  and  C_16
REMARK    7  A    between atoms: C_19  and  C_20
REMARK    8  A    between atoms: C_25  and  N_26
REMARK                            x       y       z     vdW  Elec       q    Type
REMARK                         _______ _______ _______ _____ _____    ______ ____
ROOT
ATOM      1  C   UNL     1       1.530   6.446 -10.596  0.00  0.00    +0.073 C 
ATOM      2  C   UNL     1       2.556   5.409  -9.850  0.00  0.00    +0.087 C 
ATOM      3  C   UNL     1       2.183   6.016  -8.387  0.00  0.00    +0.073 C 
ATOM      4  C   UNL     1       0.983   5.508  -8.067  0.00  0.00    +0.051 C 
ATOM      5  C   UNL     1       0.724   5.691  -6.606  0.00  0.00    +0.049 C 
ATOM      6  N   UNL     1      -0.062   5.428  -9.055  0.00  0.00    -0.221 NA
ATOM      7  C   UNL     1       0.265   6.241 -10.200  0.00  0.00    +0.051 C 
ATOM      8  C   UNL     1      -0.807   6.854 -11.051  0.00  0.00    +0.049 C 
ENDROOT
BRANCH   2   9
ATOM      9  C   UNL     1       3.905   6.312 -10.026  0.00  0.00    +0.055 A 
ATOM     10  C   UNL     1       4.940   5.770  -9.262  0.00  0.00    +0.287 A 
ATOM     11  C   UNL     1       6.243   6.154  -9.571  0.00  0.00    +0.075 A 
ATOM     12  C   UNL     1       6.438   7.122 -10.551  0.00  0.00    +0.006 A 
ATOM     13  C   UNL     1       5.494   7.169 -11.551  0.00  0.00    +0.000 A 
ATOM     14  C   UNL     1       4.285   6.588 -11.325  0.00  0.00    +0.002 A 
BRANCH  10  15
ATOM     15  N   UNL     1       4.883   4.472  -8.653  0.00  0.00    +0.081 N 
ATOM     16  O   UNL     1       3.919   3.547  -9.029  0.00  0.00    -0.576 OA
ATOM     17  O   UNL     1       5.374   4.349  -7.532  0.00  0.00    +0.041 OA
ENDBRANCH  10  15
ENDBRANCH   2   9
BRANCH   1  18
ATOM     18  C   UNL     1       1.641   6.370 -12.069  0.00  0.00    +0.339 C 
ATOM     19  O   UNL     1       1.379   7.413 -12.697  0.00  0.00    -0.245 OA
BRANCH  18  21
ATOM     20  C   UNL     1       1.146   5.017 -14.013  0.00  0.00    +0.256 C 
ATOM     21  O   UNL     1       1.550   5.166 -12.762  0.00  0.00    -0.442 OA
ENDBRANCH  18  21
ENDBRANCH   1  18
BRANCH   3  22
ATOM     22  C   UNL     1       2.589   7.344  -8.055  0.00  0.00    +0.339 C 
ATOM     23  O   UNL     1       1.839   8.369  -8.065  0.00  0.00    -0.245 OA
BRANCH  22  24
ATOM     24  O   UNL     1       3.614   7.440  -7.124  0.00  0.00    -0.446 OA
BRANCH  24  25
ATOM     25  C   UNL     1       3.415   7.116  -5.749  0.00  0.00    +0.209 C 
BRANCH  25  26
ATOM     26  C   UNL     1       4.658   6.618  -5.078  0.00  0.00    +0.044 C 
ATOM     27  C   UNL     1       4.413   5.365  -4.248  0.00  0.00    +0.004 C 
ATOM     28  C   UNL     1       5.096   7.698  -4.105  0.00  0.00    +0.004 C 
ENDBRANCH  25  26
ENDBRANCH  24  25
ENDBRANCH  22  24
ENDBRANCH   3  22
TORSDOF 8
ENDMDL
MODEL 8
REMARK VINA RESULT:      -5.8      3.431      6.812
REMARK  Name = 
REMARK  8 active torsions:
REMARK  status: ('A' for Active; 'I' for Inactive)
REMARK    1  A    between atoms: O_2  and  C_3
REMARK    2  A    between atoms: C_3  and  C_5
REMARK    3  A    between atoms: C_11  and  C_12
REMARK    4  A    between atoms: C_12  and  O_14
REMARK    5  A    between atoms: O_14  and  C_15
REMARK    6  A    between atoms: C_15  and  C_16
REMARK    7  A    between atoms: C_19  and  C_20
REMARK    8  A    between atoms: C_25  and  N_26
REMARK                            x       y       z     vdW  Elec       q    Type
REMARK                         _______ _______ _______ _____ _____    ______ ____
ROOT
ATOM      1  C   UNL     1       2.367   5.725 -10.868  0.00  0.00    +0.073 C 
ATOM      2  C   UNL     1       2.495   6.722  -9.573  0.00  0.00    +0.087 C 
ATOM      3  C   UNL     1       3.792   5.912  -9.017  0.00  0.00    +0.073 C 
ATOM      4  C   UNL     1       4.828   6.298  -9.776  0.00  0.00    +0.051 C 
ATOM      5  C   UNL     1       6.116   5.916  -9.119  0.00  0.00    +0.049 C 
ATOM      6  N   UNL     1       4.675   6.437 -11.202  0.00  0.00    -0.221 NA
ATOM      7  C   UNL     1       3.460   5.798 -11.642  0.00  0.00    +0.051 C 
ATOM      8  C   UNL     1       3.336   5.232 -13.025  0.00  0.00    +0.049 C 
ENDROOT
BRANCH   2   9
ATOM      9  C   UNL     1       1.430   5.935  -8.618  0.00  0.00    +0.055 A 
ATOM     10  C   UNL     1       1.444   6.489  -7.337  0.00  0.00    +0.287 A 
ATOM     11  C   UNL     1       0.359   6.226  -6.504  0.00  0.00    +0.075 A 
ATOM     12  C   UNL     1      -0.628   5.354  -6.953  0.00  0.00    +0.006 A 
ATOM     13  C   UNL     1      -0.830   5.316  -8.312  0.00  0.00    +0.000 A 
ATOM     14  C   UNL     1       0.154   5.789  -9.125  0.00  0.00    +0.002 A 
BRANCH  10  15
ATOM     15  N   UNL     1       2.092   7.729  -7.014  0.00  0.00    +0.081 N 
ATOM     16  O   UNL     1       2.096   8.789  -7.910  0.00  0.00    -0.576 OA
ATOM     17  O   UNL     1       2.991   7.698  -6.176  0.00  0.00    +0.041 OA
ENDBRANCH  10  15
ENDBRANCH   2   9
BRANCH   1  18
ATOM     18  C   UNL     1       1.144   5.993 -11.654  0.00  0.00    +0.339 C 
ATOM     19  O   UNL     1       0.583   5.003 -12.158  0.00  0.00    -0.245 OA
BRANCH  18  21
ATOM     20  C   UNL     1       0.353   7.447 -13.419  0.00  0.00    +0.256 C 
ATOM     21  O   UNL     1       0.884   7.236 -12.226  0.00  0.00    -0.442 OA
ENDBRANCH  18  21
ENDBRANCH   1  18
BRANCH   3  22
ATOM     22  C   UNL     1       3.630   4.581  -8.527  0.00  0.00    +0.339 C 
ATOM     23  O   UNL     1       4.008   3.524  -9.121  0.00  0.00    -0.245 OA
BRANCH  22  24
ATOM     24  O   UNL     1       3.638   4.448  -7.145  0.00  0.00    -0.446 OA
BRANCH  24  25
ATOM     25  C   UNL     1       4.605   5.107  -6.330  0.00  0.00    +0.209 C 
BRANCH  25  26
ATOM     26  C   UNL     1       4.449   4.803  -4.871  0.00  0.00    +0.044 C 
ATOM     27  C   UNL     1       2.990   4.744  -4.438  0.00  0.00    +0.004 C 
ATOM     28  C   UNL     1       5.076   5.958  -4.111  0.00  0.00    +0.004 C 
ENDBRANCH  25  26
ENDBRANCH  24  25
ENDBRANCH  22  24
ENDBRANCH   3  22
TORSDOF 8
ENDMDL
MODEL 9
REMARK VINA RESULT:      -5.7      4.901      9.461
REMARK  Name = 
REMARK  8 active torsions:
REMARK  status: ('A' for Active; 'I' for Inactive)
REMARK    1  A    between atoms: O_2  and  C_3
REMARK    2  A    between atoms: C_3  and  C_5
REMARK    3  A    between atoms: C_11  and  C_12
REMARK    4  A    between atoms: C_12  and  O_14
REMARK    5  A    between atoms: O_14  and  C_15
REMARK    6  A    between atoms: C_15  and  C_16
REMARK    7  A    between atoms: C_19  and  C_20
REMARK    8  A    between atoms: C_25  and  N_26
REMARK                            x       y       z     vdW  Elec       q    Type
REMARK                         _______ _______ _______ _____ _____    ______ ____
ROOT
ATOM      1  C   UNL     1       4.531   5.786 -11.711  0.00  0.00    +0.073 C 
ATOM      2  C   UNL     1       3.143   6.658 -11.748  0.00  0.00    +0.087 C 
ATOM      3  C   UNL     1       2.801   6.266 -10.206  0.00  0.00    +0.073 C 
ATOM      4  C   UNL     1       3.595   7.030  -9.441  0.00  0.00    +0.051 C 
ATOM      5  C   UNL     1       3.100   7.030  -8.030  0.00  0.00    +0.049 C 
ATOM      6  N   UNL     1       4.976   7.232  -9.799  0.00  0.00    -0.221 NA
ATOM      7  C   UNL     1       5.383   6.274 -10.796  0.00  0.00    +0.051 C 
ATOM      8  C   UNL     1       6.807   5.817 -10.901  0.00  0.00    +0.049 C 
ENDROOT
BRANCH   2   9
ATOM      9  C   UNL     1       2.200   5.491 -12.392  0.00  0.00    +0.055 A 
ATOM     10  C   UNL     1       0.900   5.972 -12.559  0.00  0.00    +0.287 A 
ATOM     11  C   UNL     1       0.061   5.282 -13.430  0.00  0.00    +0.075 A 
ATOM     12  C   UNL     1       0.524   4.105 -14.009  0.00  0.00    +0.006 A 
ATOM     13  C   UNL     1       1.881   4.027 -14.219  0.00  0.00    +0.000 A 
ATOM     14  C   UNL     1       2.691   4.869 -13.522  0.00  0.00    +0.002 A 
BRANCH  10  15
ATOM     15  N   UNL     1       0.544   7.357 -12.440  0.00  0.00    +0.081 N 
ATOM     16  O   UNL     1      -0.274   7.799 -11.409  0.00  0.00    -0.576 OA
ATOM     17  O   UNL     1       0.586   8.044 -13.458  0.00  0.00    +0.041 OA
ENDBRANCH  10  15
ENDBRANCH   2   9
BRANCH   1  18
ATOM     18  C   UNL     1       5.172   5.710 -13.042  0.00  0.00    +0.339 C 
ATOM     19  O   UNL     1       5.776   4.654 -13.304  0.00  0.00    -0.245 OA
BRANCH  18  21
ATOM     20  C   UNL     1       6.564   6.957 -14.579  0.00  0.00    +0.256 C 
ATOM     21  O   UNL     1       5.528   6.847 -13.763  0.00  0.00    -0.442 OA
ENDBRANCH  18  21
ENDBRANCH   1  18
BRANCH   3  22
ATOM     22  C   UNL     1       2.459   4.918  -9.884  0.00  0.00    +0.339 C 
ATOM     23  O   UNL     1       3.227   4.075  -9.324  0.00  0.00    -0.245 OA
BRANCH  22  24
ATOM     24  O   UNL     1       1.120   4.693  -9.597  0.00  0.00    -0.446 OA
BRANCH  24  25
ATOM     25  C   UNL     1       0.378   5.556  -8.736  0.00  0.00    +0.209 C 
BRANCH  25  26
ATOM     26  C   UNL     1      -0.213   4.844  -7.559  0.00  0.00    +0.044 C 
ATOM     27  C   UNL     1      -1.407   5.582  -6.967  0.00  0.00    +0.004 C 
ATOM     28  C   UNL     1       0.854   4.817  -6.479  0.00  0.00    +0.004 C 
ENDBRANCH  25  26
ENDBRANCH  24  25
ENDBRANCH  22  24
ENDBRANCH   3  22
TORSDOF 8
ENDMDL
