MODEL 1
REMARK VINA RESULT:      -9.3      0.000      0.000
REMARK  Name = 
REMARK  10 active torsions:
REMARK  status: ('A' for Active; 'I' for Inactive)
REMARK    1  A    between atoms: C_2  and  O_3
REMARK    2  A    between atoms: O_3  and  C_4
REMARK    3  A    between atoms: C_10  and  C_11
REMARK    4  A    between atoms: C_11  and  O_13
REMARK    5  A    between atoms: O_13  and  C_14
REMARK    6  A    between atoms: C_14  and  C_15
REMARK    7  A    between atoms: N_23  and  C_24
REMARK    8  A    between atoms: C_24  and  C_25
REMARK    9  A    between atoms: C_28  and  C_29
REMARK   10  A    between atoms: C_34  and  C_35
REMARK                            x       y       z     vdW  Elec       q    Type
REMARK                         _______ _______ _______ _____ _____    ______ ____
ROOT
ATOM      1  C   UNL     1      -1.755   6.305  -3.294  0.00  0.00    +0.301 A 
ATOM      2  N   UNL     1      -0.458   6.182  -2.919  0.00  0.00    -0.277 N 
ATOM      3  C   UNL     1      -0.349   6.636  -1.646  0.00  0.00    +0.088 A 
ATOM      4  C   UNL     1      -1.486   7.399  -1.414  0.00  0.00    +0.102 A 
ATOM      5  C   UNL     1      -1.767   7.897  -0.153  0.00  0.00    +0.021 A 
ATOM      6  C   UNL     1      -0.779   7.808   0.809  0.00  0.00    +0.002 A 
ATOM      7  C   UNL     1       0.119   6.783   0.686  0.00  0.00    +0.008 A 
ATOM      8  C   UNL     1       0.486   6.336  -0.577  0.00  0.00    +0.093 A 
ATOM      9  N   UNL     1      -2.218   7.324  -2.532  0.00  0.00    -0.194 NA
ENDROOT
BRANCH   8  10
ATOM     10  C   UNL     1       1.692   5.546  -0.807  0.00  0.00    +0.343 C 
ATOM     11  O   UNL     1       1.611   4.293  -0.648  0.00  0.00    -0.245 OA
BRANCH  10  12
ATOM     12  O   UNL     1       2.919   6.115  -0.453  0.00  0.00    -0.437 OA
BRANCH  12  13
ATOM     13  C   UNL     1       4.158   5.584  -0.920  0.00  0.00    +0.275 C 
BRANCH  13  14
ATOM     14  C   UNL     1       4.387   6.195  -2.267  0.00  0.00    +0.204 A 
ATOM     15  C   UNL     1       4.615   5.487  -3.438  0.00  0.00    +0.164 A 
ATOM     16  C   UNL     1       3.903   4.219  -3.791  0.00  0.00    +0.076 C 
ATOM     17  O   UNL     1       5.239   6.332  -4.218  0.00  0.00    -0.395 OA
ATOM     18  C   UNL     1       5.075   7.569  -3.785  0.00  0.00    +0.521 A 
ATOM     19  O   UNL     1       5.131   8.643  -4.457  0.00  0.00    -0.202 OA
ATOM     20  O   UNL     1       4.567   7.466  -2.568  0.00  0.00    -0.391 OA
ENDBRANCH  13  14
ENDBRANCH  12  13
ENDBRANCH  10  12
ENDBRANCH   8  10
BRANCH   1  21
ATOM     21  O   UNL     1      -2.399   5.673  -4.340  0.00  0.00    -0.448 OA
BRANCH  21  23
ATOM     22  C   UNL     1      -2.387   5.718  -6.744  0.00  0.00    +0.051 C 
ATOM     23  C   UNL     1      -2.715   6.454  -5.476  0.00  0.00    +0.209 C 
ENDBRANCH  21  23
ENDBRANCH   1  21
BRANCH   2  24
ATOM     24  C   UNL     1       0.414   5.195  -3.521  0.00  0.00    +0.137 C 
BRANCH  24  25
ATOM     25  C   UNL     1       0.616   5.447  -4.982  0.00  0.00    +0.001 A 
ATOM     26  C   UNL     1       0.876   4.331  -5.767  0.00  0.00    -0.002 A 
ATOM     27  C   UNL     1       1.649   4.389  -6.906  0.00  0.00    -0.000 A 
ATOM     28  C   UNL     1       2.300   5.550  -7.241  0.00  0.00    +0.000 A 
ATOM     29  C   UNL     1       2.160   6.642  -6.427  0.00  0.00    -0.000 A 
ATOM     30  C   UNL     1       1.280   6.608  -5.357  0.00  0.00    -0.002 A 
BRANCH  28  31
ATOM     31  C   UNL     1       3.431   5.540  -8.178  0.00  0.00    +0.003 A 
ATOM     32  C   UNL     1       3.229   5.468  -9.530  0.00  0.00    +0.039 A 
ATOM     33  C   UNL     1       4.327   5.503 -10.380  0.00  0.00    +0.003 A 
ATOM     34  C   UNL     1       5.556   5.208  -9.807  0.00  0.00    +0.000 A 
ATOM     35  C   UNL     1       5.762   5.361  -8.448  0.00  0.00    +0.000 A 
ATOM     36  C   UNL     1       4.698   5.897  -7.735  0.00  0.00    +0.000 A 
BRANCH  32  37
ATOM     37  C   UNL     1       1.878   5.705 -10.052  0.00  0.00    +0.207 A 
ATOM     38  N   UNL     1       1.296   6.891 -10.337  0.00  0.00    -0.151 NA
ATOM     39  C   UNL     1       0.142   6.636 -10.969  0.00  0.00    +0.463 A 
ATOM     40  O   UNL     1      -0.679   7.538 -11.269  0.00  0.00    -0.219 OA
ATOM     41  O   UNL     1      -0.115   5.371 -10.794  0.00  0.00    -0.294 OA
ATOM     42  N   UNL     1       0.958   4.782 -10.392  0.00  0.00    -0.052 NA
ENDBRANCH  32  37
ENDBRANCH  28  31
ENDBRANCH  24  25
ENDBRANCH   2  24
TORSDOF 10
ENDMDL
MODEL 2
REMARK VINA RESULT:      -8.9      1.555      2.041
REMARK  Name = 
REMARK  10 active torsions:
REMARK  status: ('A' for Active; 'I' for Inactive)
REMARK    1  A    between atoms: C_2  and  O_3
REMARK    2  A    between atoms: O_3  and  C_4
REMARK    3  A    between atoms: C_10  and  C_11
REMARK    4  A    between atoms: C_11  and  O_13
REMARK    5  A    between atoms: O_13  and  C_14
REMARK    6  A    between atoms: C_14  and  C_15
REMARK    7  A    between atoms: N_23  and  C_24
REMARK    8  A    between atoms: C_24  and  C_25
REMARK    9  A    between atoms: C_28  and  C_29
REMARK   10  A    between atoms: C_34  and  C_35
REMARK                            x       y       z     vdW  Elec       q    Type
REMARK                         _______ _______ _______ _____ _____    ______ ____
ROOT
ATOM      1  C   UNL     1      -1.633   6.205  -3.322  0.00  0.00    +0.301 A 
ATOM      2  N   UNL     1      -0.338   6.154  -2.921  0.00  0.00    -0.277 N 
ATOM      3  C   UNL     1      -0.282   6.608  -1.645  0.00  0.00    +0.088 A 
ATOM      4  C   UNL     1      -1.465   7.304  -1.433  0.00  0.00    +0.102 A 
ATOM      5  C   UNL     1      -1.800   7.779  -0.177  0.00  0.00    +0.021 A 
ATOM      6  C   UNL     1      -0.828   7.742   0.805  0.00  0.00    +0.002 A 
ATOM      7  C   UNL     1       0.129   6.770   0.698  0.00  0.00    +0.008 A 
ATOM      8  C   UNL     1       0.547   6.351  -0.559  0.00  0.00    +0.093 A 
ATOM      9  N   UNL     1      -2.168   7.193  -2.567  0.00  0.00    -0.194 NA
ENDROOT
BRANCH   8  10
ATOM     10  C   UNL     1       1.800   5.631  -0.767  0.00  0.00    +0.343 C 
ATOM     11  O   UNL     1       1.771   4.368  -0.687  0.00  0.00    -0.245 OA
BRANCH  10  12
ATOM     12  O   UNL     1       2.977   6.232  -0.310  0.00  0.00    -0.437 OA
BRANCH  12  13
ATOM     13  C   UNL     1       3.857   6.929  -1.190  0.00  0.00    +0.275 C 
BRANCH  13  14
ATOM     14  C   UNL     1       3.918   8.335  -0.684  0.00  0.00    +0.204 A 
ATOM     15  C   UNL     1       4.150   8.703   0.634  0.00  0.00    +0.164 A 
ATOM     16  C   UNL     1       5.133   8.012   1.525  0.00  0.00    +0.076 C 
ATOM     17  O   UNL     1       3.639   9.903   0.736  0.00  0.00    -0.395 OA
ATOM     18  C   UNL     1       3.467  10.436  -0.461  0.00  0.00    +0.521 A 
ATOM     19  O   UNL     1       3.424  11.666  -0.766  0.00  0.00    -0.202 OA
ATOM     20  O   UNL     1       3.621   9.449  -1.327  0.00  0.00    -0.391 OA
ENDBRANCH  13  14
ENDBRANCH  12  13
ENDBRANCH  10  12
ENDBRANCH   8  10
BRANCH   1  21
ATOM     21  O   UNL     1      -2.217   5.542  -4.384  0.00  0.00    -0.448 OA
BRANCH  21  23
ATOM     22  C   UNL     1      -2.278   5.611  -6.787  0.00  0.00    +0.051 C 
ATOM     23  C   UNL     1      -2.605   6.318  -5.501  0.00  0.00    +0.209 C 
ENDBRANCH  21  23
ENDBRANCH   1  21
BRANCH   2  24
ATOM     24  C   UNL     1       0.600   5.220  -3.508  0.00  0.00    +0.137 C 
BRANCH  24  25
ATOM     25  C   UNL     1       0.746   5.431  -4.982  0.00  0.00    +0.001 A 
ATOM     26  C   UNL     1       1.041   4.302  -5.737  0.00  0.00    -0.002 A 
ATOM     27  C   UNL     1       1.777   4.359  -6.900  0.00  0.00    -0.000 A 
ATOM     28  C   UNL     1       2.357   5.538  -7.294  0.00  0.00    +0.000 A 
ATOM     29  C   UNL     1       2.184   6.651  -6.514  0.00  0.00    -0.000 A 
ATOM     30  C   UNL     1       1.339   6.610  -5.416  0.00  0.00    -0.002 A 
BRANCH  28  31
ATOM     31  C   UNL     1       3.460   5.552  -8.264  0.00  0.00    +0.003 A 
ATOM     32  C   UNL     1       3.220   5.462  -9.609  0.00  0.00    +0.039 A 
ATOM     33  C   UNL     1       4.290   5.521 -10.492  0.00  0.00    +0.003 A 
ATOM     34  C   UNL     1       5.545   5.268  -9.953  0.00  0.00    +0.000 A 
ATOM     35  C   UNL     1       5.786   5.440  -8.603  0.00  0.00    +0.000 A 
ATOM     36  C   UNL     1       4.729   5.951  -7.863  0.00  0.00    +0.000 A 
BRANCH  32  37
ATOM     37  C   UNL     1       1.847   5.653 -10.093  0.00  0.00    +0.207 A 
ATOM     38  N   UNL     1       1.227   6.819 -10.384  0.00  0.00    -0.151 NA
ATOM     39  C   UNL     1       0.060   6.521 -10.973  0.00  0.00    +0.463 A 
ATOM     40  O   UNL     1      -0.792   7.396 -11.266  0.00  0.00    -0.219 OA
ATOM     41  O   UNL     1      -0.159   5.255 -10.763  0.00  0.00    -0.294 OA
ATOM     42  N   UNL     1       0.941   4.701 -10.383  0.00  0.00    -0.052 NA
ENDBRANCH  32  37
ENDBRANCH  28  31
ENDBRANCH  24  25
ENDBRANCH   2  24
TORSDOF 10
ENDMDL
MODEL 3
REMARK VINA RESULT:      -8.8      2.610      4.587
REMARK  Name = 
REMARK  10 active torsions:
REMARK  status: ('A' for Active; 'I' for Inactive)
REMARK    1  A    between atoms: C_2  and  O_3
REMARK    2  A    between atoms: O_3  and  C_4
REMARK    3  A    between atoms: C_10  and  C_11
REMARK    4  A    between atoms: C_11  and  O_13
REMARK    5  A    between atoms: O_13  and  C_14
REMARK    6  A    between atoms: C_14  and  C_15
REMARK    7  A    between atoms: N_23  and  C_24
REMARK    8  A    between atoms: C_24  and  C_25
REMARK    9  A    between atoms: C_28  and  C_29
REMARK   10  A    between atoms: C_34  and  C_35
REMARK                            x       y       z     vdW  Elec       q    Type
REMARK                         _______ _______ _______ _____ _____    ______ ____
ROOT
ATOM      1  C   UNL     1       0.276   5.399  -8.124  0.00  0.00    +0.301 A 
ATOM      2  N   UNL     1       1.070   5.955  -7.175  0.00  0.00    -0.277 N 
ATOM      3  C   UNL     1       0.377   5.971  -6.011  0.00  0.00    +0.088 A 
ATOM      4  C   UNL     1      -0.958   5.804  -6.358  0.00  0.00    +0.102 A 
ATOM      5  C   UNL     1      -1.932   5.627  -5.390  0.00  0.00    +0.021 A 
ATOM      6  C   UNL     1      -1.577   5.848  -4.073  0.00  0.00    +0.002 A 
ATOM      7  C   UNL     1      -0.266   5.644  -3.738  0.00  0.00    +0.008 A 
ATOM      8  C   UNL     1       0.732   5.911  -4.668  0.00  0.00    +0.093 A 
ATOM      9  N   UNL     1      -0.980   5.658  -7.688  0.00  0.00    -0.194 NA
ENDROOT
BRANCH   8  10
ATOM     10  C   UNL     1       2.129   6.097  -4.286  0.00  0.00    +0.343 C 
ATOM     11  O   UNL     1       2.822   5.059  -4.076  0.00  0.00    -0.245 OA
BRANCH  10  12
ATOM     12  O   UNL     1       2.440   7.197  -3.482  0.00  0.00    -0.437 OA
BRANCH  12  13
ATOM     13  C   UNL     1       3.771   7.449  -3.034  0.00  0.00    +0.275 C 
BRANCH  13  14
ATOM     14  C   UNL     1       3.706   7.471  -1.539  0.00  0.00    +0.204 A 
ATOM     15  C   UNL     1       3.549   6.356  -0.728  0.00  0.00    +0.164 A 
ATOM     16  C   UNL     1       4.216   5.043  -0.988  0.00  0.00    +0.076 C 
ATOM     17  O   UNL     1       3.051   6.827   0.387  0.00  0.00    -0.395 OA
ATOM     18  C   UNL     1       3.246   8.132   0.465  0.00  0.00    +0.521 A 
ATOM     19  O   UNL     1       3.315   8.847   1.510  0.00  0.00    -0.202 OA
ATOM     20  O   UNL     1       3.629   8.518  -0.740  0.00  0.00    -0.391 OA
ENDBRANCH  13  14
ENDBRANCH  12  13
ENDBRANCH  10  12
ENDBRANCH   8  10
BRANCH   1  21
ATOM     21  O   UNL     1       0.655   4.866  -9.341  0.00  0.00    -0.448 OA
BRANCH  21  23
ATOM     22  C   UNL     1       0.120   6.514 -11.008  0.00  0.00    +0.051 C 
ATOM     23  C   UNL     1      -0.167   5.145 -10.457  0.00  0.00    +0.209 C 
ENDBRANCH  21  23
ENDBRANCH   1  21
BRANCH   2  24
ATOM     24  C   UNL     1       2.514   5.910  -7.276  0.00  0.00    +0.137 C 
BRANCH  24  25
ATOM     25  C   UNL     1       2.970   5.808  -8.697  0.00  0.00    +0.001 A 
ATOM     26  C   UNL     1       3.696   4.672  -9.029  0.00  0.00    -0.002 A 
ATOM     27  C   UNL     1       4.665   4.670 -10.009  0.00  0.00    -0.000 A 
ATOM     28  C   UNL     1       5.036   5.843 -10.617  0.00  0.00    +0.000 A 
ATOM     29  C   UNL     1       4.421   7.006 -10.234  0.00  0.00    -0.000 A 
ATOM     30  C   UNL     1       3.362   6.976  -9.341  0.00  0.00    -0.002 A 
BRANCH  28  31
ATOM     31  C   UNL     1       6.311   5.952 -11.337  0.00  0.00    +0.003 A 
ATOM     32  C   UNL     1       6.399   5.645 -12.668  0.00  0.00    +0.039 A 
ATOM     33  C   UNL     1       7.617   5.802 -13.319  0.00  0.00    +0.003 A 
ATOM     34  C   UNL     1       8.741   5.875 -12.507  0.00  0.00    +0.000 A 
ATOM     35  C   UNL     1       8.638   6.263 -11.184  0.00  0.00    +0.000 A 
ATOM     36  C   UNL     1       7.371   6.644 -10.765  0.00  0.00    +0.000 A 
BRANCH  32  37
ATOM     37  C   UNL     1       5.160   5.495 -13.440  0.00  0.00    +0.207 A 
ATOM     38  N   UNL     1       4.356   4.410 -13.513  0.00  0.00    -0.151 NA
ATOM     39  C   UNL     1       3.245   4.772 -14.168  0.00  0.00    +0.463 A 
ATOM     40  O   UNL     1       2.350   3.951 -14.488  0.00  0.00    -0.219 OA
ATOM     41  O   UNL     1       3.494   5.918 -14.736  0.00  0.00    -0.294 OA
ATOM     42  N   UNL     1       4.551   6.425 -14.200  0.00  0.00    -0.052 NA
ENDBRANCH  32  37
ENDBRANCH  28  31
ENDBRANCH  24  25
ENDBRANCH   2  24
TORSDOF 10
ENDMDL
MODEL 4
REMARK VINA RESULT:      -8.6      3.882     10.961
REMARK  Name = 
REMARK  10 active torsions:
REMARK  status: ('A' for Active; 'I' for Inactive)
REMARK    1  A    between atoms: C_2  and  O_3
REMARK    2  A    between atoms: O_3  and  C_4
REMARK    3  A    between atoms: C_10  and  C_11
REMARK    4  A    between atoms: C_11  and  O_13
REMARK    5  A    between atoms: O_13  and  C_14
REMARK    6  A    between atoms: C_14  and  C_15
REMARK    7  A    between atoms: N_23  and  C_24
REMARK    8  A    between atoms: C_24  and  C_25
REMARK    9  A    between atoms: C_28  and  C_29
REMARK   10  A    between atoms: C_34  and  C_35
REMARK                            x       y       z     vdW  Elec       q    Type
REMARK                         _______ _______ _______ _____ _____    ______ ____
ROOT
ATOM      1  C   UNL     1       6.896   5.674 -12.410  0.00  0.00    +0.301 A 
ATOM      2  N   UNL     1       5.545   5.778 -12.469  0.00  0.00    -0.277 N 
ATOM      3  C   UNL     1       5.227   6.372 -13.646  0.00  0.00    +0.088 A 
ATOM      4  C   UNL     1       6.391   6.983 -14.094  0.00  0.00    +0.102 A 
ATOM      5  C   UNL     1       6.457   7.563 -15.350  0.00  0.00    +0.021 A 
ATOM      6  C   UNL     1       5.276   7.716 -16.050  0.00  0.00    +0.002 A 
ATOM      7  C   UNL     1       4.273   6.823 -15.784  0.00  0.00    +0.008 A 
ATOM      8  C   UNL     1       4.133   6.307 -14.501  0.00  0.00    +0.093 A 
ATOM      9  N   UNL     1       7.335   6.689 -13.191  0.00  0.00    -0.194 NA
ENDROOT
BRANCH   8  10
ATOM     10  C   UNL     1       2.898   5.678 -14.041  0.00  0.00    +0.343 C 
ATOM     11  O   UNL     1       2.527   4.618 -14.624  0.00  0.00    -0.245 OA
BRANCH  10  12
ATOM     12  O   UNL     1       1.865   6.516 -13.611  0.00  0.00    -0.437 OA
BRANCH  12  13
ATOM     13  C   UNL     1       0.601   6.553 -14.271  0.00  0.00    +0.275 C 
BRANCH  13  14
ATOM     14  C   UNL     1       0.519   7.894 -14.930  0.00  0.00    +0.204 A 
ATOM     15  C   UNL     1       0.168   8.115 -16.255  0.00  0.00    +0.164 A 
ATOM     16  C   UNL     1      -0.909   7.356 -16.964  0.00  0.00    +0.076 C 
ATOM     17  O   UNL     1       0.690   9.279 -16.544  0.00  0.00    -0.395 OA
ATOM     18  C   UNL     1       0.987   9.940 -15.439  0.00  0.00    +0.521 A 
ATOM     19  O   UNL     1       1.082  11.196 -15.285  0.00  0.00    -0.202 OA
ATOM     20  O   UNL     1       0.898   9.063 -14.453  0.00  0.00    -0.391 OA
ENDBRANCH  13  14
ENDBRANCH  12  13
ENDBRANCH  10  12
ENDBRANCH   8  10
BRANCH   1  21
ATOM     21  O   UNL     1       7.648   4.852 -11.593  0.00  0.00    -0.448 OA
BRANCH  21  23
ATOM     22  C   UNL     1       7.546   5.959  -9.461  0.00  0.00    +0.051 C 
ATOM     23  C   UNL     1       8.419   5.470 -10.582  0.00  0.00    +0.209 C 
ENDBRANCH  21  23
ENDBRANCH   1  21
BRANCH   2  24
ATOM     24  C   UNL     1       4.683   4.870 -11.743  0.00  0.00    +0.137 C 
BRANCH  24  25
ATOM     25  C   UNL     1       4.334   5.399 -10.388  0.00  0.00    +0.001 A 
ATOM     26  C   UNL     1       4.203   4.456  -9.376  0.00  0.00    -0.002 A 
ATOM     27  C   UNL     1       3.348   4.625  -8.309  0.00  0.00    -0.000 A 
ATOM     28  C   UNL     1       2.492   5.697  -8.274  0.00  0.00    +0.000 A 
ATOM     29  C   UNL     1       2.511   6.590  -9.312  0.00  0.00    -0.000 A 
ATOM     30  C   UNL     1       3.461   6.477 -10.314  0.00  0.00    -0.002 A 
BRANCH  28  31
ATOM     31  C   UNL     1       1.311   5.693  -7.400  0.00  0.00    +0.003 A 
ATOM     32  C   UNL     1       1.439   5.735  -6.038  0.00  0.00    +0.039 A 
ATOM     33  C   UNL     1       0.294   5.772  -5.252  0.00  0.00    +0.003 A 
ATOM     34  C   UNL     1      -0.884   5.366  -5.866  0.00  0.00    +0.000 A 
ATOM     35  C   UNL     1      -1.019   5.405  -7.241  0.00  0.00    +0.000 A 
ATOM     36  C   UNL     1       0.054   5.945  -7.936  0.00  0.00    +0.000 A 
BRANCH  32  37
ATOM     37  C   UNL     1       2.744   6.085  -5.464  0.00  0.00    +0.207 A 
ATOM     38  N   UNL     1       3.308   7.310  -5.378  0.00  0.00    -0.151 NA
ATOM     39  C   UNL     1       4.404   7.199  -4.615  0.00  0.00    +0.463 A 
ATOM     40  O   UNL     1       5.204   8.151  -4.436  0.00  0.00    -0.219 OA
ATOM     41  O   UNL     1       4.666   5.927  -4.509  0.00  0.00    -0.294 OA
ATOM     42  N   UNL     1       3.625   5.258  -4.871  0.00  0.00    -0.052 NA
ENDBRANCH  32  37
ENDBRANCH  28  31
ENDBRANCH  24  25
ENDBRANCH   2  24
TORSDOF 10
ENDMDL
MODEL 5
REMARK VINA RESULT:      -8.6      3.220     10.269
REMARK  Name = 
REMARK  10 active torsions:
REMARK  status: ('A' for Active; 'I' for Inactive)
REMARK    1  A    between atoms: C_2  and  O_3
REMARK    2  A    between atoms: O_3  and  C_4
REMARK    3  A    between atoms: C_10  and  C_11
REMARK    4  A    between atoms: C_11  and  O_13
REMARK    5  A    between atoms: O_13  and  C_14
REMARK    6  A    between atoms: C_14  and  C_15
REMARK    7  A    between atoms: N_23  and  C_24
REMARK    8  A    between atoms: C_24  and  C_25
REMARK    9  A    between atoms: C_28  and  C_29
REMARK   10  A    between atoms: C_34  and  C_35
REMARK                            x       y       z     vdW  Elec       q    Type
REMARK                         _______ _______ _______ _____ _____    ______ ____
ROOT
ATOM      1  C   UNL     1       6.607   5.916 -12.019  0.00  0.00    +0.301 A 
ATOM      2  N   UNL     1       5.283   5.937 -12.310  0.00  0.00    -0.277 N 
ATOM      3  C   UNL     1       5.144   6.407 -13.574  0.00  0.00    +0.088 A 
ATOM      4  C   UNL     1       6.340   7.044 -13.879  0.00  0.00    +0.102 A 
ATOM      5  C   UNL     1       6.593   7.517 -15.155  0.00  0.00    +0.021 A 
ATOM      6  C   UNL     1       5.543   7.541 -16.052  0.00  0.00    +0.002 A 
ATOM      7  C   UNL     1       4.549   6.618 -15.873  0.00  0.00    +0.008 A 
ATOM      8  C   UNL     1       4.215   6.206 -14.588  0.00  0.00    +0.093 A 
ATOM      9  N   UNL     1       7.128   6.884 -12.809  0.00  0.00    -0.194 NA
ENDROOT
BRANCH   8  10
ATOM     10  C   UNL     1       2.948   5.548 -14.282  0.00  0.00    +0.343 C 
ATOM     11  O   UNL     1       2.831   4.327 -14.591  0.00  0.00    -0.245 OA
BRANCH  10  12
ATOM     12  O   UNL     1       1.779   6.308 -14.394  0.00  0.00    -0.437 OA
BRANCH  12  13
ATOM     13  C   UNL     1       1.349   7.185 -13.355  0.00  0.00    +0.275 C 
BRANCH  13  14
ATOM     14  C   UNL     1       0.674   6.320 -12.338  0.00  0.00    +0.204 A 
ATOM     15  C   UNL     1      -0.200   6.769 -11.358  0.00  0.00    +0.164 A 
ATOM     16  C   UNL     1      -1.227   7.832 -11.589  0.00  0.00    +0.076 C 
ATOM     17  O   UNL     1      -0.153   5.852 -10.427  0.00  0.00    -0.395 OA
ATOM     18  C   UNL     1       0.360   4.732 -10.907  0.00  0.00    +0.521 A 
ATOM     19  O   UNL     1       0.175   3.549 -10.488  0.00  0.00    -0.202 OA
ATOM     20  O   UNL     1       0.887   5.044 -12.079  0.00  0.00    -0.391 OA
ENDBRANCH  13  14
ENDBRANCH  12  13
ENDBRANCH  10  12
ENDBRANCH   8  10
BRANCH   1  21
ATOM     21  O   UNL     1       7.243   5.212 -11.014  0.00  0.00    -0.448 OA
BRANCH  21  23
ATOM     22  C   UNL     1       7.272   5.580  -8.639  0.00  0.00    +0.051 C 
ATOM     23  C   UNL     1       7.844   5.961  -9.976  0.00  0.00    +0.209 C 
ENDBRANCH  21  23
ENDBRANCH   1  21
BRANCH   2  24
ATOM     24  C   UNL     1       4.349   5.045 -11.654  0.00  0.00    +0.137 C 
BRANCH  24  25
ATOM     25  C   UNL     1       4.178   5.386 -10.207  0.00  0.00    +0.001 A 
ATOM     26  C   UNL     1       3.927   4.321  -9.351  0.00  0.00    -0.002 A 
ATOM     27  C   UNL     1       3.177   4.452  -8.203  0.00  0.00    -0.000 A 
ATOM     28  C   UNL     1       2.539   5.635  -7.926  0.00  0.00    +0.000 A 
ATOM     29  C   UNL     1       2.669   6.676  -8.807  0.00  0.00    -0.000 A 
ATOM     30  C   UNL     1       3.527   6.572  -9.890  0.00  0.00    -0.002 A 
BRANCH  28  31
ATOM     31  C   UNL     1       1.427   5.689  -6.968  0.00  0.00    +0.003 A 
ATOM     32  C   UNL     1       1.656   5.701  -5.619  0.00  0.00    +0.039 A 
ATOM     33  C   UNL     1       0.575   5.794  -4.751  0.00  0.00    +0.003 A 
ATOM     34  C   UNL     1      -0.667   5.471  -5.281  0.00  0.00    +0.000 A 
ATOM     35  C   UNL     1      -0.899   5.540  -6.642  0.00  0.00    +0.000 A 
ATOM     36  C   UNL     1       0.152   6.026  -7.408  0.00  0.00    +0.000 A 
BRANCH  32  37
ATOM     37  C   UNL     1       3.018   5.962  -5.138  0.00  0.00    +0.207 A 
ATOM     38  N   UNL     1       3.652   7.153  -5.055  0.00  0.00    -0.151 NA
ATOM     39  C   UNL     1       4.796   6.957  -4.385  0.00  0.00    +0.463 A 
ATOM     40  O   UNL     1       5.657   7.860  -4.238  0.00  0.00    -0.219 OA
ATOM     41  O   UNL     1       4.996   5.671  -4.344  0.00  0.00    -0.294 OA
ATOM     42  N   UNL     1       3.897   5.070  -4.645  0.00  0.00    -0.052 NA
ENDBRANCH  32  37
ENDBRANCH  28  31
ENDBRANCH  24  25
ENDBRANCH   2  24
TORSDOF 10
ENDMDL
MODEL 6
REMARK VINA RESULT:      -8.1      2.554      9.643
REMARK  Name = 
REMARK  10 active torsions:
REMARK  status: ('A' for Active; 'I' for Inactive)
REMARK    1  A    between atoms: C_2  and  O_3
REMARK    2  A    between atoms: O_3  and  C_4
REMARK    3  A    between atoms: C_10  and  C_11
REMARK    4  A    between atoms: C_11  and  O_13
REMARK    5  A    between atoms: O_13  and  C_14
REMARK    6  A    between atoms: C_14  and  C_15
REMARK    7  A    between atoms: N_23  and  C_24
REMARK    8  A    between atoms: C_24  and  C_25
REMARK    9  A    between atoms: C_28  and  C_29
REMARK   10  A    between atoms: C_34  and  C_35
REMARK                            x       y       z     vdW  Elec       q    Type
REMARK                         _______ _______ _______ _____ _____    ______ ____
ROOT
ATOM      1  C   UNL     1       6.055   5.477  -9.042  0.00  0.00    +0.301 A 
ATOM      2  N   UNL     1       5.208   5.647 -10.087  0.00  0.00    -0.277 N 
ATOM      3  C   UNL     1       5.953   5.707 -11.218  0.00  0.00    +0.088 A 
ATOM      4  C   UNL     1       7.251   5.981 -10.808  0.00  0.00    +0.102 A 
ATOM      5  C   UNL     1       8.303   5.967 -11.707  0.00  0.00    +0.021 A 
ATOM      6  C   UNL     1       7.999   5.897 -13.052  0.00  0.00    +0.002 A 
ATOM      7  C   UNL     1       6.826   5.280 -13.395  0.00  0.00    +0.008 A 
ATOM      8  C   UNL     1       5.729   5.368 -12.547  0.00  0.00    +0.093 A 
ATOM      9  N   UNL     1       7.214   6.028  -9.470  0.00  0.00    -0.194 NA
ENDROOT
BRANCH   8  10
ATOM     10  C   UNL     1       4.368   5.089 -12.998  0.00  0.00    +0.343 C 
ATOM     11  O   UNL     1       4.176   4.027 -13.661  0.00  0.00    -0.245 OA
BRANCH  10  12
ATOM     12  O   UNL     1       3.570   6.176 -13.366  0.00  0.00    -0.437 OA
BRANCH  12  13
ATOM     13  C   UNL     1       2.298   6.000 -13.986  0.00  0.00    +0.275 C 
BRANCH  13  14
ATOM     14  C   UNL     1       1.306   5.899 -12.869  0.00  0.00    +0.204 A 
ATOM     15  C   UNL     1       0.623   6.967 -12.305  0.00  0.00    +0.164 A 
ATOM     16  C   UNL     1       0.078   8.112 -13.098  0.00  0.00    +0.076 C 
ATOM     17  O   UNL     1       0.286   6.550 -11.112  0.00  0.00    -0.395 OA
ATOM     18  C   UNL     1       0.363   5.232 -11.044  0.00  0.00    +0.521 A 
ATOM     19  O   UNL     1      -0.267   4.456 -10.264  0.00  0.00    -0.202 OA
ATOM     20  O   UNL     1       1.016   4.847 -12.127  0.00  0.00    -0.391 OA
ENDBRANCH  13  14
ENDBRANCH  12  13
ENDBRANCH  10  12
ENDBRANCH   8  10
BRANCH   1  21
ATOM     21  O   UNL     1       5.752   5.025  -7.771  0.00  0.00    -0.448 OA
BRANCH  21  23
ATOM     22  C   UNL     1       4.855   5.457  -5.583  0.00  0.00    +0.051 C 
ATOM     23  C   UNL     1       5.641   5.993  -6.747  0.00  0.00    +0.209 C 
ENDBRANCH  21  23
ENDBRANCH   1  21
BRANCH   2  24
ATOM     24  C   UNL     1       3.832   5.200 -10.028  0.00  0.00    +0.137 C 
BRANCH  24  25
ATOM     25  C   UNL     1       3.253   5.362  -8.658  0.00  0.00    +0.001 A 
ATOM     26  C   UNL     1       2.670   4.232  -8.099  0.00  0.00    -0.002 A 
ATOM     27  C   UNL     1       1.617   4.299  -7.213  0.00  0.00    -0.000 A 
ATOM     28  C   UNL     1       1.019   5.504  -6.942  0.00  0.00    +0.000 A 
ATOM     29  C   UNL     1       1.494   6.630  -7.562  0.00  0.00    -0.000 A 
ATOM     30  C   UNL     1       2.631   6.566  -8.351  0.00  0.00    -0.002 A 
BRANCH  28  31
ATOM     31  C   UNL     1      -0.325   5.566  -6.353  0.00  0.00    +0.003 A 
ATOM     32  C   UNL     1      -0.502   5.595  -4.996  0.00  0.00    +0.039 A 
ATOM     33  C   UNL     1      -1.790   5.696  -4.485  0.00  0.00    +0.003 A 
ATOM     34  C   UNL     1      -2.822   5.362  -5.352  0.00  0.00    +0.000 A 
ATOM     35  C   UNL     1      -2.644   5.414  -6.722  0.00  0.00    +0.000 A 
ATOM     36  C   UNL     1      -1.414   5.893  -7.152  0.00  0.00    +0.000 A 
BRANCH  32  37
ATOM     37  C   UNL     1       0.660   5.866  -4.141  0.00  0.00    +0.207 A 
ATOM     38  N   UNL     1       1.154   5.094  -3.147  0.00  0.00    -0.151 NA
ATOM     39  C   UNL     1       2.324   5.624  -2.766  0.00  0.00    +0.463 A 
ATOM     40  O   UNL     1       2.976   5.188  -1.785  0.00  0.00    -0.219 OA
ATOM     41  O   UNL     1       2.383   6.821  -3.275  0.00  0.00    -0.294 OA
ATOM     42  N   UNL     1       1.492   6.922  -4.201  0.00  0.00    -0.052 NA
ENDBRANCH  32  37
ENDBRANCH  28  31
ENDBRANCH  24  25
ENDBRANCH   2  24
TORSDOF 10
ENDMDL
MODEL 7
REMARK VINA RESULT:      -8.0      1.969      4.748
REMARK  Name = 
REMARK  10 active torsions:
REMARK  status: ('A' for Active; 'I' for Inactive)
REMARK    1  A    between atoms: C_2  and  O_3
REMARK    2  A    between atoms: O_3  and  C_4
REMARK    3  A    between atoms: C_10  and  C_11
REMARK    4  A    between atoms: C_11  and  O_13
REMARK    5  A    between atoms: O_13  and  C_14
REMARK    6  A    between atoms: C_14  and  C_15
REMARK    7  A    between atoms: N_23  and  C_24
REMARK    8  A    between atoms: C_24  and  C_25
REMARK    9  A    between atoms: C_28  and  C_29
REMARK   10  A    between atoms: C_34  and  C_35
REMARK                            x       y       z     vdW  Elec       q    Type
REMARK                         _______ _______ _______ _____ _____    ______ ____
ROOT
ATOM      1  C   UNL     1       4.056   6.033  -4.128  0.00  0.00    +0.301 A 
ATOM      2  N   UNL     1       2.717   5.866  -3.992  0.00  0.00    -0.277 N 
ATOM      3  C   UNL     1       2.501   5.168  -2.850  0.00  0.00    +0.088 A 
ATOM      4  C   UNL     1       3.715   4.574  -2.529  0.00  0.00    +0.102 A 
ATOM      5  C   UNL     1       3.886   3.899  -1.332  0.00  0.00    +0.021 A 
ATOM      6  C   UNL     1       2.761   3.640  -0.574  0.00  0.00    +0.002 A 
ATOM      7  C   UNL     1       1.710   4.506  -0.701  0.00  0.00    +0.008 A 
ATOM      8  C   UNL     1       1.465   5.117  -1.925  0.00  0.00    +0.093 A 
ATOM      9  N   UNL     1       4.585   4.979  -3.463  0.00  0.00    -0.194 NA
ENDROOT
BRANCH   8  10
ATOM     10  C   UNL     1       0.179   5.726  -2.252  0.00  0.00    +0.343 C 
ATOM     11  O   UNL     1      -0.146   6.779  -1.631  0.00  0.00    -0.245 OA
BRANCH  10  12
ATOM     12  O   UNL     1      -0.880   4.872  -2.576  0.00  0.00    -0.437 OA
BRANCH  12  13
ATOM     13  C   UNL     1      -2.123   5.368  -3.067  0.00  0.00    +0.275 C 
BRANCH  13  14
ATOM     14  C   UNL     1      -1.888   5.725  -4.500  0.00  0.00    +0.204 A 
ATOM     15  C   UNL     1      -2.205   6.944  -5.085  0.00  0.00    +0.164 A 
ATOM     16  C   UNL     1      -2.016   8.262  -4.403  0.00  0.00    +0.076 C 
ATOM     17  O   UNL     1      -2.317   6.679  -6.361  0.00  0.00    -0.395 OA
ATOM     18  C   UNL     1      -1.737   5.526  -6.646  0.00  0.00    +0.521 A 
ATOM     19  O   UNL     1      -1.260   5.149  -7.759  0.00  0.00    -0.202 OA
ATOM     20  O   UNL     1      -1.499   4.939  -5.485  0.00  0.00    -0.391 OA
ENDBRANCH  13  14
ENDBRANCH  12  13
ENDBRANCH  10  12
ENDBRANCH   8  10
BRANCH   1  21
ATOM     21  O   UNL     1       4.720   6.950  -4.921  0.00  0.00    -0.448 OA
BRANCH  21  23
ATOM     22  C   UNL     1       4.682   8.284  -2.921  0.00  0.00    +0.051 C 
ATOM     23  C   UNL     1       5.294   8.071  -4.278  0.00  0.00    +0.209 C 
ENDBRANCH  21  23
ENDBRANCH   1  21
BRANCH   2  24
ATOM     24  C   UNL     1       1.775   6.791  -4.585  0.00  0.00    +0.137 C 
BRANCH  24  25
ATOM     25  C   UNL     1       1.602   6.546  -6.051  0.00  0.00    +0.001 A 
ATOM     26  C   UNL     1       1.964   5.286  -6.509  0.00  0.00    -0.002 A 
ATOM     27  C   UNL     1       2.447   5.069  -7.781  0.00  0.00    -0.000 A 
ATOM     28  C   UNL     1       2.705   6.130  -8.612  0.00  0.00    +0.000 A 
ATOM     29  C   UNL     1       2.469   7.399  -8.154  0.00  0.00    -0.000 A 
ATOM     30  C   UNL     1       1.865   7.596  -6.922  0.00  0.00    -0.002 A 
BRANCH  28  31
ATOM     31  C   UNL     1       3.585   5.980  -9.779  0.00  0.00    +0.003 A 
ATOM     32  C   UNL     1       3.074   5.717 -11.021  0.00  0.00    +0.039 A 
ATOM     33  C   UNL     1       3.941   5.625 -12.103  0.00  0.00    +0.003 A 
ATOM     34  C   UNL     1       5.279   5.409 -11.800  0.00  0.00    +0.000 A 
ATOM     35  C   UNL     1       5.792   5.755 -10.564  0.00  0.00    +0.000 A 
ATOM     36  C   UNL     1       4.910   6.392  -9.702  0.00  0.00    +0.000 A 
BRANCH  32  37
ATOM     37  C   UNL     1       1.632   5.882 -11.238  0.00  0.00    +0.207 A 
ATOM     38  N   UNL     1       0.926   7.034 -11.271  0.00  0.00    -0.151 NA
ATOM     39  C   UNL     1      -0.313   6.739 -11.686  0.00  0.00    +0.463 A 
ATOM     40  O   UNL     1      -1.237   7.590 -11.718  0.00  0.00    -0.219 OA
ATOM     41  O   UNL     1      -0.444   5.446 -11.603  0.00  0.00    -0.294 OA
ATOM     42  N   UNL     1       0.726   4.918 -11.488  0.00  0.00    -0.052 NA
ENDBRANCH  32  37
ENDBRANCH  28  31
ENDBRANCH  24  25
ENDBRANCH   2  24
TORSDOF 10
ENDMDL
MODEL 8
REMARK VINA RESULT:      -8.0      4.592     10.808
REMARK  Name = 
REMARK  10 active torsions:
REMARK  status: ('A' for Active; 'I' for Inactive)
REMARK    1  A    between atoms: C_2  and  O_3
REMARK    2  A    between atoms: O_3  and  C_4
REMARK    3  A    between atoms: C_10  and  C_11
REMARK    4  A    between atoms: C_11  and  O_13
REMARK    5  A    between atoms: O_13  and  C_14
REMARK    6  A    between atoms: C_14  and  C_15
REMARK    7  A    between atoms: N_23  and  C_24
REMARK    8  A    between atoms: C_24  and  C_25
REMARK    9  A    between atoms: C_28  and  C_29
REMARK   10  A    between atoms: C_34  and  C_35
REMARK                            x       y       z     vdW  Elec       q    Type
REMARK                         _______ _______ _______ _____ _____    ______ ____
ROOT
ATOM      1  C   UNL     1       6.987   5.632 -13.242  0.00  0.00    +0.301 A 
ATOM      2  N   UNL     1       5.668   5.867 -13.032  0.00  0.00    -0.277 N 
ATOM      3  C   UNL     1       5.165   6.439 -14.153  0.00  0.00    +0.088 A 
ATOM      4  C   UNL     1       6.260   6.913 -14.865  0.00  0.00    +0.102 A 
ATOM      5  C   UNL     1       6.114   7.431 -16.141  0.00  0.00    +0.021 A 
ATOM      6  C   UNL     1       4.831   7.671 -16.595  0.00  0.00    +0.002 A 
ATOM      7  C   UNL     1       3.831   6.893 -16.076  0.00  0.00    +0.008 A 
ATOM      8  C   UNL     1       3.916   6.447 -14.763  0.00  0.00    +0.093 A 
ATOM      9  N   UNL     1       7.341   6.565 -14.157  0.00  0.00    -0.194 NA
ENDROOT
BRANCH   8  10
ATOM     10  C   UNL     1       2.753   5.964 -14.024  0.00  0.00    +0.343 C 
ATOM     11  O   UNL     1       2.138   4.961 -14.491  0.00  0.00    -0.245 OA
BRANCH  10  12
ATOM     12  O   UNL     1       1.951   6.913 -13.384  0.00  0.00    -0.437 OA
BRANCH  12  13
ATOM     13  C   UNL     1       0.586   7.112 -13.747  0.00  0.00    +0.275 C 
BRANCH  13  14
ATOM     14  C   UNL     1       0.572   8.293 -14.667  0.00  0.00    +0.204 A 
ATOM     15  C   UNL     1       0.416   8.234 -16.044  0.00  0.00    +0.164 A 
ATOM     16  C   UNL     1      -0.528   7.298 -16.731  0.00  0.00    +0.076 C 
ATOM     17  O   UNL     1       0.950   9.344 -16.485  0.00  0.00    -0.395 OA
ATOM     18  C   UNL     1       1.066  10.222 -15.504  0.00  0.00    +0.521 A 
ATOM     19  O   UNL     1       1.111  11.487 -15.593  0.00  0.00    -0.202 OA
ATOM     20  O   UNL     1       0.852   9.551 -14.385  0.00  0.00    -0.391 OA
ENDBRANCH  13  14
ENDBRANCH  12  13
ENDBRANCH  10  12
ENDBRANCH   8  10
BRANCH   1  21
ATOM     21  O   UNL     1       7.816   4.774 -12.545  0.00  0.00    -0.448 OA
BRANCH  21  23
ATOM     22  C   UNL     1       8.175   6.454 -10.862  0.00  0.00    +0.051 C 
ATOM     23  C   UNL     1       8.781   5.355 -11.690  0.00  0.00    +0.209 C 
ENDBRANCH  21  23
ENDBRANCH   1  21
BRANCH   2  24
ATOM     24  C   UNL     1       4.899   5.079 -12.092  0.00  0.00    +0.137 C 
BRANCH  24  25
ATOM     25  C   UNL     1       4.980   5.634 -10.704  0.00  0.00    +0.001 A 
ATOM     26  C   UNL     1       4.940   4.708  -9.670  0.00  0.00    -0.002 A 
ATOM     27  C   UNL     1       4.408   4.999  -8.432  0.00  0.00    -0.000 A 
ATOM     28  C   UNL     1       3.777   6.199  -8.217  0.00  0.00    +0.000 A 
ATOM     29  C   UNL     1       3.695   7.095  -9.249  0.00  0.00    -0.000 A 
ATOM     30  C   UNL     1       4.344   6.843 -10.447  0.00  0.00    -0.002 A 
BRANCH  28  31
ATOM     31  C   UNL     1       2.858   6.378  -7.085  0.00  0.00    +0.003 A 
ATOM     32  C   UNL     1       1.511   6.518  -7.284  0.00  0.00    +0.039 A 
ATOM     33  C   UNL     1       0.675   6.644  -6.182  0.00  0.00    +0.003 A 
ATOM     34  C   UNL     1       1.283   7.016  -4.990  0.00  0.00    +0.000 A 
ATOM     35  C   UNL     1       2.631   6.795  -4.781  0.00  0.00    +0.000 A 
ATOM     36  C   UNL     1       3.294   6.114  -5.793  0.00  0.00    +0.000 A 
BRANCH  32  37
ATOM     37  C   UNL     1       0.957   6.189  -8.603  0.00  0.00    +0.207 A 
ATOM     38  N   UNL     1       0.786   4.964  -9.147  0.00  0.00    -0.151 NA
ATOM     39  C   UNL     1       0.075   5.115 -10.272  0.00  0.00    +0.463 A 
ATOM     40  O   UNL     1      -0.155   4.164 -11.060  0.00  0.00    -0.219 OA
ATOM     41  O   UNL     1       0.087   6.384 -10.561  0.00  0.00    -0.294 OA
ATOM     42  N   UNL     1       0.467   7.043  -9.521  0.00  0.00    -0.052 NA
ENDBRANCH  32  37
ENDBRANCH  28  31
ENDBRANCH  24  25
ENDBRANCH   2  24
TORSDOF 10
ENDMDL
MODEL 9
REMARK VINA RESULT:      -7.9      2.379      9.717
REMARK  Name = 
REMARK  10 active torsions:
REMARK  status: ('A' for Active; 'I' for Inactive)
REMARK    1  A    between atoms: C_2  and  O_3
REMARK    2  A    between atoms: O_3  and  C_4
REMARK    3  A    between atoms: C_10  and  C_11
REMARK    4  A    between atoms: C_11  and  O_13
REMARK    5  A    between atoms: O_13  and  C_14
REMARK    6  A    between atoms: C_14  and  C_15
REMARK    7  A    between atoms: N_23  and  C_24
REMARK    8  A    between atoms: C_24  and  C_25
REMARK    9  A    between atoms: C_28  and  C_29
REMARK   10  A    between atoms: C_34  and  C_35
REMARK                            x       y       z     vdW  Elec       q    Type
REMARK                         _______ _______ _______ _____ _____    ______ ____
ROOT
ATOM      1  C   UNL     1       4.419   5.274  -7.443  0.00  0.00    +0.301 A 
ATOM      2  N   UNL     1       3.464   5.799  -8.250  0.00  0.00    -0.277 N 
ATOM      3  C   UNL     1       3.978   5.884  -9.501  0.00  0.00    +0.088 A 
ATOM      4  C   UNL     1       5.356   5.794  -9.355  0.00  0.00    +0.102 A 
ATOM      5  C   UNL     1       6.187   5.701 -10.459  0.00  0.00    +0.021 A 
ATOM      6  C   UNL     1       5.631   5.927 -11.703  0.00  0.00    +0.002 A 
ATOM      7  C   UNL     1       4.300   5.648 -11.851  0.00  0.00    +0.008 A 
ATOM      8  C   UNL     1       3.435   5.831 -10.779  0.00  0.00    +0.093 A 
ATOM      9  N   UNL     1       5.580   5.622  -8.047  0.00  0.00    -0.194 NA
ENDROOT
BRANCH   8  10
ATOM     10  C   UNL     1       1.989   5.936 -10.950  0.00  0.00    +0.343 C 
ATOM     11  O   UNL     1       1.336   4.862 -11.098  0.00  0.00    -0.245 OA
BRANCH  10  12
ATOM     12  O   UNL     1       1.497   7.037 -11.659  0.00  0.00    -0.437 OA
BRANCH  12  13
ATOM     13  C   UNL     1       0.246   6.995 -12.342  0.00  0.00    +0.275 C 
BRANCH  13  14
ATOM     14  C   UNL     1       0.570   7.050 -13.802  0.00  0.00    +0.204 A 
ATOM     15  C   UNL     1       1.108   6.006 -14.543  0.00  0.00    +0.164 A 
ATOM     16  C   UNL     1       0.707   4.575 -14.369  0.00  0.00    +0.076 C 
ATOM     17  O   UNL     1       1.683   6.589 -15.564  0.00  0.00    -0.395 OA
ATOM     18  C   UNL     1       1.227   7.820 -15.710  0.00  0.00    +0.521 A 
ATOM     19  O   UNL     1       1.192   8.516 -16.770  0.00  0.00    -0.202 OA
ATOM     20  O   UNL     1       0.560   8.098 -14.602  0.00  0.00    -0.391 OA
ENDBRANCH  13  14
ENDBRANCH  12  13
ENDBRANCH  10  12
ENDBRANCH   8  10
BRANCH   1  21
ATOM     21  O   UNL     1       4.254   4.692  -6.201  0.00  0.00    -0.448 OA
BRANCH  21  23
ATOM     22  C   UNL     1       4.238   4.867  -3.803  0.00  0.00    +0.051 C 
ATOM     23  C   UNL     1       4.841   5.346  -5.094  0.00  0.00    +0.209 C 
ENDBRANCH  21  23
ENDBRANCH   1  21
BRANCH   2  24
ATOM     24  C   UNL     1       2.055   5.661  -7.944  0.00  0.00    +0.137 C 
BRANCH  24  25
ATOM     25  C   UNL     1       1.794   5.750  -6.473  0.00  0.00    +0.001 A 
ATOM     26  C   UNL     1       1.090   4.694  -5.909  0.00  0.00    -0.002 A 
ATOM     27  C   UNL     1       0.263   4.852  -4.817  0.00  0.00    -0.000 A 
ATOM     28  C   UNL     1       0.010   6.104  -4.318  0.00  0.00    +0.000 A 
ATOM     29  C   UNL     1       0.598   7.185  -4.920  0.00  0.00    -0.000 A 
ATOM     30  C   UNL     1       1.524   7.002  -5.934  0.00  0.00    -0.002 A 
BRANCH  28  31
ATOM     31  C   UNL     1      -1.152   6.354  -3.455  0.00  0.00    +0.003 A 
ATOM     32  C   UNL     1      -1.134   6.014  -2.129  0.00  0.00    +0.039 A 
ATOM     33  C   UNL     1      -2.241   6.306  -1.341  0.00  0.00    +0.003 A 
ATOM     34  C   UNL     1      -3.427   6.555  -2.019  0.00  0.00    +0.000 A 
ATOM     35  C   UNL     1      -3.419   6.974  -3.336  0.00  0.00    +0.000 A 
ATOM     36  C   UNL     1      -2.165   7.199  -3.889  0.00  0.00    +0.000 A 
BRANCH  32  37
ATOM     37  C   UNL     1       0.151   5.675  -1.507  0.00  0.00    +0.207 A 
ATOM     38  N   UNL     1       0.679   4.445  -1.315  0.00  0.00    -0.151 NA
ATOM     39  C   UNL     1       1.941   4.607  -0.894  0.00  0.00    +0.463 A 
ATOM     40  O   UNL     1       2.661   3.645  -0.529  0.00  0.00    -0.219 OA
ATOM     41  O   UNL     1       2.068   5.855  -0.546  0.00  0.00    -0.294 OA
ATOM     42  N   UNL     1       1.082   6.525  -1.037  0.00  0.00    -0.052 NA
ENDBRANCH  32  37
ENDBRANCH  28  31
ENDBRANCH  24  25
ENDBRANCH   2  24
TORSDOF 10
ENDMDL
