MODEL 1
REMARK VINA RESULT:      -5.7      0.000      0.000
REMARK  Name = 
REMARK  3 active torsions:
REMARK  status: ('A' for Active; 'I' for Inactive)
REMARK    1  A    between atoms: C_2  and  C_3
REMARK    2  A    between atoms: C_3  and  C_5
REMARK    3  A    between atoms: C_5  and  C_6
REMARK                            x       y       z     vdW  Elec       q    Type
REMARK                         _______ _______ _______ _____ _____    ______ ____
ROOT
ATOM      1  C   UNL     1       1.549   5.382  -7.876  0.00  0.00    +0.141 C 
ATOM      2  C   UNL     1       2.100   6.717  -8.181  0.00  0.00    +0.257 C 
ATOM      3  O   UNL     1       1.583   7.359  -9.143  0.00  0.00    -0.272 OA
ATOM      4  N   UNL     1       2.488   7.530  -7.066  0.00  0.00    -0.125 NA
ATOM      5  C   UNL     1       3.150   6.918  -5.981  0.00  0.00    +0.352 C 
ATOM      6  O   UNL     1       3.924   7.584  -5.240  0.00  0.00    -0.248 OA
ATOM      7  N   UNL     1       3.034   5.504  -5.830  0.00  0.00    -0.125 NA
ATOM      8  C   UNL     1       2.073   4.805  -6.632  0.00  0.00    +0.257 C 
ATOM      9  O   UNL     1       2.098   3.548  -6.463  0.00  0.00    -0.272 OA
ENDROOT
BRANCH   1  10
ATOM     10  C   UNL     1       2.095   4.377  -9.042  0.00  0.00    +0.017 C 
ATOM     11  C   UNL     1       1.257   5.137 -10.223  0.00  0.00    +0.001 C 
BRANCH  10  13
ATOM     12  C   UNL     1       4.034   4.869  -9.666  0.00  0.00    +0.000 C 
ATOM     13  C   UNL     1       3.432   5.280  -9.307  0.00  0.00    +0.001 C 
ENDBRANCH  10  13
ENDBRANCH   1  10
BRANCH   1  14
ATOM     14  C   UNL     1       0.068   5.429  -7.990  0.00  0.00    +0.018 C 
ATOM     15  C   UNL     1      -0.672   5.583  -6.715  0.00  0.00    +0.001 C 
ENDBRANCH   1  14
TORSDOF 3
ENDMDL
MODEL 2
REMARK VINA RESULT:      -5.7      3.714      4.982
REMARK  Name = 
REMARK  3 active torsions:
REMARK  status: ('A' for Active; 'I' for Inactive)
REMARK    1  A    between atoms: C_2  and  C_3
REMARK    2  A    between atoms: C_3  and  C_5
REMARK    3  A    between atoms: C_5  and  C_6
REMARK                            x       y       z     vdW  Elec       q    Type
REMARK                         _______ _______ _______ _____ _____    ______ ____
ROOT
ATOM      1  C   UNL     1      -1.266   6.047  -4.557  0.00  0.00    +0.141 C 
ATOM      2  C   UNL     1       0.200   6.053  -4.386  0.00  0.00    +0.257 C 
ATOM      3  O   UNL     1       0.889   6.668  -5.254  0.00  0.00    -0.272 OA
ATOM      4  N   UNL     1       0.697   6.166  -3.047  0.00  0.00    -0.125 NA
ATOM      5  C   UNL     1       0.047   5.449  -2.021  0.00  0.00    +0.352 C 
ATOM      6  O   UNL     1       0.670   5.107  -0.978  0.00  0.00    -0.248 OA
ATOM      7  N   UNL     1      -1.285   4.997  -2.253  0.00  0.00    -0.125 NA
ATOM      8  C   UNL     1      -1.985   5.487  -3.405  0.00  0.00    +0.257 C 
ATOM      9  O   UNL     1      -3.136   4.973  -3.550  0.00  0.00    -0.272 OA
ENDROOT
BRANCH   1  10
ATOM     10  C   UNL     1      -1.586   5.004  -5.772  0.00  0.00    +0.017 C 
ATOM     11  C   UNL     1      -2.810   5.915  -6.361  0.00  0.00    +0.001 C 
BRANCH  10  13
ATOM     12  C   UNL     1      -0.537   5.436  -7.534  0.00  0.00    +0.000 C 
ATOM     13  C   UNL     1      -0.490   5.697  -6.766  0.00  0.00    +0.001 C 
ENDBRANCH  10  13
ENDBRANCH   1  10
BRANCH   1  14
ATOM     14  C   UNL     1      -1.711   7.394  -5.000  0.00  0.00    +0.018 C 
ATOM     15  C   UNL     1      -1.997   8.366  -3.919  0.00  0.00    +0.001 C 
ENDBRANCH   1  14
TORSDOF 3
ENDMDL
MODEL 3
REMARK VINA RESULT:      -5.7      1.252      3.303
REMARK  Name = 
REMARK  3 active torsions:
REMARK  status: ('A' for Active; 'I' for Inactive)
REMARK    1  A    between atoms: C_2  and  C_3
REMARK    2  A    between atoms: C_3  and  C_5
REMARK    3  A    between atoms: C_5  and  C_6
REMARK                            x       y       z     vdW  Elec       q    Type
REMARK                         _______ _______ _______ _____ _____    ______ ____
ROOT
ATOM      1  C   UNL     1       2.360   6.176  -8.548  0.00  0.00    +0.141 C 
ATOM      2  C   UNL     1       2.560   4.915  -7.807  0.00  0.00    +0.257 C 
ATOM      3  O   UNL     1       2.497   3.833  -8.464  0.00  0.00    -0.272 OA
ATOM      4  N   UNL     1       3.548   4.921  -6.769  0.00  0.00    -0.125 NA
ATOM      5  C   UNL     1       3.638   6.050  -5.927  0.00  0.00    +0.352 C 
ATOM      6  O   UNL     1       4.095   5.946  -4.756  0.00  0.00    -0.248 OA
ATOM      7  N   UNL     1       3.069   7.277  -6.380  0.00  0.00    -0.125 NA
ATOM      8  C   UNL     1       2.648   7.373  -7.748  0.00  0.00    +0.257 C 
ATOM      9  O   UNL     1       2.100   8.483  -8.027  0.00  0.00    -0.272 OA
ENDROOT
BRANCH   1  10
ATOM     10  C   UNL     1       0.761   6.281  -8.861  0.00  0.00    +0.017 C 
ATOM     11  C   UNL     1       0.764   4.957  -9.821  0.00  0.00    +0.001 C 
BRANCH  10  13
ATOM     12  C   UNL     1      -0.433   5.427  -7.366  0.00  0.00    +0.000 C 
ATOM     13  C   UNL     1       0.361   5.412  -7.536  0.00  0.00    +0.001 C 
ENDBRANCH  10  13
ENDBRANCH   1  10
BRANCH   1  14
ATOM     14  C   UNL     1       3.063   6.091  -9.854  0.00  0.00    +0.018 C 
ATOM     15  C   UNL     1       4.475   6.541  -9.857  0.00  0.00    +0.001 C 
ENDBRANCH   1  14
TORSDOF 3
ENDMDL
MODEL 4
REMARK VINA RESULT:      -5.7      1.720      3.788
REMARK  Name = 
REMARK  3 active torsions:
REMARK  status: ('A' for Active; 'I' for Inactive)
REMARK    1  A    between atoms: C_2  and  C_3
REMARK    2  A    between atoms: C_3  and  C_5
REMARK    3  A    between atoms: C_5  and  C_6
REMARK                            x       y       z     vdW  Elec       q    Type
REMARK                         _______ _______ _______ _____ _____    ______ ____
ROOT
ATOM      1  C   UNL     1       1.966   6.001  -7.119  0.00  0.00    +0.141 C 
ATOM      2  C   UNL     1       2.681   4.718  -7.262  0.00  0.00    +0.257 C 
ATOM      3  O   UNL     1       2.313   3.756  -6.523  0.00  0.00    -0.272 OA
ATOM      4  N   UNL     1       3.068   4.333  -8.587  0.00  0.00    -0.125 NA
ATOM      5  C   UNL     1       3.573   5.321  -9.458  0.00  0.00    +0.352 C 
ATOM      6  O   UNL     1       4.355   5.013 -10.398  0.00  0.00    -0.248 OA
ATOM      7  N   UNL     1       3.293   6.688  -9.163  0.00  0.00    -0.125 NA
ATOM      8  C   UNL     1       2.326   6.986  -8.147  0.00  0.00    +0.257 C 
ATOM      9  O   UNL     1       2.201   8.229  -7.922  0.00  0.00    -0.272 OA
ENDROOT
BRANCH   1  10
ATOM     10  C   UNL     1       2.488   6.671  -5.724  0.00  0.00    +0.017 C 
ATOM     11  C   UNL     1       1.901   5.451  -4.807  0.00  0.00    +0.001 C 
BRANCH  10  13
ATOM     12  C   UNL     1       4.519   6.305  -5.358  0.00  0.00    +0.000 C 
ATOM     13  C   UNL     1       3.961   5.972  -5.845  0.00  0.00    +0.001 C 
ENDBRANCH  10  13
ENDBRANCH   1  10
BRANCH   1  14
ATOM     14  C   UNL     1       0.512   5.735  -6.965  0.00  0.00    +0.018 C 
ATOM     15  C   UNL     1      -0.242   5.527  -8.224  0.00  0.00    +0.001 C 
ENDBRANCH   1  14
TORSDOF 3
ENDMDL
MODEL 5
REMARK VINA RESULT:      -5.7      4.440      6.292
REMARK  Name = 
REMARK  3 active torsions:
REMARK  status: ('A' for Active; 'I' for Inactive)
REMARK    1  A    between atoms: C_2  and  C_3
REMARK    2  A    between atoms: C_3  and  C_5
REMARK    3  A    between atoms: C_5  and  C_6
REMARK                            x       y       z     vdW  Elec       q    Type
REMARK                         _______ _______ _______ _____ _____    ______ ____
ROOT
ATOM      1  C   UNL     1       6.570   6.005 -11.352  0.00  0.00    +0.141 C 
ATOM      2  C   UNL     1       6.695   5.538  -9.957  0.00  0.00    +0.257 C 
ATOM      3  O   UNL     1       7.758   5.834  -9.333  0.00  0.00    -0.272 OA
ATOM      4  N   UNL     1       5.509   5.567  -9.153  0.00  0.00    -0.125 NA
ATOM      5  C   UNL     1       4.287   5.172  -9.737  0.00  0.00    +0.352 C 
ATOM      6  O   UNL     1       3.352   4.711  -9.026  0.00  0.00    -0.248 OA
ATOM      7  N   UNL     1       4.188   5.171 -11.160  0.00  0.00    -0.125 NA
ATOM      8  C   UNL     1       5.235   5.789 -11.921  0.00  0.00    +0.257 C 
ATOM      9  O   UNL     1       5.077   5.676 -13.175  0.00  0.00    -0.272 OA
ENDROOT
BRANCH   1  10
ATOM     10  C   UNL     1       7.545   5.050 -12.249  0.00  0.00    +0.017 C 
ATOM     11  C   UNL     1       7.383   5.978 -13.586  0.00  0.00    +0.001 C 
BRANCH  10  13
ATOM     12  C   UNL     1       9.500   5.803 -12.313  0.00  0.00    +0.000 C 
ATOM     13  C   UNL     1       8.895   5.840 -11.772  0.00  0.00    +0.001 C 
ENDBRANCH  10  13
ENDBRANCH   1  10
BRANCH   1  14
ATOM     14  C   UNL     1       7.096   7.392 -11.451  0.00  0.00    +0.018 C 
ATOM     15  C   UNL     1       6.103   8.473 -11.243  0.00  0.00    +0.001 C 
ENDBRANCH   1  14
TORSDOF 3
ENDMDL
MODEL 6
REMARK VINA RESULT:      -5.6      1.743      3.962
REMARK  Name = 
REMARK  3 active torsions:
REMARK  status: ('A' for Active; 'I' for Inactive)
REMARK    1  A    between atoms: C_2  and  C_3
REMARK    2  A    between atoms: C_3  and  C_5
REMARK    3  A    between atoms: C_5  and  C_6
REMARK                            x       y       z     vdW  Elec       q    Type
REMARK                         _______ _______ _______ _____ _____    ______ ____
ROOT
ATOM      1  C   UNL     1       3.101   5.386  -7.447  0.00  0.00    +0.141 C 
ATOM      2  C   UNL     1       2.513   6.730  -7.280  0.00  0.00    +0.257 C 
ATOM      3  O   UNL     1       3.028   7.490  -6.406  0.00  0.00    -0.272 OA
ATOM      4  N   UNL     1       2.081   7.402  -8.469  0.00  0.00    -0.125 NA
ATOM      5  C   UNL     1       1.420   6.655  -9.466  0.00  0.00    +0.352 C 
ATOM      6  O   UNL     1       0.612   7.211 -10.260  0.00  0.00    -0.248 OA
ATOM      7  N   UNL     1       1.577   5.237  -9.463  0.00  0.00    -0.125 NA
ATOM      8  C   UNL     1       2.573   4.660  -8.609  0.00  0.00    +0.257 C 
ATOM      9  O   UNL     1       2.585   3.391  -8.637  0.00  0.00    -0.272 OA
ENDROOT
BRANCH   1  10
ATOM     10  C   UNL     1       2.607   4.502  -6.166  0.00  0.00    +0.017 C 
ATOM     11  C   UNL     1       3.416   5.432  -5.090  0.00  0.00    +0.001 C 
BRANCH  10  13
ATOM     12  C   UNL     1       0.666   4.993  -5.549  0.00  0.00    +0.000 C 
ATOM     13  C   UNL     1       1.231   5.368  -5.995  0.00  0.00    +0.001 C 
ENDBRANCH  10  13
ENDBRANCH   1  10
BRANCH   1  14
ATOM     14  C   UNL     1       4.582   5.489  -7.370  0.00  0.00    +0.018 C 
ATOM     15  C   UNL     1       5.300   5.420  -8.665  0.00  0.00    +0.001 C 
ENDBRANCH   1  14
TORSDOF 3
ENDMDL
MODEL 7
REMARK VINA RESULT:      -5.5      1.343      3.682
REMARK  Name = 
REMARK  3 active torsions:
REMARK  status: ('A' for Active; 'I' for Inactive)
REMARK    1  A    between atoms: C_2  and  C_3
REMARK    2  A    between atoms: C_3  and  C_5
REMARK    3  A    between atoms: C_5  and  C_6
REMARK                            x       y       z     vdW  Elec       q    Type
REMARK                         _______ _______ _______ _____ _____    ______ ____
ROOT
ATOM      1  C   UNL     1       1.495   5.944  -7.038  0.00  0.00    +0.141 C 
ATOM      2  C   UNL     1       1.795   5.031  -5.917  0.00  0.00    +0.257 C 
ATOM      3  O   UNL     1       1.176   3.925  -5.879  0.00  0.00    -0.272 OA
ATOM      4  N   UNL     1       3.159   4.961  -5.484  0.00  0.00    -0.125 NA
ATOM      5  C   UNL     1       3.907   6.155  -5.410  0.00  0.00    +0.352 C 
ATOM      6  O   UNL     1       4.882   6.257  -4.616  0.00  0.00    -0.248 OA
ATOM      7  N   UNL     1       3.448   7.286  -6.147  0.00  0.00    -0.125 NA
ATOM      8  C   UNL     1       2.397   7.099  -7.106  0.00  0.00    +0.257 C 
ATOM      9  O   UNL     1       2.024   8.179  -7.657  0.00  0.00    -0.272 OA
ENDROOT
BRANCH   1  10
ATOM     10  C   UNL     1       0.032   6.598  -6.723  0.00  0.00    +0.017 C 
ATOM     11  C   UNL     1      -0.742   5.161  -6.833  0.00  0.00    +0.001 C 
BRANCH  10  13
ATOM     12  C   UNL     1      -0.288   6.916  -4.676  0.00  0.00    +0.000 C 
ATOM     13  C   UNL     1       0.225   6.456  -5.106  0.00  0.00    +0.001 C 
ENDBRANCH  10  13
ENDBRANCH   1  10
BRANCH   1  14
ATOM     14  C   UNL     1       1.366   5.153  -8.290  0.00  0.00    +0.018 C 
ATOM     15  C   UNL     1       2.627   4.904  -9.027  0.00  0.00    +0.001 C 
ENDBRANCH   1  14
TORSDOF 3
ENDMDL
MODEL 8
REMARK VINA RESULT:      -5.4      1.671      3.396
REMARK  Name = 
REMARK  3 active torsions:
REMARK  status: ('A' for Active; 'I' for Inactive)
REMARK    1  A    between atoms: C_2  and  C_3
REMARK    2  A    between atoms: C_3  and  C_5
REMARK    3  A    between atoms: C_5  and  C_6
REMARK                            x       y       z     vdW  Elec       q    Type
REMARK                         _______ _______ _______ _____ _____    ______ ____
ROOT
ATOM      1  C   UNL     1       2.554   5.953  -7.779  0.00  0.00    +0.141 C 
ATOM      2  C   UNL     1       1.896   4.659  -7.514  0.00  0.00    +0.257 C 
ATOM      3  O   UNL     1       2.477   3.611  -7.928  0.00  0.00    -0.272 OA
ATOM      4  N   UNL     1       1.238   4.511  -6.250  0.00  0.00    -0.125 NA
ATOM      5  C   UNL     1       0.493   5.597  -5.744  0.00  0.00    +0.352 C 
ATOM      6  O   UNL     1      -0.467   5.406  -4.948  0.00  0.00    -0.248 OA
ATOM      7  N   UNL     1       0.758   6.898  -6.266  0.00  0.00    -0.125 NA
ATOM      8  C   UNL     1       1.914   7.083  -7.093  0.00  0.00    +0.257 C 
ATOM      9  O   UNL     1       2.019   8.261  -7.553  0.00  0.00    -0.272 OA
ENDROOT
BRANCH   1  10
ATOM     10  C   UNL     1       2.330   6.271  -9.365  0.00  0.00    +0.017 C 
ATOM     11  C   UNL     1       3.274   5.025  -9.846  0.00  0.00    +0.001 C 
BRANCH  10  13
ATOM     12  C   UNL     1       0.494   5.547 -10.071  0.00  0.00    +0.000 C 
ATOM     13  C   UNL     1       0.970   5.367  -9.438  0.00  0.00    +0.001 C 
ENDBRANCH  10  13
ENDBRANCH   1  10
BRANCH   1  14
ATOM     14  C   UNL     1       4.017   5.812  -7.558  0.00  0.00    +0.018 C 
ATOM     15  C   UNL     1       4.475   5.968  -6.157  0.00  0.00    +0.001 C 
ENDBRANCH   1  14
TORSDOF 3
ENDMDL
MODEL 9
REMARK VINA RESULT:      -5.4      4.250      6.326
REMARK  Name = 
REMARK  3 active torsions:
REMARK  status: ('A' for Active; 'I' for Inactive)
REMARK    1  A    between atoms: C_2  and  C_3
REMARK    2  A    between atoms: C_3  and  C_5
REMARK    3  A    between atoms: C_5  and  C_6
REMARK                            x       y       z     vdW  Elec       q    Type
REMARK                         _______ _______ _______ _____ _____    ______ ____
ROOT
ATOM      1  C   UNL     1       5.670   5.939 -11.087  0.00  0.00    +0.141 C 
ATOM      2  C   UNL     1       4.195   5.978 -11.086  0.00  0.00    +0.257 C 
ATOM      3  O   UNL     1       3.626   6.633 -10.161  0.00  0.00    -0.272 OA
ATOM      4  N   UNL     1       3.546   6.068 -12.360  0.00  0.00    -0.125 NA
ATOM      5  C   UNL     1       4.056   5.308 -13.434  0.00  0.00    +0.352 C 
ATOM      6  O   UNL     1       3.308   4.954 -14.386  0.00  0.00    -0.248 OA
ATOM      7  N   UNL     1       5.396   4.828 -13.345  0.00  0.00    -0.125 NA
ATOM      8  C   UNL     1       6.236   5.331 -12.297  0.00  0.00    +0.257 C 
ATOM      9  O   UNL     1       7.385   4.793 -12.273  0.00  0.00    -0.272 OA
ENDROOT
BRANCH   1  10
ATOM     10  C   UNL     1       6.108   4.921  -9.887  0.00  0.00    +0.017 C 
ATOM     11  C   UNL     1       7.399   5.828  -9.458  0.00  0.00    +0.001 C 
BRANCH  10  13
ATOM     12  C   UNL     1       5.189   5.341  -8.051  0.00  0.00    +0.000 C 
ATOM     13  C   UNL     1       5.135   5.655  -8.798  0.00  0.00    +0.001 C 
ENDBRANCH  10  13
ENDBRANCH   1  10
BRANCH   1  14
ATOM     14  C   UNL     1       6.194   7.286 -10.738  0.00  0.00    +0.018 C 
ATOM     15  C   UNL     1       6.511   8.171 -11.883  0.00  0.00    +0.001 C 
ENDBRANCH   1  14
TORSDOF 3
ENDMDL
