MODEL 1
REMARK VINA RESULT:      -9.5      0.000      0.000
REMARK  Name = 
REMARK  9 active torsions:
REMARK  status: ('A' for Active; 'I' for Inactive)
REMARK    1  A    between atoms: C_2  and  O_4
REMARK    2  A    between atoms: C_2  and  C_35
REMARK    3  A    between atoms: O_4  and  N_5
REMARK    4  A    between atoms: C_6  and  C_7
REMARK    5  A    between atoms: C_6  and  C_29
REMARK    6  A    between atoms: N_9  and  CA_10
REMARK    7  A    between atoms: CA_14  and  C_15
REMARK    8  A    between atoms: C_18  and  C_19
REMARK    9  A    between atoms: C_19  and  N_20
REMARK                            x       y       z     vdW  Elec       q    Type
REMARK                         _______ _______ _______ _____ _____    ______ ____
ROOT
ATOM      1  CA  UNL     1       1.743   4.588  -8.045  0.00  0.00    +0.201 C 
ATOM      2  C   UNL     1       1.722   4.808  -6.359  0.00  0.00    +0.157 C 
ATOM      3  N   UNL     1       0.327   5.346  -6.651  0.00  0.00    -0.242 N 
ATOM      4  CA  UNL     1      -0.263   5.889  -5.464  0.00  0.00    +0.134 C 
ATOM      5  C   UNL     1       0.412   6.154  -4.342  0.00  0.00    +0.064 C 
ATOM      6  C   UNL     1       1.753   6.836  -4.418  0.00  0.00    +0.089 C 
ATOM      7  S   UNL     1       2.405   6.575  -6.113  0.00  0.00    -0.114 S 
ATOM      8  C   UNL     1       0.610   5.765  -8.006  0.00  0.00    +0.253 C 
ATOM      9  O   UNL     1      -0.267   5.706  -8.929  0.00  0.00    -0.273 OA
ENDROOT
BRANCH   1  11
ATOM     10  C   UNL     1       3.811   5.103  -9.419  0.00  0.00    +0.288 C 
ATOM     11  N   UNL     1       2.959   5.589  -8.371  0.00  0.00    -0.190 NA
ATOM     12  O   UNL     1       4.270   3.939  -9.207  0.00  0.00    -0.267 OA
BRANCH  10  14
ATOM     13  N   UNL     1       4.849   6.190 -11.194  0.00  0.00    -0.076 NA
ATOM     14  C   UNL     1       3.762   5.594 -10.802  0.00  0.00    +0.192 C 
BRANCH  14  15
ATOM     15  C   UNL     1       2.493   5.726 -11.542  0.00  0.00    +0.115 A 
ATOM     16  N   UNL     1       2.421   5.292 -12.817  0.00  0.00    -0.220 NA
ATOM     17  C   UNL     1       1.128   5.144 -13.199  0.00  0.00    +0.201 A 
ATOM     18  N   UNL     1       0.586   4.318 -14.227  0.00  0.00    -0.100 NA
ATOM     19  S   UNL     1       0.486   6.595 -12.537  0.00  0.00    -0.048 S 
ATOM     20  C   UNL     1       1.731   6.884 -11.388  0.00  0.00    +0.059 A 
ENDBRANCH  14  15
BRANCH  13  21
ATOM     21  O   UNL     1       5.967   5.373 -11.166  0.00  0.00    -0.374 OA
BRANCH  21  23
ATOM     22  C   UNL     1       7.585   5.996 -10.205  0.00  0.00    +0.058 C 
ATOM     23  C   UNL     1       7.206   6.076 -11.083  0.00  0.00    +0.253 C 
ATOM     24  C   UNL     1       6.875   7.523 -11.426  0.00  0.00    +0.058 C 
BRANCH  23  25
ATOM     25  C   UNL     1       8.146   5.613 -12.150  0.00  0.00    +0.403 C 
ATOM     26  O   UNL     1       7.657   4.686 -13.064  0.00  0.00    -0.242 OA
ATOM     27  O   UNL     1       9.369   5.885 -12.044  0.00  0.00    -0.242 OA
ENDBRANCH  23  25
ENDBRANCH  21  23
ENDBRANCH  13  21
ENDBRANCH  10  14
ENDBRANCH   1  11
BRANCH   4  28
ATOM     28  C   UNL     1      -1.716   6.054  -5.389  0.00  0.00    +0.401 C 
ATOM     29  OXT UNL     1      -2.500   5.331  -6.307  0.00  0.00    -0.239 OA
ATOM     30  O   UNL     1      -2.251   7.187  -5.158  0.00  0.00    -0.239 OA
ENDBRANCH   4  28
BRANCH   5  31
ATOM     31  C   UNL     1       0.007   5.353  -3.169  0.00  0.00    +0.348 C 
BRANCH  31  32
ATOM     32  N   UNL     1      -0.328   6.064  -1.985  0.00  0.00    -0.156 N 
ATOM     33  C   UNL     1      -1.630   5.985  -1.598  0.00  0.00    +0.290 A 
ATOM     34  C   UNL     1      -2.034   6.656  -0.458  0.00  0.00    +0.076 A 
ATOM     35  C   UNL     1      -1.044   7.236   0.327  0.00  0.00    +0.013 A 
ATOM     36  C   UNL     1       0.234   6.725   0.162  0.00  0.00    +0.076 A 
ATOM     37  C   UNL     1       0.548   5.956  -0.953  0.00  0.00    +0.290 A 
ENDBRANCH  31  32
ENDBRANCH   5  31
TORSDOF 9
ENDMDL
MODEL 2
REMARK VINA RESULT:      -9.2      2.626     10.532
REMARK  Name = 
REMARK  9 active torsions:
REMARK  status: ('A' for Active; 'I' for Inactive)
REMARK    1  A    between atoms: C_2  and  O_4
REMARK    2  A    between atoms: C_2  and  C_35
REMARK    3  A    between atoms: O_4  and  N_5
REMARK    4  A    between atoms: C_6  and  C_7
REMARK    5  A    between atoms: C_6  and  C_29
REMARK    6  A    between atoms: N_9  and  CA_10
REMARK    7  A    between atoms: CA_14  and  C_15
REMARK    8  A    between atoms: C_18  and  C_19
REMARK    9  A    between atoms: C_19  and  N_20
REMARK                            x       y       z     vdW  Elec       q    Type
REMARK                         _______ _______ _______ _____ _____    ______ ____
ROOT
ATOM      1  CA  UNL     1       3.227   4.548  -7.410  0.00  0.00    +0.201 C 
ATOM      2  C   UNL     1       3.183   4.635  -9.108  0.00  0.00    +0.157 C 
ATOM      3  N   UNL     1       4.471   5.422  -8.898  0.00  0.00    -0.242 N 
ATOM      4  CA  UNL     1       4.939   5.963 -10.139  0.00  0.00    +0.134 C 
ATOM      5  C   UNL     1       4.211   6.021 -11.257  0.00  0.00    +0.064 C 
ATOM      6  C   UNL     1       2.774   6.469 -11.192  0.00  0.00    +0.089 C 
ATOM      7  S   UNL     1       2.204   6.236  -9.464  0.00  0.00    -0.114 S 
ATOM      8  C   UNL     1       4.142   5.892  -7.570  0.00  0.00    +0.253 C 
ATOM      9  O   UNL     1       5.031   6.055  -6.671  0.00  0.00    -0.273 OA
ENDROOT
BRANCH   1  11
ATOM     10  C   UNL     1       1.168   4.866  -5.966  0.00  0.00    +0.288 C 
ATOM     11  N   UNL     1       1.864   5.350  -7.124  0.00  0.00    -0.190 NA
ATOM     12  O   UNL     1       0.924   3.621  -5.998  0.00  0.00    -0.267 OA
BRANCH  10  14
ATOM     13  N   UNL     1       0.122   6.230  -4.399  0.00  0.00    -0.076 NA
ATOM     14  C   UNL     1       1.192   5.540  -4.661  0.00  0.00    +0.192 C 
BRANCH  14  15
ATOM     15  C   UNL     1       2.439   5.719  -3.894  0.00  0.00    +0.115 A 
ATOM     16  N   UNL     1       2.461   5.405  -2.582  0.00  0.00    -0.220 NA
ATOM     17  C   UNL     1       3.737   5.271  -2.145  0.00  0.00    +0.201 A 
ATOM     18  N   UNL     1       4.229   4.536  -1.027  0.00  0.00    -0.100 NA
ATOM     19  S   UNL     1       4.430   6.642  -2.916  0.00  0.00    -0.048 S 
ATOM     20  C   UNL     1       3.229   6.844  -4.129  0.00  0.00    +0.059 A 
ENDBRANCH  14  15
BRANCH  13  21
ATOM     21  O   UNL     1      -1.032   5.464  -4.362  0.00  0.00    -0.374 OA
BRANCH  21  23
ATOM     22  C   UNL     1      -2.706   6.226  -5.103  0.00  0.00    +0.058 C 
ATOM     23  C   UNL     1      -2.237   6.224  -4.266  0.00  0.00    +0.253 C 
ATOM     24  C   UNL     1      -1.802   7.625  -3.856  0.00  0.00    +0.058 C 
BRANCH  23  25
ATOM     25  C   UNL     1      -3.088   5.721  -3.143  0.00  0.00    +0.403 C 
ATOM     26  O   UNL     1      -4.038   6.597  -2.629  0.00  0.00    -0.242 OA
ATOM     27  O   UNL     1      -2.764   4.652  -2.565  0.00  0.00    -0.242 OA
ENDBRANCH  23  25
ENDBRANCH  21  23
ENDBRANCH  13  21
ENDBRANCH  10  14
ENDBRANCH   1  11
BRANCH   4  28
ATOM     28  C   UNL     1       6.341   6.365 -10.269  0.00  0.00    +0.401 C 
ATOM     29  OXT UNL     1       7.244   5.895  -9.297  0.00  0.00    -0.239 OA
ATOM     30  O   UNL     1       6.670   7.540 -10.636  0.00  0.00    -0.239 OA
ENDBRANCH   4  28
BRANCH   5  31
ATOM     31  C   UNL     1       4.727   5.210 -12.379  0.00  0.00    +0.348 C 
BRANCH  31  32
ATOM     32  N   UNL     1       5.199   5.913 -13.521  0.00  0.00    -0.156 N 
ATOM     33  C   UNL     1       6.450   5.583 -13.941  0.00  0.00    +0.290 A 
ATOM     34  C   UNL     1       6.981   6.228 -15.043  0.00  0.00    +0.076 A 
ATOM     35  C   UNL     1       6.133   7.060 -15.765  0.00  0.00    +0.013 A 
ATOM     36  C   UNL     1       4.777   6.826 -15.606  0.00  0.00    +0.076 A 
ATOM     37  C   UNL     1       4.313   6.067 -14.537  0.00  0.00    +0.290 A 
ENDBRANCH  31  32
ENDBRANCH   5  31
TORSDOF 9
ENDMDL
MODEL 3
REMARK VINA RESULT:      -8.9      2.348      3.015
REMARK  Name = 
REMARK  9 active torsions:
REMARK  status: ('A' for Active; 'I' for Inactive)
REMARK    1  A    between atoms: C_2  and  O_4
REMARK    2  A    between atoms: C_2  and  C_35
REMARK    3  A    between atoms: O_4  and  N_5
REMARK    4  A    between atoms: C_6  and  C_7
REMARK    5  A    between atoms: C_6  and  C_29
REMARK    6  A    between atoms: N_9  and  CA_10
REMARK    7  A    between atoms: CA_14  and  C_15
REMARK    8  A    between atoms: C_18  and  C_19
REMARK    9  A    between atoms: C_19  and  N_20
REMARK                            x       y       z     vdW  Elec       q    Type
REMARK                         _______ _______ _______ _____ _____    ______ ____
ROOT
ATOM      1  CA  UNL     1       2.896   4.807  -6.675  0.00  0.00    +0.201 C 
ATOM      2  C   UNL     1       3.432   5.180  -5.104  0.00  0.00    +0.157 C 
ATOM      3  N   UNL     1       1.935   5.290  -4.840  0.00  0.00    -0.242 N 
ATOM      4  CA  UNL     1       1.691   5.771  -3.513  0.00  0.00    +0.134 C 
ATOM      5  C   UNL     1       2.623   6.319  -2.728  0.00  0.00    +0.064 C 
ATOM      6  C   UNL     1       3.587   7.325  -3.300  0.00  0.00    +0.089 C 
ATOM      7  S   UNL     1       3.618   7.081  -5.118  0.00  0.00    -0.114 S 
ATOM      8  C   UNL     1       1.569   5.632  -6.197  0.00  0.00    +0.253 C 
ATOM      9  O   UNL     1       0.472   5.247  -6.719  0.00  0.00    -0.273 OA
ENDROOT
BRANCH   1  11
ATOM     10  C   UNL     1       4.340   5.670  -8.571  0.00  0.00    +0.288 C 
ATOM     11  N   UNL     1       3.565   6.060  -7.427  0.00  0.00    -0.190 NA
ATOM     12  O   UNL     1       5.235   4.807  -8.313  0.00  0.00    -0.267 OA
BRANCH  10  14
ATOM     13  N   UNL     1       4.741   6.306 -10.772  0.00  0.00    -0.076 NA
ATOM     14  C   UNL     1       3.868   5.795  -9.955  0.00  0.00    +0.192 C 
BRANCH  14  15
ATOM     15  C   UNL     1       2.439   5.697 -10.308  0.00  0.00    +0.115 A 
ATOM     16  N   UNL     1       1.639   6.769 -10.133  0.00  0.00    -0.220 NA
ATOM     17  C   UNL     1       0.491   6.628 -10.842  0.00  0.00    +0.201 A 
ATOM     18  N   UNL     1      -0.398   7.636 -11.318  0.00  0.00    -0.100 NA
ATOM     19  S   UNL     1       0.151   4.983 -10.477  0.00  0.00    -0.048 S 
ATOM     20  C   UNL     1       1.741   4.527 -10.011  0.00  0.00    +0.059 A 
ENDBRANCH  14  15
BRANCH  13  21
ATOM     21  O   UNL     1       5.901   5.556 -10.878  0.00  0.00    -0.374 OA
BRANCH  21  23
ATOM     22  C   UNL     1       7.493   6.662 -10.460  0.00  0.00    +0.058 C 
ATOM     23  C   UNL     1       7.057   6.312 -11.240  0.00  0.00    +0.253 C 
ATOM     24  C   UNL     1       6.547   7.423 -12.149  0.00  0.00    +0.058 C 
BRANCH  23  25
ATOM     25  C   UNL     1       7.979   5.491 -12.084  0.00  0.00    +0.403 C 
ATOM     26  O   UNL     1       9.305   5.905 -12.159  0.00  0.00    -0.242 OA
ATOM     27  O   UNL     1       7.490   4.629 -12.858  0.00  0.00    -0.242 OA
ENDBRANCH  23  25
ENDBRANCH  21  23
ENDBRANCH  13  21
ENDBRANCH  10  14
ENDBRANCH   1  11
BRANCH   4  28
ATOM     28  C   UNL     1       0.385   5.545  -2.890  0.00  0.00    +0.401 C 
ATOM     29  OXT UNL     1      -0.344   6.679  -2.484  0.00  0.00    -0.239 OA
ATOM     30  O   UNL     1       0.187   4.586  -2.076  0.00  0.00    -0.239 OA
ENDBRANCH   4  28
BRANCH   5  31
ATOM     31  C   UNL     1       2.924   5.560  -1.496  0.00  0.00    +0.348 C 
BRANCH  31  32
ATOM     32  N   UNL     1       3.255   6.313  -0.338  0.00  0.00    -0.156 N 
ATOM     33  C   UNL     1       4.580   6.569  -0.160  0.00  0.00    +0.290 A 
ATOM     34  C   UNL     1       4.981   7.292   0.949  0.00  0.00    +0.076 A 
ATOM     35  C   UNL     1       3.986   7.865   1.733  0.00  0.00    +0.013 A 
ATOM     36  C   UNL     1       2.760   8.048   1.113  0.00  0.00    +0.076 A 
ATOM     37  C   UNL     1       2.460   7.379  -0.068  0.00  0.00    +0.290 A 
ENDBRANCH  31  32
ENDBRANCH   5  31
TORSDOF 9
ENDMDL
MODEL 4
REMARK VINA RESULT:      -8.9      3.219      9.333
REMARK  Name = 
REMARK  9 active torsions:
REMARK  status: ('A' for Active; 'I' for Inactive)
REMARK    1  A    between atoms: C_2  and  O_4
REMARK    2  A    between atoms: C_2  and  C_35
REMARK    3  A    between atoms: O_4  and  N_5
REMARK    4  A    between atoms: C_6  and  C_7
REMARK    5  A    between atoms: C_6  and  C_29
REMARK    6  A    between atoms: N_9  and  CA_10
REMARK    7  A    between atoms: CA_14  and  C_15
REMARK    8  A    between atoms: C_18  and  C_19
REMARK    9  A    between atoms: C_19  and  N_20
REMARK                            x       y       z     vdW  Elec       q    Type
REMARK                         _______ _______ _______ _____ _____    ______ ____
ROOT
ATOM      1  CA  UNL     1       1.474   6.792  -6.872  0.00  0.00    +0.201 C 
ATOM      2  C   UNL     1       2.722   6.596  -8.011  0.00  0.00    +0.157 C 
ATOM      3  N   UNL     1       1.577   6.078  -8.873  0.00  0.00    -0.242 N 
ATOM      4  CA  UNL     1       2.073   5.561 -10.113  0.00  0.00    +0.134 C 
ATOM      5  C   UNL     1       3.361   5.300 -10.358  0.00  0.00    +0.064 C 
ATOM      6  C   UNL     1       4.193   4.595  -9.319  0.00  0.00    +0.089 C 
ATOM      7  S   UNL     1       3.358   4.821  -7.702  0.00  0.00    -0.114 S 
ATOM      8  C   UNL     1       0.751   5.635  -7.772  0.00  0.00    +0.253 C 
ATOM      9  O   UNL     1      -0.522   5.695  -7.814  0.00  0.00    -0.273 OA
ENDROOT
BRANCH   1  11
ATOM     10  C   UNL     1       2.238   6.385  -4.489  0.00  0.00    +0.288 C 
ATOM     11  N   UNL     1       2.036   5.766  -5.768  0.00  0.00    -0.190 NA
ATOM     12  O   UNL     1       2.984   7.412  -4.528  0.00  0.00    -0.267 OA
BRANCH  10  14
ATOM     13  N   UNL     1       1.898   5.992  -2.222  0.00  0.00    -0.076 NA
ATOM     14  C   UNL     1       1.314   6.236  -3.358  0.00  0.00    +0.192 C 
BRANCH  14  15
ATOM     15  C   UNL     1      -0.132   6.018  -3.550  0.00  0.00    +0.115 A 
ATOM     16  N   UNL     1      -0.869   6.966  -4.164  0.00  0.00    -0.220 NA
ATOM     17  C   UNL     1      -2.053   6.453  -4.583  0.00  0.00    +0.201 A 
ATOM     18  N   UNL     1      -2.910   6.914  -5.625  0.00  0.00    -0.100 NA
ATOM     19  S   UNL     1      -2.458   5.537  -3.186  0.00  0.00    -0.048 S 
ATOM     20  C   UNL     1      -0.874   5.422  -2.530  0.00  0.00    +0.059 A 
ENDBRANCH  14  15
BRANCH  13  21
ATOM     21  O   UNL     1       2.763   6.997  -1.820  0.00  0.00    -0.374 OA
BRANCH  21  23
ATOM     22  C   UNL     1       4.708   6.863  -1.458  0.00  0.00    +0.058 C 
ATOM     23  C   UNL     1       3.891   6.537  -1.076  0.00  0.00    +0.253 C 
ATOM     24  C   UNL     1       3.813   5.016  -1.120  0.00  0.00    +0.058 C 
BRANCH  23  25
ATOM     25  C   UNL     1       3.754   6.905   0.368  0.00  0.00    +0.403 C 
ATOM     26  O   UNL     1       4.820   6.591   1.204  0.00  0.00    -0.242 OA
ATOM     27  O   UNL     1       2.627   7.255   0.802  0.00  0.00    -0.242 OA
ENDBRANCH  23  25
ENDBRANCH  21  23
ENDBRANCH  13  21
ENDBRANCH  10  14
ENDBRANCH   1  11
BRANCH   4  28
ATOM     28  C   UNL     1       1.166   5.420 -11.253  0.00  0.00    +0.401 C 
ATOM     29  OXT UNL     1       0.528   6.584 -11.721  0.00  0.00    -0.239 OA
ATOM     30  O   UNL     1       0.387   4.420 -11.371  0.00  0.00    -0.239 OA
ENDBRANCH   4  28
BRANCH   5  31
ATOM     31  C   UNL     1       3.971   6.124 -11.422  0.00  0.00    +0.348 C 
BRANCH  31  32
ATOM     32  N   UNL     1       5.387   6.096 -11.530  0.00  0.00    -0.156 N 
ATOM     33  C   UNL     1       5.882   5.489 -12.643  0.00  0.00    +0.290 A 
ATOM     34  C   UNL     1       7.252   5.417 -12.816  0.00  0.00    +0.076 A 
ATOM     35  C   UNL     1       8.047   6.123 -11.921  0.00  0.00    +0.013 A 
ATOM     36  C   UNL     1       7.423   7.162 -11.249  0.00  0.00    +0.076 A 
ATOM     37  C   UNL     1       6.036   7.244 -11.210  0.00  0.00    +0.290 A 
ENDBRANCH  31  32
ENDBRANCH   5  31
TORSDOF 9
ENDMDL
MODEL 5
REMARK VINA RESULT:      -8.7      3.170      9.875
REMARK  Name = 
REMARK  9 active torsions:
REMARK  status: ('A' for Active; 'I' for Inactive)
REMARK    1  A    between atoms: C_2  and  O_4
REMARK    2  A    between atoms: C_2  and  C_35
REMARK    3  A    between atoms: O_4  and  N_5
REMARK    4  A    between atoms: C_6  and  C_7
REMARK    5  A    between atoms: C_6  and  C_29
REMARK    6  A    between atoms: N_9  and  CA_10
REMARK    7  A    between atoms: CA_14  and  C_15
REMARK    8  A    between atoms: C_18  and  C_19
REMARK    9  A    between atoms: C_19  and  N_20
REMARK                            x       y       z     vdW  Elec       q    Type
REMARK                         _______ _______ _______ _____ _____    ______ ____
ROOT
ATOM      1  CA  UNL     1       1.277   6.712  -6.826  0.00  0.00    +0.201 C 
ATOM      2  C   UNL     1       2.511   6.537  -7.985  0.00  0.00    +0.157 C 
ATOM      3  N   UNL     1       1.345   6.091  -8.860  0.00  0.00    -0.242 N 
ATOM      4  CA  UNL     1       1.818   5.620 -10.127  0.00  0.00    +0.134 C 
ATOM      5  C   UNL     1       3.096   5.338 -10.397  0.00  0.00    +0.064 C 
ATOM      6  C   UNL     1       3.917   4.563  -9.399  0.00  0.00    +0.089 C 
ATOM      7  S   UNL     1       3.100   4.734  -7.765  0.00  0.00    -0.114 S 
ATOM      8  C   UNL     1       0.516   5.619  -7.773  0.00  0.00    +0.253 C 
ATOM      9  O   UNL     1      -0.755   5.715  -7.801  0.00  0.00    -0.273 OA
ENDROOT
BRANCH   1  11
ATOM     10  C   UNL     1       2.476   6.217  -4.648  0.00  0.00    +0.288 C 
ATOM     11  N   UNL     1       1.820   5.621  -5.778  0.00  0.00    -0.190 NA
ATOM     12  O   UNL     1       3.420   7.007  -4.961  0.00  0.00    -0.267 OA
BRANCH  10  14
ATOM     13  N   UNL     1       0.587   6.670  -3.370  0.00  0.00    -0.076 NA
ATOM     14  C   UNL     1       1.850   6.366  -3.328  0.00  0.00    +0.192 C 
BRANCH  14  15
ATOM     15  C   UNL     1       2.646   6.520  -2.096  0.00  0.00    +0.115 A 
ATOM     16  N   UNL     1       3.174   7.724  -1.795  0.00  0.00    -0.220 NA
ATOM     17  C   UNL     1       3.533   7.773  -0.488  0.00  0.00    +0.201 A 
ATOM     18  N   UNL     1       3.690   8.912   0.356  0.00  0.00    -0.100 NA
ATOM     19  S   UNL     1       4.275   6.229  -0.354  0.00  0.00    -0.048 S 
ATOM     20  C   UNL     1       3.525   5.504  -1.721  0.00  0.00    +0.059 A 
ENDBRANCH  14  15
BRANCH  13  21
ATOM     21  O   UNL     1      -0.189   5.714  -4.005  0.00  0.00    -0.374 OA
BRANCH  21  23
ATOM     22  C   UNL     1      -1.975   5.568  -4.854  0.00  0.00    +0.058 C 
ATOM     23  C   UNL     1      -1.562   6.077  -4.154  0.00  0.00    +0.253 C 
ATOM     24  C   UNL     1      -1.555   7.568  -4.467  0.00  0.00    +0.058 C 
BRANCH  23  25
ATOM     25  C   UNL     1      -2.286   5.942  -2.852  0.00  0.00    +0.403 C 
ATOM     26  O   UNL     1      -2.583   7.116  -2.169  0.00  0.00    -0.242 OA
ATOM     27  O   UNL     1      -2.383   4.804  -2.324  0.00  0.00    -0.242 OA
ENDBRANCH  23  25
ENDBRANCH  21  23
ENDBRANCH  13  21
ENDBRANCH  10  14
ENDBRANCH   1  11
BRANCH   4  28
ATOM     28  C   UNL     1       0.898   5.558 -11.265  0.00  0.00    +0.401 C 
ATOM     29  OXT UNL     1       0.018   6.641 -11.448  0.00  0.00    -0.239 OA
ATOM     30  O   UNL     1       0.327   4.472 -11.607  0.00  0.00    -0.239 OA
ENDBRANCH   4  28
BRANCH   5  31
ATOM     31  C   UNL     1       3.719   6.195 -11.426  0.00  0.00    +0.348 C 
BRANCH  31  32
ATOM     32  N   UNL     1       5.138   6.269 -11.433  0.00  0.00    -0.156 N 
ATOM     33  C   UNL     1       5.754   5.683 -12.495  0.00  0.00    +0.290 A 
ATOM     34  C   UNL     1       7.135   5.709 -12.570  0.00  0.00    +0.076 A 
ATOM     35  C   UNL     1       7.810   6.486 -11.635  0.00  0.00    +0.013 A 
ATOM     36  C   UNL     1       7.066   7.486 -11.031  0.00  0.00    +0.076 A 
ATOM     37  C   UNL     1       5.677   7.467 -11.091  0.00  0.00    +0.290 A 
ENDBRANCH  31  32
ENDBRANCH   5  31
TORSDOF 9
ENDMDL
MODEL 6
REMARK VINA RESULT:      -8.4      2.138      3.137
REMARK  Name = 
REMARK  9 active torsions:
REMARK  status: ('A' for Active; 'I' for Inactive)
REMARK    1  A    between atoms: C_2  and  O_4
REMARK    2  A    between atoms: C_2  and  C_35
REMARK    3  A    between atoms: O_4  and  N_5
REMARK    4  A    between atoms: C_6  and  C_7
REMARK    5  A    between atoms: C_6  and  C_29
REMARK    6  A    between atoms: N_9  and  CA_10
REMARK    7  A    between atoms: CA_14  and  C_15
REMARK    8  A    between atoms: C_18  and  C_19
REMARK    9  A    between atoms: C_19  and  N_20
REMARK                            x       y       z     vdW  Elec       q    Type
REMARK                         _______ _______ _______ _____ _____    ______ ____
ROOT
ATOM      1  CA  UNL     1       3.200   6.591  -8.313  0.00  0.00    +0.201 C 
ATOM      2  C   UNL     1       2.012   6.450  -7.103  0.00  0.00    +0.157 C 
ATOM      3  N   UNL     1       3.225   6.141  -6.234  0.00  0.00    -0.242 N 
ATOM      4  CA  UNL     1       2.816   5.755  -4.917  0.00  0.00    +0.134 C 
ATOM      5  C   UNL     1       1.563   5.429  -4.583  0.00  0.00    +0.064 C 
ATOM      6  C   UNL     1       0.758   4.531  -5.485  0.00  0.00    +0.089 C 
ATOM      7  S   UNL     1       1.517   4.606  -7.154  0.00  0.00    -0.114 S 
ATOM      8  C   UNL     1       4.047   5.623  -7.305  0.00  0.00    +0.253 C 
ATOM      9  O   UNL     1       5.311   5.788  -7.328  0.00  0.00    -0.273 OA
ENDROOT
BRANCH   1  11
ATOM     10  C   UNL     1       1.936   5.850 -10.382  0.00  0.00    +0.288 C 
ATOM     11  N   UNL     1       2.688   5.389  -9.249  0.00  0.00    -0.190 NA
ATOM     12  O   UNL     1       0.953   6.593 -10.076  0.00  0.00    -0.267 OA
BRANCH  10  14
ATOM     13  N   UNL     1       3.698   6.405 -11.795  0.00  0.00    -0.076 NA
ATOM     14  C   UNL     1       2.485   5.942 -11.741  0.00  0.00    +0.192 C 
BRANCH  14  15
ATOM     15  C   UNL     1       1.627   5.868 -12.939  0.00  0.00    +0.115 A 
ATOM     16  N   UNL     1       1.607   4.735 -13.671  0.00  0.00    -0.220 NA
ATOM     17  C   UNL     1       0.519   4.709 -14.479  0.00  0.00    +0.201 A 
ATOM     18  N   UNL     1      -0.142   3.584 -15.055  0.00  0.00    -0.100 NA
ATOM     19  S   UNL     1       0.563   6.332 -15.042  0.00  0.00    -0.048 S 
ATOM     20  C   UNL     1       1.527   6.979 -13.775  0.00  0.00    +0.059 A 
ENDBRANCH  14  15
BRANCH  13  21
ATOM     21  O   UNL     1       4.617   5.624 -11.113  0.00  0.00    -0.374 OA
BRANCH  21  23
ATOM     22  C   UNL     1       6.461   5.789 -10.405  0.00  0.00    +0.058 C 
ATOM     23  C   UNL     1       5.952   6.129 -11.143  0.00  0.00    +0.253 C 
ATOM     24  C   UNL     1       5.815   7.645 -11.088  0.00  0.00    +0.058 C 
BRANCH  23  25
ATOM     25  C   UNL     1       6.597   5.830 -12.460  0.00  0.00    +0.403 C 
ATOM     26  O   UNL     1       7.331   4.652 -12.551  0.00  0.00    -0.242 OA
ATOM     27  O   UNL     1       6.651   6.736 -13.330  0.00  0.00    -0.242 OA
ENDBRANCH  23  25
ENDBRANCH  21  23
ENDBRANCH  13  21
ENDBRANCH  10  14
ENDBRANCH   1  11
BRANCH   4  28
ATOM     28  C   UNL     1       3.770   5.837  -3.810  0.00  0.00    +0.401 C 
ATOM     29  OXT UNL     1       4.831   6.753  -3.934  0.00  0.00    -0.239 OA
ATOM     30  O   UNL     1       4.163   4.799  -3.184  0.00  0.00    -0.239 OA
ENDBRANCH   4  28
BRANCH   5  31
ATOM     31  C   UNL     1       0.924   6.336  -3.608  0.00  0.00    +0.348 C 
BRANCH  31  32
ATOM     32  N   UNL     1      -0.473   6.181  -3.402  0.00  0.00    -0.156 N 
ATOM     33  C   UNL     1      -0.849   5.826  -2.143  0.00  0.00    +0.290 A 
ATOM     34  C   UNL     1      -2.192   5.650  -1.867  0.00  0.00    +0.076 A 
ATOM     35  C   UNL     1      -3.101   6.017  -2.853  0.00  0.00    +0.013 A 
ATOM     36  C   UNL     1      -2.634   6.913  -3.801  0.00  0.00    +0.076 A 
ATOM     37  C   UNL     1      -1.269   7.134  -3.952  0.00  0.00    +0.290 A 
ENDBRANCH  31  32
ENDBRANCH   5  31
TORSDOF 9
ENDMDL
MODEL 7
REMARK VINA RESULT:      -8.3      3.153      5.136
REMARK  Name = 
REMARK  9 active torsions:
REMARK  status: ('A' for Active; 'I' for Inactive)
REMARK    1  A    between atoms: C_2  and  O_4
REMARK    2  A    between atoms: C_2  and  C_35
REMARK    3  A    between atoms: O_4  and  N_5
REMARK    4  A    between atoms: C_6  and  C_7
REMARK    5  A    between atoms: C_6  and  C_29
REMARK    6  A    between atoms: N_9  and  CA_10
REMARK    7  A    between atoms: CA_14  and  C_15
REMARK    8  A    between atoms: C_18  and  C_19
REMARK    9  A    between atoms: C_19  and  N_20
REMARK                            x       y       z     vdW  Elec       q    Type
REMARK                         _______ _______ _______ _____ _____    ______ ____
ROOT
ATOM      1  CA  UNL     1       3.331   6.760  -5.423  0.00  0.00    +0.201 C 
ATOM      2  C   UNL     1       2.369   7.045  -4.049  0.00  0.00    +0.157 C 
ATOM      3  N   UNL     1       3.182   5.884  -3.490  0.00  0.00    -0.242 N 
ATOM      4  CA  UNL     1       2.691   5.498  -2.201  0.00  0.00    +0.134 C 
ATOM      5  C   UNL     1       1.520   5.894  -1.693  0.00  0.00    +0.064 C 
ATOM      6  C   UNL     1       0.288   5.891  -2.561  0.00  0.00    +0.089 C 
ATOM      7  S   UNL     1       0.848   5.919  -4.308  0.00  0.00    -0.114 S 
ATOM      8  C   UNL     1       3.460   5.268  -4.769  0.00  0.00    +0.253 C 
ATOM      9  O   UNL     1       4.558   4.664  -5.005  0.00  0.00    -0.273 OA
ENDROOT
BRANCH   1  11
ATOM     10  C   UNL     1       2.177   7.110  -7.653  0.00  0.00    +0.288 C 
ATOM     11  N   UNL     1       2.144   6.360  -6.430  0.00  0.00    -0.190 NA
ATOM     12  O   UNL     1       2.178   8.369  -7.482  0.00  0.00    -0.267 OA
BRANCH  10  14
ATOM     13  N   UNL     1       1.801   5.955  -9.636  0.00  0.00    -0.076 NA
ATOM     14  C   UNL     1       2.691   6.578  -8.921  0.00  0.00    +0.192 C 
BRANCH  14  15
ATOM     15  C   UNL     1       4.135   6.440  -9.187  0.00  0.00    +0.115 A 
ATOM     16  N   UNL     1       4.614   6.730 -10.414  0.00  0.00    -0.220 NA
ATOM     17  C   UNL     1       5.958   6.912 -10.370  0.00  0.00    +0.201 A 
ATOM     18  N   UNL     1       6.791   7.647 -11.263  0.00  0.00    -0.100 NA
ATOM     19  S   UNL     1       6.375   5.588  -9.357  0.00  0.00    -0.048 S 
ATOM     20  C   UNL     1       4.827   5.356  -8.648  0.00  0.00    +0.059 A 
ENDBRANCH  14  15
BRANCH  13  21
ATOM     21  O   UNL     1       0.737   6.758 -10.013  0.00  0.00    -0.374 OA
BRANCH  21  23
ATOM     22  C   UNL     1      -0.704   6.833 -11.373  0.00  0.00    +0.058 C 
ATOM     23  C   UNL     1       0.142   6.395 -11.259  0.00  0.00    +0.253 C 
ATOM     24  C   UNL     1      -0.007   4.880 -11.212  0.00  0.00    +0.058 C 
BRANCH  23  25
ATOM     25  C   UNL     1       1.080   6.673 -12.391  0.00  0.00    +0.403 C 
ATOM     26  O   UNL     1       0.787   7.766 -13.200  0.00  0.00    -0.242 OA
ATOM     27  O   UNL     1       1.931   5.803 -12.704  0.00  0.00    -0.242 OA
ENDBRANCH  23  25
ENDBRANCH  21  23
ENDBRANCH  13  21
ENDBRANCH  10  14
ENDBRANCH   1  11
BRANCH   4  28
ATOM     28  C   UNL     1       3.551   4.732  -1.298  0.00  0.00    +0.401 C 
ATOM     29  OXT UNL     1       2.952   3.701  -0.551  0.00  0.00    -0.239 OA
ATOM     30  O   UNL     1       4.468   5.289  -0.612  0.00  0.00    -0.239 OA
ENDBRANCH   4  28
BRANCH   5  31
ATOM     31  C   UNL     1       1.619   6.728  -0.478  0.00  0.00    +0.348 C 
BRANCH  31  32
ATOM     32  N   UNL     1       0.425   7.348  -0.021  0.00  0.00    -0.156 N 
ATOM     33  C   UNL     1      -0.535   6.506   0.448  0.00  0.00    +0.290 A 
ATOM     34  C   UNL     1      -1.728   7.035   0.905  0.00  0.00    +0.076 A 
ATOM     35  C   UNL     1      -1.811   8.418   1.020  0.00  0.00    +0.013 A 
ATOM     36  C   UNL     1      -0.603   9.090   1.106  0.00  0.00    +0.076 A 
ATOM     37  C   UNL     1       0.582   8.462   0.740  0.00  0.00    +0.290 A 
ENDBRANCH  31  32
ENDBRANCH   5  31
TORSDOF 9
ENDMDL
MODEL 8
REMARK VINA RESULT:      -8.1      2.355      9.946
REMARK  Name = 
REMARK  9 active torsions:
REMARK  status: ('A' for Active; 'I' for Inactive)
REMARK    1  A    between atoms: C_2  and  O_4
REMARK    2  A    between atoms: C_2  and  C_35
REMARK    3  A    between atoms: O_4  and  N_5
REMARK    4  A    between atoms: C_6  and  C_7
REMARK    5  A    between atoms: C_6  and  C_29
REMARK    6  A    between atoms: N_9  and  CA_10
REMARK    7  A    between atoms: CA_14  and  C_15
REMARK    8  A    between atoms: C_18  and  C_19
REMARK    9  A    between atoms: C_19  and  N_20
REMARK                            x       y       z     vdW  Elec       q    Type
REMARK                         _______ _______ _______ _____ _____    ______ ____
ROOT
ATOM      1  CA  UNL     1       2.130   4.600  -8.150  0.00  0.00    +0.201 C 
ATOM      2  C   UNL     1       1.535   4.793  -9.732  0.00  0.00    +0.157 C 
ATOM      3  N   UNL     1       2.905   5.422  -9.952  0.00  0.00    -0.242 N 
ATOM      4  CA  UNL     1       2.997   5.982 -11.267  0.00  0.00    +0.134 C 
ATOM      5  C   UNL     1       1.950   6.186 -12.073  0.00  0.00    +0.064 C 
ATOM      6  C   UNL     1       0.683   6.783 -11.519  0.00  0.00    +0.089 C 
ATOM      7  S   UNL     1       0.697   6.509  -9.705  0.00  0.00    -0.114 S 
ATOM      8  C   UNL     1       3.097   5.845  -8.583  0.00  0.00    +0.253 C 
ATOM      9  O   UNL     1       4.247   5.856  -8.033  0.00  0.00    -0.273 OA
ENDROOT
BRANCH   1  11
ATOM     10  C   UNL     1       0.715   5.046  -6.095  0.00  0.00    +0.288 C 
ATOM     11  N   UNL     1       1.049   5.527  -7.405  0.00  0.00    -0.190 NA
ATOM     12  O   UNL     1       0.318   3.840  -6.077  0.00  0.00    -0.267 OA
BRANCH  10  14
ATOM     13  N   UNL     1       0.384   6.318  -4.175  0.00  0.00    -0.076 NA
ATOM     14  C   UNL     1       1.248   5.623  -4.854  0.00  0.00    +0.192 C 
BRANCH  14  15
ATOM     15  C   UNL     1       2.697   5.718  -4.594  0.00  0.00    +0.115 A 
ATOM     16  N   UNL     1       3.381   6.795  -5.033  0.00  0.00    -0.220 NA
ATOM     17  C   UNL     1       4.574   6.895  -4.396  0.00  0.00    +0.201 A 
ATOM     18  N   UNL     1       5.387   8.048  -4.192  0.00  0.00    -0.100 NA
ATOM     19  S   UNL     1       5.048   5.244  -4.454  0.00  0.00    -0.048 S 
ATOM     20  C   UNL     1       3.486   4.573  -4.705  0.00  0.00    +0.059 A 
ENDBRANCH  14  15
BRANCH  13  21
ATOM     21  O   UNL     1      -0.711   5.578  -3.758  0.00  0.00    -0.374 OA
BRANCH  21  23
ATOM     22  C   UNL     1      -1.869   6.826  -2.743  0.00  0.00    +0.058 C 
ATOM     23  C   UNL     1      -1.900   6.345  -3.572  0.00  0.00    +0.253 C 
ATOM     24  C   UNL     1      -3.041   5.337  -3.600  0.00  0.00    +0.058 C 
BRANCH  23  25
ATOM     25  C   UNL     1      -2.131   7.248  -4.742  0.00  0.00    +0.403 C 
ATOM     26  O   UNL     1      -2.040   8.617  -4.511  0.00  0.00    -0.242 OA
ATOM     27  O   UNL     1      -2.618   6.767  -5.796  0.00  0.00    -0.242 OA
ENDBRANCH  23  25
ENDBRANCH  21  23
ENDBRANCH  13  21
ENDBRANCH  10  14
ENDBRANCH   1  11
BRANCH   4  28
ATOM     28  C   UNL     1       4.313   6.238 -11.855  0.00  0.00    +0.401 C 
ATOM     29  OXT UNL     1       5.089   5.121 -12.218  0.00  0.00    -0.239 OA
ATOM     30  O   UNL     1       5.068   7.172 -11.429  0.00  0.00    -0.239 OA
ENDBRANCH   4  28
BRANCH   5  31
ATOM     31  C   UNL     1       1.962   5.393 -13.320  0.00  0.00    +0.348 C 
BRANCH  31  32
ATOM     32  N   UNL     1       1.617   6.070 -14.520  0.00  0.00    -0.156 N 
ATOM     33  C   UNL     1       0.284   6.207 -14.758  0.00  0.00    +0.290 A 
ATOM     34  C   UNL     1      -0.130   6.851 -15.910  0.00  0.00    +0.076 A 
ATOM     35  C   UNL     1       0.845   7.475 -16.679  0.00  0.00    +0.013 A 
ATOM     36  C   UNL     1       2.026   7.784 -16.022  0.00  0.00    +0.076 A 
ATOM     37  C   UNL     1       2.332   7.188 -14.804  0.00  0.00    +0.290 A 
ENDBRANCH  31  32
ENDBRANCH   5  31
TORSDOF 9
ENDMDL
MODEL 9
REMARK VINA RESULT:      -7.8      1.695      2.311
REMARK  Name = 
REMARK  9 active torsions:
REMARK  status: ('A' for Active; 'I' for Inactive)
REMARK    1  A    between atoms: C_2  and  O_4
REMARK    2  A    between atoms: C_2  and  C_35
REMARK    3  A    between atoms: O_4  and  N_5
REMARK    4  A    between atoms: C_6  and  C_7
REMARK    5  A    between atoms: C_6  and  C_29
REMARK    6  A    between atoms: N_9  and  CA_10
REMARK    7  A    between atoms: CA_14  and  C_15
REMARK    8  A    between atoms: C_18  and  C_19
REMARK    9  A    between atoms: C_19  and  N_20
REMARK                            x       y       z     vdW  Elec       q    Type
REMARK                         _______ _______ _______ _____ _____    ______ ____
ROOT
ATOM      1  CA  UNL     1       2.122   4.923  -7.831  0.00  0.00    +0.201 C 
ATOM      2  C   UNL     1       2.476   5.159  -6.184  0.00  0.00    +0.157 C 
ATOM      3  N   UNL     1       1.108   5.829  -6.195  0.00  0.00    -0.242 N 
ATOM      4  CA  UNL     1       0.835   6.439  -4.928  0.00  0.00    +0.134 C 
ATOM      5  C   UNL     1       1.752   6.646  -3.979  0.00  0.00    +0.064 C 
ATOM      6  C   UNL     1       3.106   7.190  -4.352  0.00  0.00    +0.089 C 
ATOM      7  S   UNL     1       3.360   6.851  -6.137  0.00  0.00    -0.114 S 
ATOM      8  C   UNL     1       1.139   6.206  -7.591  0.00  0.00    +0.253 C 
ATOM      9  O   UNL     1       0.086   6.227  -8.310  0.00  0.00    -0.273 OA
ENDROOT
BRANCH   1  11
ATOM     10  C   UNL     1       3.957   5.171  -9.562  0.00  0.00    +0.288 C 
ATOM     11  N   UNL     1       3.331   5.795  -8.431  0.00  0.00    -0.190 NA
ATOM     12  O   UNL     1       4.362   3.989  -9.336  0.00  0.00    -0.267 OA
BRANCH  10  14
ATOM     13  N   UNL     1       4.697   6.203 -11.511  0.00  0.00    -0.076 NA
ATOM     14  C   UNL     1       3.708   5.570 -10.953  0.00  0.00    +0.192 C 
BRANCH  14  15
ATOM     15  C   UNL     1       2.352   5.581 -11.535  0.00  0.00    +0.115 A 
ATOM     16  N   UNL     1       2.186   5.264 -12.835  0.00  0.00    -0.220 NA
ATOM     17  C   UNL     1       0.889   4.963 -13.091  0.00  0.00    +0.201 A 
ATOM     18  N   UNL     1       0.344   4.167 -14.141  0.00  0.00    -0.100 NA
ATOM     19  S   UNL     1       0.139   6.232 -12.207  0.00  0.00    -0.048 S 
ATOM     20  C   UNL     1       1.463   6.593 -11.172  0.00  0.00    +0.059 A 
ENDBRANCH  14  15
BRANCH  13  21
ATOM     21  O   UNL     1       5.861   5.455 -11.579  0.00  0.00    -0.374 OA
BRANCH  21  23
ATOM     22  C   UNL     1       6.899   7.052 -12.128  0.00  0.00    +0.058 C 
ATOM     23  C   UNL     1       7.055   6.234 -11.653  0.00  0.00    +0.253 C 
ATOM     24  C   UNL     1       8.072   5.351 -12.365  0.00  0.00    +0.058 C 
BRANCH  23  25
ATOM     25  C   UNL     1       7.614   6.470 -10.286  0.00  0.00    +0.403 C 
ATOM     26  O   UNL     1       7.468   5.445  -9.357  0.00  0.00    -0.242 OA
ATOM     27  O   UNL     1       7.968   7.634  -9.966  0.00  0.00    -0.242 OA
ENDBRANCH  23  25
ENDBRANCH  21  23
ENDBRANCH  13  21
ENDBRANCH  10  14
ENDBRANCH   1  11
BRANCH   4  28
ATOM     28  C   UNL     1      -0.547   6.748  -4.557  0.00  0.00    +0.401 C 
ATOM     29  OXT UNL     1      -1.500   5.722  -4.691  0.00  0.00    -0.239 OA
ATOM     30  O   UNL     1      -1.079   7.873  -4.830  0.00  0.00    -0.239 OA
ENDBRANCH   4  28
BRANCH   5  31
ATOM     31  C   UNL     1       1.528   5.899  -2.724  0.00  0.00    +0.348 C 
BRANCH  31  32
ATOM     32  N   UNL     1       2.511   6.034  -1.707  0.00  0.00    -0.156 N 
ATOM     33  C   UNL     1       3.594   5.218  -1.820  0.00  0.00    +0.290 A 
ATOM     34  C   UNL     1       4.591   5.288  -0.865  0.00  0.00    +0.076 A 
ATOM     35  C   UNL     1       4.510   6.314   0.069  0.00  0.00    +0.013 A 
ATOM     36  C   UNL     1       3.734   7.403  -0.296  0.00  0.00    +0.076 A 
ATOM     37  C   UNL     1       2.829   7.304  -1.346  0.00  0.00    +0.290 A 
ENDBRANCH  31  32
ENDBRANCH   5  31
TORSDOF 9
ENDMDL
