MODEL 1
REMARK VINA RESULT:      -9.4      0.000      0.000
REMARK  Name = 
REMARK  3 active torsions:
REMARK  status: ('A' for Active; 'I' for Inactive)
REMARK    1  A    between atoms: C_4  and  N_5
REMARK    2  A    between atoms: C_7  and  C_8
REMARK    3  A    between atoms: C_17  and  N_18
REMARK                            x       y       z     vdW  Elec       q    Type
REMARK                         _______ _______ _______ _____ _____    ______ ____
ROOT
ATOM      1  N   UNL     1       2.848   5.579  -5.315  0.00  0.00    -0.287 N 
ATOM      2  C   UNL     1       1.616   5.854  -5.805  0.00  0.00    +0.080 A 
ATOM      3  C   UNL     1       1.266   5.357  -7.055  0.00  0.00    +0.058 A 
ATOM      4  C   UNL     1      -0.016   5.590  -7.522  0.00  0.00    +0.036 A 
ATOM      5  C   UNL     1      -1.034   5.639  -6.578  0.00  0.00    +0.154 A 
ATOM      6  C   UNL     1      -0.734   5.654  -5.220  0.00  0.00    +0.088 A 
ATOM      7  F   UNL     1      -2.329   5.463  -6.930  0.00  0.00    -0.203 F 
ATOM      8  C   UNL     1       2.214   4.665  -7.798  0.00  0.00    +0.205 A 
ATOM      9  O   UNL     1       1.912   4.244  -8.939  0.00  0.00    -0.286 OA
ATOM     10  C   UNL     1       3.546   4.956  -7.526  0.00  0.00    +0.136 A 
ATOM     11  C   UNL     1       0.569   5.979  -4.900  0.00  0.00    +0.089 A 
ATOM     12 CL   UNL     1       0.908   6.527  -3.286  0.00  0.00    -0.079 Cl
ATOM     13  C   UNL     1       3.812   5.418  -6.254  0.00  0.00    +0.091 A 
ENDROOT
BRANCH   1  21
ATOM     14  N   UNL     1       4.205   4.538  -0.912  0.00  0.00    -0.105 NA
ATOM     15  C   UNL     1       4.325   5.373  -2.048  0.00  0.00    +0.199 A 
ATOM     16  C   UNL     1       4.656   6.703  -1.831  0.00  0.00    +0.177 A 
ATOM     17  F   UNL     1       5.162   7.088  -0.636  0.00  0.00    -0.201 F 
ATOM     18  C   UNL     1       4.851   7.491  -2.950  0.00  0.00    +0.065 A 
ATOM     19  C   UNL     1       4.166   7.104  -4.094  0.00  0.00    +0.177 A 
ATOM     20  F   UNL     1       4.240   7.919  -5.182  0.00  0.00    -0.201 F 
ATOM     21  C   UNL     1       3.230   6.073  -4.021  0.00  0.00    +0.177 A 
ATOM     22  N   UNL     1       3.606   5.089  -3.159  0.00  0.00    -0.205 NA
ENDBRANCH   1  21
BRANCH   6  23
ATOM     23  N   UNL     1      -1.713   5.330  -4.225  0.00  0.00    -0.300 N 
ATOM     24  C   UNL     1      -1.618   5.423  -2.770  0.00  0.00    +0.126 C 
ATOM     25  C   UNL     1      -2.581   6.600  -2.867  0.00  0.00    +0.191 C 
ATOM     26  O   UNL     1      -3.478   6.695  -1.821  0.00  0.00    -0.219 OA
ATOM     27  C   UNL     1      -3.080   5.827  -4.079  0.00  0.00    +0.126 C 
ENDBRANCH   6  23
BRANCH  10  28
ATOM     28  C   UNL     1       4.565   4.971  -8.584  0.00  0.00    +0.392 C 
ATOM     29  O   UNL     1       4.481   6.006  -9.521  0.00  0.00    -0.240 OA
ATOM     30  O   UNL     1       5.743   4.712  -8.188  0.00  0.00    -0.240 OA
ENDBRANCH  10  28
TORSDOF 3
ENDMDL
MODEL 2
REMARK VINA RESULT:      -9.3      2.196      5.736
REMARK  Name = 
REMARK  3 active torsions:
REMARK  status: ('A' for Active; 'I' for Inactive)
REMARK    1  A    between atoms: C_4  and  N_5
REMARK    2  A    between atoms: C_7  and  C_8
REMARK    3  A    between atoms: C_17  and  N_18
REMARK                            x       y       z     vdW  Elec       q    Type
REMARK                         _______ _______ _______ _____ _____    ______ ____
ROOT
ATOM      1  N   UNL     1       0.619   6.127  -3.784  0.00  0.00    -0.287 N 
ATOM      2  C   UNL     1       0.327   5.597  -4.996  0.00  0.00    +0.080 A 
ATOM      3  C   UNL     1      -0.851   5.979  -5.627  0.00  0.00    +0.058 A 
ATOM      4  C   UNL     1      -1.111   5.481  -6.893  0.00  0.00    +0.036 A 
ATOM      5  C   UNL     1      -0.019   5.255  -7.721  0.00  0.00    +0.154 A 
ATOM      6  C   UNL     1       1.274   5.339  -7.218  0.00  0.00    +0.088 A 
ATOM      7  F   UNL     1      -0.163   5.159  -9.063  0.00  0.00    -0.203 F 
ATOM      8  C   UNL     1      -1.730   6.825  -4.965  0.00  0.00    +0.205 A 
ATOM      9  O   UNL     1      -2.809   7.145  -5.518  0.00  0.00    -0.286 OA
ATOM     10  C   UNL     1      -1.672   6.814  -3.576  0.00  0.00    +0.136 A 
ATOM     11  C   UNL     1       1.385   5.290  -5.843  0.00  0.00    +0.089 A 
ATOM     12 CL   UNL     1       2.924   4.867  -5.155  0.00  0.00    -0.079 Cl
ATOM     13  C   UNL     1      -0.459   6.451  -3.029  0.00  0.00    +0.091 A 
ENDROOT
BRANCH   1  21
ATOM     14  N   UNL     1       4.843   7.501  -2.179  0.00  0.00    -0.105 NA
ATOM     15  C   UNL     1       3.674   6.727  -1.992  0.00  0.00    +0.199 A 
ATOM     16  C   UNL     1       3.800   5.535  -1.293  0.00  0.00    +0.177 A 
ATOM     17  F   UNL     1       4.906   5.303  -0.548  0.00  0.00    -0.201 F 
ATOM     18  C   UNL     1       2.638   4.827  -1.046  0.00  0.00    +0.065 A 
ATOM     19  C   UNL     1       1.606   5.014  -1.956  0.00  0.00    +0.177 A 
ATOM     20  F   UNL     1       0.491   4.247  -1.813  0.00  0.00    -0.201 F 
ATOM     21  C   UNL     1       1.835   5.756  -3.115  0.00  0.00    +0.177 A 
ATOM     22  N   UNL     1       2.674   6.805  -2.903  0.00  0.00    -0.205 NA
ENDBRANCH   1  21
BRANCH   6  23
ATOM     23  N   UNL     1       2.412   5.488  -8.076  0.00  0.00    -0.300 N 
ATOM     24  C   UNL     1       2.938   4.569  -9.082  0.00  0.00    +0.126 C 
ATOM     25  C   UNL     1       2.430   5.555 -10.127  0.00  0.00    +0.191 C 
ATOM     26  O   UNL     1       3.230   5.667 -11.248  0.00  0.00    -0.219 OA
ATOM     27  C   UNL     1       2.721   6.559  -9.022  0.00  0.00    +0.126 C 
ENDBRANCH   6  23
BRANCH  10  28
ATOM     28  C   UNL     1      -2.877   6.974  -2.750  0.00  0.00    +0.392 C 
ATOM     29  O   UNL     1      -3.855   5.981  -2.871  0.00  0.00    -0.240 OA
ATOM     30  O   UNL     1      -2.656   7.355  -1.560  0.00  0.00    -0.240 OA
ENDBRANCH  10  28
TORSDOF 3
ENDMDL
MODEL 3
REMARK VINA RESULT:      -9.3      4.626      6.821
REMARK  Name = 
REMARK  3 active torsions:
REMARK  status: ('A' for Active; 'I' for Inactive)
REMARK    1  A    between atoms: C_4  and  N_5
REMARK    2  A    between atoms: C_7  and  C_8
REMARK    3  A    between atoms: C_17  and  N_18
REMARK                            x       y       z     vdW  Elec       q    Type
REMARK                         _______ _______ _______ _____ _____    ______ ____
ROOT
ATOM      1  N   UNL     1       3.634   5.870 -11.137  0.00  0.00    -0.287 N 
ATOM      2  C   UNL     1       2.871   6.148 -10.052  0.00  0.00    +0.080 A 
ATOM      3  C   UNL     1       1.492   6.007 -10.149  0.00  0.00    +0.058 A 
ATOM      4  C   UNL     1       0.725   6.233  -9.019  0.00  0.00    +0.036 A 
ATOM      5  C   UNL     1       1.288   5.897  -7.795  0.00  0.00    +0.154 A 
ATOM      6  C   UNL     1       2.630   5.542  -7.712  0.00  0.00    +0.088 A 
ATOM      7  F   UNL     1       0.520   5.699  -6.698  0.00  0.00    -0.203 F 
ATOM      8  C   UNL     1       0.931   5.666 -11.373  0.00  0.00    +0.205 A 
ATOM      9  O   UNL     1      -0.315   5.571 -11.473  0.00  0.00    -0.286 OA
ATOM     10  C   UNL     1       1.665   6.001 -12.505  0.00  0.00    +0.136 A 
ATOM     11  C   UNL     1       3.409   5.892  -8.796  0.00  0.00    +0.089 A 
ATOM     12 CL   UNL     1       5.131   5.973  -8.582  0.00  0.00    -0.079 Cl
ATOM     13  C   UNL     1       3.031   6.093 -12.329  0.00  0.00    +0.091 A 
ENDROOT
BRANCH   1  21
ATOM     14  N   UNL     1       7.839   4.450 -12.752  0.00  0.00    -0.105 NA
ATOM     15  C   UNL     1       7.013   5.505 -12.299  0.00  0.00    +0.199 A 
ATOM     16  C   UNL     1       7.626   6.560 -11.639  0.00  0.00    +0.177 A 
ATOM     17  F   UNL     1       8.967   6.725 -11.729  0.00  0.00    -0.201 F 
ATOM     18  C   UNL     1       6.822   7.624 -11.274  0.00  0.00    +0.065 A 
ATOM     19  C   UNL     1       5.484   7.327 -11.053  0.00  0.00    +0.177 A 
ATOM     20  F   UNL     1       4.685   8.322 -10.578  0.00  0.00    -0.201 F 
ATOM     21  C   UNL     1       5.062   5.998 -11.059  0.00  0.00    +0.177 A 
ATOM     22  N   UNL     1       5.721   5.247 -11.983  0.00  0.00    -0.205 NA
ENDBRANCH   1  21
BRANCH   6  23
ATOM     23  N   UNL     1       3.159   4.841  -6.580  0.00  0.00    -0.300 N 
ATOM     24  C   UNL     1       4.145   5.282  -5.597  0.00  0.00    +0.126 C 
ATOM     25  C   UNL     1       2.995   5.358  -4.601  0.00  0.00    +0.191 C 
ATOM     26  O   UNL     1       3.330   5.004  -3.308  0.00  0.00    -0.219 OA
ATOM     27  C   UNL     1       2.448   4.227  -5.460  0.00  0.00    +0.126 C 
ENDBRANCH   6  23
BRANCH  10  28
ATOM     28  C   UNL     1       1.015   6.432 -13.750  0.00  0.00    +0.392 C 
ATOM     29  O   UNL     1       0.753   7.800 -13.879  0.00  0.00    -0.240 OA
ATOM     30  O   UNL     1       1.463   5.879 -14.801  0.00  0.00    -0.240 OA
ENDBRANCH  10  28
TORSDOF 3
ENDMDL
MODEL 4
REMARK VINA RESULT:      -9.2      3.037      5.972
REMARK  Name = 
REMARK  3 active torsions:
REMARK  status: ('A' for Active; 'I' for Inactive)
REMARK    1  A    between atoms: C_4  and  N_5
REMARK    2  A    between atoms: C_7  and  C_8
REMARK    3  A    between atoms: C_17  and  N_18
REMARK                            x       y       z     vdW  Elec       q    Type
REMARK                         _______ _______ _______ _____ _____    ______ ____
ROOT
ATOM      1  N   UNL     1       1.245   5.858  -3.200  0.00  0.00    -0.287 N 
ATOM      2  C   UNL     1       1.950   6.383  -4.231  0.00  0.00    +0.080 A 
ATOM      3  C   UNL     1       3.255   5.951  -4.437  0.00  0.00    +0.058 A 
ATOM      4  C   UNL     1       3.948   6.445  -5.529  0.00  0.00    +0.036 A 
ATOM      5  C   UNL     1       3.210   6.729  -6.672  0.00  0.00    +0.154 A 
ATOM      6  C   UNL     1       1.821   6.701  -6.636  0.00  0.00    +0.088 A 
ATOM      7  F   UNL     1       3.802   6.827  -7.884  0.00  0.00    -0.203 F 
ATOM      8  C   UNL     1       3.823   5.059  -3.537  0.00  0.00    +0.205 A 
ATOM      9  O   UNL     1       5.010   4.693  -3.702  0.00  0.00    -0.286 OA
ATOM     10  C   UNL     1       3.300   5.063  -2.249  0.00  0.00    +0.136 A 
ATOM     11  C   UNL     1       1.254   6.746  -5.378  0.00  0.00    +0.089 A 
ATOM     12 CL   UNL     1      -0.407   7.236  -5.239  0.00  0.00    -0.079 Cl
ATOM     13  C   UNL     1       1.990   5.479  -2.135  0.00  0.00    +0.091 A 
ENDROOT
BRANCH   1  21
ATOM     14  N   UNL     1      -3.350   4.834  -3.580  0.00  0.00    -0.105 NA
ATOM     15  C   UNL     1      -2.299   5.404  -2.826  0.00  0.00    +0.199 A 
ATOM     16  C   UNL     1      -2.610   6.478  -2.005  0.00  0.00    +0.177 A 
ATOM     17  F   UNL     1      -3.902   6.739  -1.693  0.00  0.00    -0.201 F 
ATOM     18  C   UNL     1      -1.593   6.976  -1.210  0.00  0.00    +0.065 A 
ATOM     19  C   UNL     1      -0.303   6.796  -1.690  0.00  0.00    +0.177 A 
ATOM     20  F   UNL     1       0.716   7.374  -0.997  0.00  0.00    -0.201 F 
ATOM     21  C   UNL     1      -0.109   6.281  -2.972  0.00  0.00    +0.177 A 
ATOM     22  N   UNL     1      -1.031   5.334  -3.296  0.00  0.00    -0.205 NA
ENDBRANCH   1  21
BRANCH   6  23
ATOM     23  N   UNL     1       1.034   6.613  -7.830  0.00  0.00    -0.300 N 
ATOM     24  C   UNL     1       1.452   6.737  -9.225  0.00  0.00    +0.126 C 
ATOM     25  C   UNL     1       1.209   5.237  -9.343  0.00  0.00    +0.191 C 
ATOM     26  O   UNL     1       0.711   4.831 -10.566  0.00  0.00    -0.219 OA
ATOM     27  C   UNL     1       0.160   5.532  -8.282  0.00  0.00    +0.126 C 
ENDBRANCH   6  23
BRANCH  10  28
ATOM     28  C   UNL     1       4.147   4.840  -1.070  0.00  0.00    +0.392 C 
ATOM     29  O   UNL     1       4.115   5.828  -0.080  0.00  0.00    -0.240 OA
ATOM     30  O   UNL     1       4.139   3.651  -0.628  0.00  0.00    -0.240 OA
ENDBRANCH  10  28
TORSDOF 3
ENDMDL
MODEL 5
REMARK VINA RESULT:      -9.0      4.769      7.524
REMARK  Name = 
REMARK  3 active torsions:
REMARK  status: ('A' for Active; 'I' for Inactive)
REMARK    1  A    between atoms: C_4  and  N_5
REMARK    2  A    between atoms: C_7  and  C_8
REMARK    3  A    between atoms: C_17  and  N_18
REMARK                            x       y       z     vdW  Elec       q    Type
REMARK                         _______ _______ _______ _____ _____    ______ ____
ROOT
ATOM      1  N   UNL     1       3.623   6.216  -9.194  0.00  0.00    -0.287 N 
ATOM      2  C   UNL     1       2.545   5.519  -9.627  0.00  0.00    +0.080 A 
ATOM      3  C   UNL     1       1.368   5.580  -8.890  0.00  0.00    +0.058 A 
ATOM      4  C   UNL     1       0.254   4.916  -9.372  0.00  0.00    +0.036 A 
ATOM      5  C   UNL     1       0.108   4.843 -10.752  0.00  0.00    +0.154 A 
ATOM      6  C   UNL     1       1.141   5.247 -11.590  0.00  0.00    +0.088 A 
ATOM      7  F   UNL     1      -1.094   4.586 -11.319  0.00  0.00    -0.203 F 
ATOM      8  C   UNL     1       1.355   6.285  -7.694  0.00  0.00    +0.205 A 
ATOM      9  O   UNL     1       0.305   6.314  -7.010  0.00  0.00    -0.286 OA
ATOM     10  C   UNL     1       2.576   6.424  -7.043  0.00  0.00    +0.136 A 
ATOM     11  C   UNL     1       2.382   5.359 -10.998  0.00  0.00    +0.089 A 
ATOM     12 CL   UNL     1       3.788   5.339 -12.020  0.00  0.00    -0.079 Cl
ATOM     13  C   UNL     1       3.694   6.380  -7.851  0.00  0.00    +0.091 A 
ENDROOT
BRANCH   1  21
ATOM     14  N   UNL     1       6.682   8.562 -11.924  0.00  0.00    -0.105 NA
ATOM     15  C   UNL     1       6.460   7.624 -10.889  0.00  0.00    +0.199 A 
ATOM     16  C   UNL     1       7.378   6.593 -10.753  0.00  0.00    +0.177 A 
ATOM     17  F   UNL     1       8.586   6.680 -11.358  0.00  0.00    -0.201 F 
ATOM     18  C   UNL     1       7.198   5.729  -9.688  0.00  0.00    +0.065 A 
ATOM     19  C   UNL     1       5.894   5.587  -9.234  0.00  0.00    +0.177 A 
ATOM     20  F   UNL     1       5.659   4.658  -8.267  0.00  0.00    -0.201 F 
ATOM     21  C   UNL     1       4.848   6.177  -9.943  0.00  0.00    +0.177 A 
ATOM     22  N   UNL     1       5.195   7.382 -10.472  0.00  0.00    -0.205 NA
ENDBRANCH   1  21
BRANCH   6  23
ATOM     23  N   UNL     1       0.919   5.545 -12.974  0.00  0.00    -0.300 N 
ATOM     24  C   UNL     1       0.954   6.835 -13.659  0.00  0.00    +0.126 C 
ATOM     25  C   UNL     1       2.250   6.362 -14.305  0.00  0.00    +0.191 C 
ATOM     26  O   UNL     1       2.431   6.786 -15.607  0.00  0.00    -0.219 OA
ATOM     27  C   UNL     1       1.588   5.000 -14.154  0.00  0.00    +0.126 C 
ENDBRANCH   6  23
BRANCH  10  28
ATOM     28  C   UNL     1       2.679   6.409  -5.578  0.00  0.00    +0.392 C 
ATOM     29  O   UNL     1       2.719   5.151  -4.966  0.00  0.00    -0.240 OA
ATOM     30  O   UNL     1       3.490   7.257  -5.095  0.00  0.00    -0.240 OA
ENDBRANCH  10  28
TORSDOF 3
ENDMDL
MODEL 6
REMARK VINA RESULT:      -8.8      5.640      8.247
REMARK  Name = 
REMARK  3 active torsions:
REMARK  status: ('A' for Active; 'I' for Inactive)
REMARK    1  A    between atoms: C_4  and  N_5
REMARK    2  A    between atoms: C_7  and  C_8
REMARK    3  A    between atoms: C_17  and  N_18
REMARK                            x       y       z     vdW  Elec       q    Type
REMARK                         _______ _______ _______ _____ _____    ______ ____
ROOT
ATOM      1  N   UNL     1       3.185   5.592 -12.613  0.00  0.00    -0.287 N 
ATOM      2  C   UNL     1       2.551   6.165 -11.561  0.00  0.00    +0.080 A 
ATOM      3  C   UNL     1       1.267   5.740 -11.241  0.00  0.00    +0.058 A 
ATOM      4  C   UNL     1       0.651   6.286 -10.128  0.00  0.00    +0.036 A 
ATOM      5  C   UNL     1       1.467   6.626  -9.056  0.00  0.00    +0.154 A 
ATOM      6  C   UNL     1       2.850   6.601  -9.190  0.00  0.00    +0.088 A 
ATOM      7  F   UNL     1       0.962   6.783  -7.811  0.00  0.00    -0.203 F 
ATOM      8  C   UNL     1       0.642   4.804 -12.054  0.00  0.00    +0.205 A 
ATOM      9  O   UNL     1      -0.529   4.444 -11.788  0.00  0.00    -0.286 OA
ATOM     10  C   UNL     1       1.071   4.746 -13.375  0.00  0.00    +0.136 A 
ATOM     11  C   UNL     1       3.325   6.585 -10.486  0.00  0.00    +0.089 A 
ATOM     12 CL   UNL     1       4.970   7.071 -10.766  0.00  0.00    -0.079 Cl
ATOM     13  C   UNL     1       2.368   5.159 -13.603  0.00  0.00    +0.091 A 
ENDROOT
BRANCH   1  21
ATOM     14  N   UNL     1       7.801   4.598 -12.514  0.00  0.00    -0.105 NA
ATOM     15  C   UNL     1       6.695   5.129 -13.218  0.00  0.00    +0.199 A 
ATOM     16  C   UNL     1       6.941   6.163 -14.110  0.00  0.00    +0.177 A 
ATOM     17  F   UNL     1       8.205   6.411 -14.525  0.00  0.00    -0.201 F 
ATOM     18  C   UNL     1       5.867   6.619 -14.852  0.00  0.00    +0.065 A 
ATOM     19  C   UNL     1       4.615   6.459 -14.273  0.00  0.00    +0.177 A 
ATOM     20  F   UNL     1       3.546   7.001 -14.919  0.00  0.00    -0.201 F 
ATOM     21  C   UNL     1       4.517   6.007 -12.958  0.00  0.00    +0.177 A 
ATOM     22  N   UNL     1       5.465   5.079 -12.655  0.00  0.00    -0.205 NA
ENDBRANCH   1  21
BRANCH   6  23
ATOM     23  N   UNL     1       3.720   6.572  -8.052  0.00  0.00    -0.300 N 
ATOM     24  C   UNL     1       3.415   6.836  -6.648  0.00  0.00    +0.126 C 
ATOM     25  C   UNL     1       3.598   5.341  -6.415  0.00  0.00    +0.191 C 
ATOM     26  O   UNL     1       4.169   5.014  -5.200  0.00  0.00    -0.219 OA
ATOM     27  C   UNL     1       4.576   5.489  -7.571  0.00  0.00    +0.126 C 
ENDBRANCH   6  23
BRANCH  10  28
ATOM     28  C   UNL     1       0.144   4.464 -14.479  0.00  0.00    +0.392 C 
ATOM     29  O   UNL     1       0.079   5.417 -15.502  0.00  0.00    -0.240 OA
ATOM     30  O   UNL     1       0.147   3.260 -14.879  0.00  0.00    -0.240 OA
ENDBRANCH  10  28
TORSDOF 3
ENDMDL
MODEL 7
REMARK VINA RESULT:      -8.8      2.219      5.413
REMARK  Name = 
REMARK  3 active torsions:
REMARK  status: ('A' for Active; 'I' for Inactive)
REMARK    1  A    between atoms: C_4  and  N_5
REMARK    2  A    between atoms: C_7  and  C_8
REMARK    3  A    between atoms: C_17  and  N_18
REMARK                            x       y       z     vdW  Elec       q    Type
REMARK                         _______ _______ _______ _____ _____    ______ ____
ROOT
ATOM      1  N   UNL     1       0.943   6.228  -5.920  0.00  0.00    -0.287 N 
ATOM      2  C   UNL     1       2.051   5.537  -5.557  0.00  0.00    +0.080 A 
ATOM      3  C   UNL     1       3.184   5.621  -6.357  0.00  0.00    +0.058 A 
ATOM      4  C   UNL     1       4.331   4.963  -5.947  0.00  0.00    +0.036 A 
ATOM      5  C   UNL     1       4.554   4.873  -4.579  0.00  0.00    +0.154 A 
ATOM      6  C   UNL     1       3.565   5.254  -3.679  0.00  0.00    +0.088 A 
ATOM      7  F   UNL     1       5.788   4.623  -4.083  0.00  0.00    -0.203 F 
ATOM      8  C   UNL     1       3.123   6.342  -7.543  0.00  0.00    +0.205 A 
ATOM      9  O   UNL     1       4.134   6.393  -8.283  0.00  0.00    -0.286 OA
ATOM     10  C   UNL     1       1.867   6.477  -8.122  0.00  0.00    +0.136 A 
ATOM     11  C   UNL     1       2.291   5.360  -4.200  0.00  0.00    +0.089 A 
ATOM     12 CL   UNL     1       0.945   5.310  -3.102  0.00  0.00    -0.079 Cl
ATOM     13  C   UNL     1       0.796   6.409  -7.255  0.00  0.00    +0.091 A 
ENDROOT
BRANCH   1  21
ATOM     14  N   UNL     1      -2.047   8.532  -3.081  0.00  0.00    -0.105 NA
ATOM     15  C   UNL     1      -1.847   7.578  -4.105  0.00  0.00    +0.199 A 
ATOM     16  C   UNL     1      -2.734   6.512  -4.168  0.00  0.00    +0.177 A 
ATOM     17  F   UNL     1      -3.910   6.572  -3.501  0.00  0.00    -0.201 F 
ATOM     18  C   UNL     1      -2.580   5.630  -5.221  0.00  0.00    +0.065 A 
ATOM     19  C   UNL     1      -1.298   5.522  -5.742  0.00  0.00    +0.177 A 
ATOM     20  F   UNL     1      -1.083   4.578  -6.700  0.00  0.00    -0.201 F 
ATOM     21  C   UNL     1      -0.238   6.165  -5.105  0.00  0.00    +0.177 A 
ATOM     22  N   UNL     1      -0.598   7.370  -4.585  0.00  0.00    -0.205 NA
ENDBRANCH   1  21
BRANCH   6  23
ATOM     23  N   UNL     1       3.860   5.536  -2.306  0.00  0.00    -0.300 N 
ATOM     24  C   UNL     1       3.905   6.822  -1.614  0.00  0.00    +0.126 C 
ATOM     25  C   UNL     1       2.622   6.394  -0.912  0.00  0.00    +0.191 C 
ATOM     26  O   UNL     1       2.516   6.818   0.399  0.00  0.00    -0.219 OA
ATOM     27  C   UNL     1       3.226   5.010  -1.098  0.00  0.00    +0.126 C 
ENDBRANCH   6  23
BRANCH  10  28
ATOM     28  C   UNL     1       1.683   6.480  -9.579  0.00  0.00    +0.392 C 
ATOM     29  O   UNL     1       1.761   5.240 -10.223  0.00  0.00    -0.240 OA
ATOM     30  O   UNL     1       0.748   7.232  -9.994  0.00  0.00    -0.240 OA
ENDBRANCH  10  28
TORSDOF 3
ENDMDL
MODEL 8
REMARK VINA RESULT:      -8.7      5.029      8.057
REMARK  Name = 
REMARK  3 active torsions:
REMARK  status: ('A' for Active; 'I' for Inactive)
REMARK    1  A    between atoms: C_4  and  N_5
REMARK    2  A    between atoms: C_7  and  C_8
REMARK    3  A    between atoms: C_17  and  N_18
REMARK                            x       y       z     vdW  Elec       q    Type
REMARK                         _______ _______ _______ _____ _____    ______ ____
ROOT
ATOM      1  N   UNL     1       4.182   5.959 -11.753  0.00  0.00    -0.287 N 
ATOM      2  C   UNL     1       4.378   5.495 -10.496  0.00  0.00    +0.080 A 
ATOM      3  C   UNL     1       5.582   5.772  -9.860  0.00  0.00    +0.058 A 
ATOM      4  C   UNL     1       5.750   5.349  -8.553  0.00  0.00    +0.036 A 
ATOM      5  C   UNL     1       4.622   5.332  -7.743  0.00  0.00    +0.154 A 
ATOM      6  C   UNL     1       3.361   5.541  -8.290  0.00  0.00    +0.088 A 
ATOM      7  F   UNL     1       4.725   5.327  -6.394  0.00  0.00    -0.203 F 
ATOM      8  C   UNL     1       6.577   6.443 -10.559  0.00  0.00    +0.205 A 
ATOM      9  O   UNL     1       7.677   6.665 -10.000  0.00  0.00    -0.286 OA
ATOM     10  C   UNL     1       6.546   6.328 -11.944  0.00  0.00    +0.136 A 
ATOM     11  C   UNL     1       3.272   5.396  -9.660  0.00  0.00    +0.089 A 
ATOM     12 CL   UNL     1       1.705   5.120 -10.359  0.00  0.00    -0.079 Cl
ATOM     13  C   UNL     1       5.307   6.080 -12.498  0.00  0.00    +0.091 A 
ENDROOT
BRANCH   1  21
ATOM     14  N   UNL     1       0.177   7.722 -13.533  0.00  0.00    -0.105 NA
ATOM     15  C   UNL     1       1.249   6.807 -13.647  0.00  0.00    +0.199 A 
ATOM     16  C   UNL     1       0.994   5.599 -14.279  0.00  0.00    +0.177 A 
ATOM     17  F   UNL     1      -0.120   5.454 -15.035  0.00  0.00    -0.201 F 
ATOM     18  C   UNL     1       2.067   4.746 -14.459  0.00  0.00    +0.065 A 
ATOM     19  C   UNL     1       3.099   4.864 -13.537  0.00  0.00    +0.177 A 
ATOM     20  F   UNL     1       4.117   3.963 -13.610  0.00  0.00    -0.201 F 
ATOM     21  C   UNL     1       2.941   5.695 -12.428  0.00  0.00    +0.177 A 
ATOM     22  N   UNL     1       2.236   6.821 -12.719  0.00  0.00    -0.205 NA
ENDBRANCH   1  21
BRANCH   6  23
ATOM     23  N   UNL     1       2.235   5.903  -7.480  0.00  0.00    -0.300 N 
ATOM     24  C   UNL     1       1.709   5.251  -6.284  0.00  0.00    +0.126 C 
ATOM     25  C   UNL     1       2.242   6.446  -5.502  0.00  0.00    +0.191 C 
ATOM     26  O   UNL     1       1.456   6.828  -4.431  0.00  0.00    -0.219 OA
ATOM     27  C   UNL     1       1.951   7.169  -6.808  0.00  0.00    +0.126 C 
ENDBRANCH   6  23
BRANCH  10  28
ATOM     28  C   UNL     1       7.778   6.265 -12.743  0.00  0.00    +0.392 C 
ATOM     29  O   UNL     1       8.632   5.186 -12.493  0.00  0.00    -0.240 OA
ATOM     30  O   UNL     1       7.627   6.544 -13.972  0.00  0.00    -0.240 OA
ENDBRANCH  10  28
TORSDOF 3
ENDMDL
MODEL 9
REMARK VINA RESULT:      -8.6      3.595      5.875
REMARK  Name = 
REMARK  3 active torsions:
REMARK  status: ('A' for Active; 'I' for Inactive)
REMARK    1  A    between atoms: C_4  and  N_5
REMARK    2  A    between atoms: C_7  and  C_8
REMARK    3  A    between atoms: C_17  and  N_18
REMARK                            x       y       z     vdW  Elec       q    Type
REMARK                         _______ _______ _______ _____ _____    ______ ____
ROOT
ATOM      1  N   UNL     1       2.379   6.637  -2.091  0.00  0.00    -0.287 N 
ATOM      2  C   UNL     1       1.182   6.277  -1.567  0.00  0.00    +0.080 A 
ATOM      3  C   UNL     1       0.788   6.834  -0.356  0.00  0.00    +0.058 A 
ATOM      4  C   UNL     1      -0.463   6.510   0.142  0.00  0.00    +0.036 A 
ATOM      5  C   UNL     1      -1.473   6.282  -0.784  0.00  0.00    +0.154 A 
ATOM      6  C   UNL     1      -1.177   6.191  -2.139  0.00  0.00    +0.088 A 
ATOM      7  F   UNL     1      -2.778   6.353  -0.432  0.00  0.00    -0.203 F 
ATOM      8  C   UNL     1       1.662   7.675   0.319  0.00  0.00    +0.205 A 
ATOM      9  O   UNL     1       1.323   8.152   1.427  0.00  0.00    -0.286 OA
ATOM     10  C   UNL     1       3.016   7.500   0.056  0.00  0.00    +0.136 A 
ATOM     11  C   UNL     1       0.151   5.975  -2.448  0.00  0.00    +0.089 A 
ATOM     12 CL   UNL     1       0.539   5.338  -4.018  0.00  0.00    -0.079 Cl
ATOM     13  C   UNL     1       3.324   6.968  -1.179  0.00  0.00    +0.091 A 
ENDROOT
BRANCH   1  21
ATOM     14  N   UNL     1       3.360   7.419  -6.645  0.00  0.00    -0.105 NA
ATOM     15  C   UNL     1       3.677   6.753  -5.438  0.00  0.00    +0.199 A 
ATOM     16  C   UNL     1       4.251   5.493  -5.535  0.00  0.00    +0.177 A 
ATOM     17  F   UNL     1       4.781   5.080  -6.711  0.00  0.00    -0.201 F 
ATOM     18  C   UNL     1       4.632   4.885  -4.353  0.00  0.00    +0.065 A 
ATOM     19  C   UNL     1       3.924   5.261  -3.220  0.00  0.00    +0.177 A 
ATOM     20  F   UNL     1       4.190   4.599  -2.060  0.00  0.00    -0.201 F 
ATOM     21  C   UNL     1       2.805   6.083  -3.347  0.00  0.00    +0.177 A 
ATOM     22  N   UNL     1       2.955   7.018  -4.324  0.00  0.00    -0.205 NA
ENDBRANCH   1  21
BRANCH   6  23
ATOM     23  N   UNL     1      -2.187   6.333  -3.146  0.00  0.00    -0.300 N 
ATOM     24  C   UNL     1      -2.144   7.079  -4.401  0.00  0.00    +0.126 C 
ATOM     25  C   UNL     1      -2.094   5.728  -5.104  0.00  0.00    +0.191 C 
ATOM     26  O   UNL     1      -2.772   5.682  -6.307  0.00  0.00    -0.219 OA
ATOM     27  C   UNL     1      -2.902   5.297  -3.889  0.00  0.00    +0.126 C 
ENDBRANCH   6  23
BRANCH  10  28
ATOM     28  C   UNL     1       4.035   7.673   1.100  0.00  0.00    +0.392 C 
ATOM     29  O   UNL     1       4.880   6.583   1.337  0.00  0.00    -0.240 OA
ATOM     30  O   UNL     1       4.619   8.800   1.089  0.00  0.00    -0.240 OA
ENDBRANCH  10  28
TORSDOF 3
ENDMDL
