MODEL 1
REMARK VINA RESULT:      -8.0      0.000      0.000
REMARK  Name = 
REMARK  5 active torsions:
REMARK  status: ('A' for Active; 'I' for Inactive)
REMARK    1  A    between atoms: C_2  and  C_3
REMARK    2  A    between atoms: CA_4  and  C_5
REMARK    3  A    between atoms: CA_11  and  N_12
REMARK    4  A    between atoms: C_13  and  C_15
REMARK    5  A    between atoms: C_15  and  C_18
REMARK                            x       y       z     vdW  Elec       q    Type
REMARK                         _______ _______ _______ _____ _____    ______ ____
ROOT
ATOM      1  C   UNL     1      -1.560   6.336  -4.194  0.00  0.00    +0.009 C 
ATOM      2  C   UNL     1      -2.302   5.753  -5.359  0.00  0.00    +0.087 C 
ATOM      3  S   UNL     1      -1.196   5.594  -6.802  0.00  0.00    -0.114 S 
ATOM      4  C   UNL     1       0.314   6.617  -6.232  0.00  0.00    +0.157 C 
ATOM      5  N   UNL     1       0.589   5.644  -5.093  0.00  0.00    -0.242 N 
ATOM      6  C   UNL     1       1.058   4.574  -5.951  0.00  0.00    +0.253 C 
ATOM      7  O   UNL     1       1.920   3.708  -5.597  0.00  0.00    -0.273 OA
ATOM      8  CA  UNL     1       1.624   5.772  -6.897  0.00  0.00    +0.201 C 
ATOM      9  CA  UNL     1      -0.336   5.836  -4.014  0.00  0.00    +0.132 C 
ENDROOT
BRANCH   8  10
ATOM     10  N   UNL     1       0.857   5.302  -8.219  0.00  0.00    -0.190 NA
ATOM     11  C   UNL     1       1.705   4.854  -9.256  0.00  0.00    +0.288 C 
ATOM     12  O   UNL     1       2.502   3.936  -8.891  0.00  0.00    -0.267 OA
BRANCH  11  13
ATOM     13  C   UNL     1       1.905   5.553 -10.533  0.00  0.00    +0.197 C 
ATOM     14  N   UNL     1       1.108   5.183 -11.492  0.00  0.00    -0.023 NA
ATOM     15  O   UNL     1      -0.084   4.529 -11.260  0.00  0.00    -0.143 OA
BRANCH  13  16
ATOM     16  C   UNL     1       3.252   5.989 -10.966  0.00  0.00    +0.115 A 
ATOM     17  N   UNL     1       4.065   5.076 -11.531  0.00  0.00    -0.220 NA
ATOM     18  C   UNL     1       5.182   5.645 -12.043  0.00  0.00    +0.201 A 
ATOM     19  N   UNL     1       6.034   5.139 -13.081  0.00  0.00    -0.100 NA
ATOM     20  S   UNL     1       5.557   6.709 -10.746  0.00  0.00    -0.048 S 
ATOM     21  C   UNL     1       3.971   6.807 -10.093  0.00  0.00    +0.059 A 
ENDBRANCH  13  16
ENDBRANCH  11  13
ENDBRANCH   8  10
BRANCH   9  22
ATOM     22  C   UNL     1       0.252   5.623  -2.692  0.00  0.00    +0.401 C 
ATOM     23  OXT UNL     1       1.511   6.145  -2.376  0.00  0.00    -0.239 OA
ATOM     24  O   UNL     1      -0.051   4.570  -2.056  0.00  0.00    -0.239 OA
ENDBRANCH   9  22
BRANCH   1  26
ATOM     25  C   UNL     1      -3.461   6.199  -2.850  0.00  0.00    -0.000 C 
ATOM     26  C   UNL     1      -2.337   6.748  -3.036  0.00  0.00    -0.002 C 
ENDBRANCH   1  26
TORSDOF 5
ENDMDL
MODEL 2
REMARK VINA RESULT:      -7.7      2.306      8.427
REMARK  Name = 
REMARK  5 active torsions:
REMARK  status: ('A' for Active; 'I' for Inactive)
REMARK    1  A    between atoms: C_2  and  C_3
REMARK    2  A    between atoms: CA_4  and  C_5
REMARK    3  A    between atoms: CA_11  and  N_12
REMARK    4  A    between atoms: C_13  and  C_15
REMARK    5  A    between atoms: C_15  and  C_18
REMARK                            x       y       z     vdW  Elec       q    Type
REMARK                         _______ _______ _______ _____ _____    ______ ____
ROOT
ATOM      1  C   UNL     1       5.501   6.410 -10.432  0.00  0.00    +0.009 C 
ATOM      2  C   UNL     1       6.123   5.721  -9.255  0.00  0.00    +0.087 C 
ATOM      3  S   UNL     1       4.904   5.533  -7.910  0.00  0.00    -0.114 S 
ATOM      4  C   UNL     1       3.491   6.664  -8.524  0.00  0.00    +0.157 C 
ATOM      5  N   UNL     1       3.260   5.775  -9.739  0.00  0.00    -0.242 N 
ATOM      6  C   UNL     1       2.677   4.681  -8.988  0.00  0.00    +0.253 C 
ATOM      7  O   UNL     1       1.806   3.882  -9.458  0.00  0.00    -0.273 OA
ATOM      8  CA  UNL     1       2.096   5.848  -8.012  0.00  0.00    +0.201 C 
ATOM      9  CA  UNL     1       4.272   5.984 -10.733  0.00  0.00    +0.132 C 
ENDROOT
BRANCH   8  10
ATOM     10  N   UNL     1       2.737   5.262  -6.669  0.00  0.00    -0.190 NA
ATOM     11  C   UNL     1       1.795   4.934  -5.670  0.00  0.00    +0.288 C 
ATOM     12  O   UNL     1       0.888   4.144  -6.075  0.00  0.00    -0.267 OA
BRANCH  11  13
ATOM     13  C   UNL     1       1.650   5.645  -4.391  0.00  0.00    +0.197 C 
ATOM     14  N   UNL     1       2.481   5.276  -3.461  0.00  0.00    -0.023 NA
ATOM     15  O   UNL     1       3.658   4.610  -3.733  0.00  0.00    -0.143 OA
BRANCH  13  16
ATOM     16  C   UNL     1       0.325   6.096  -3.911  0.00  0.00    +0.115 A 
ATOM     17  N   UNL     1      -0.539   5.165  -3.460  0.00  0.00    -0.220 NA
ATOM     18  C   UNL     1      -1.628   5.726  -2.885  0.00  0.00    +0.201 A 
ATOM     19  N   UNL     1      -2.512   5.146  -1.915  0.00  0.00    -0.100 NA
ATOM     20  S   UNL     1      -1.939   6.957  -4.045  0.00  0.00    -0.048 S 
ATOM     21  C   UNL     1      -0.345   7.049  -4.680  0.00  0.00    +0.059 A 
ENDBRANCH  13  16
ENDBRANCH  11  13
ENDBRANCH   8  10
BRANCH   9  22
ATOM     22  C   UNL     1       3.778   5.880 -12.106  0.00  0.00    +0.401 C 
ATOM     23  OXT UNL     1       2.485   6.299 -12.435  0.00  0.00    -0.239 OA
ATOM     24  O   UNL     1       4.231   4.956 -12.844  0.00  0.00    -0.239 OA
ENDBRANCH   9  22
BRANCH   1  26
ATOM     25  C   UNL     1       6.674   8.078 -11.562  0.00  0.00    -0.000 C 
ATOM     26  C   UNL     1       6.383   6.850 -11.502  0.00  0.00    -0.002 C 
ENDBRANCH   1  26
TORSDOF 5
ENDMDL
MODEL 3
REMARK VINA RESULT:      -7.5      3.012      8.067
REMARK  Name = 
REMARK  5 active torsions:
REMARK  status: ('A' for Active; 'I' for Inactive)
REMARK    1  A    between atoms: C_2  and  C_3
REMARK    2  A    between atoms: CA_4  and  C_5
REMARK    3  A    between atoms: CA_11  and  N_12
REMARK    4  A    between atoms: C_13  and  C_15
REMARK    5  A    between atoms: C_15  and  C_18
REMARK                            x       y       z     vdW  Elec       q    Type
REMARK                         _______ _______ _______ _____ _____    ______ ____
ROOT
ATOM      1  C   UNL     1       5.409   6.420 -10.347  0.00  0.00    +0.009 C 
ATOM      2  C   UNL     1       5.987   5.693  -9.170  0.00  0.00    +0.087 C 
ATOM      3  S   UNL     1       4.732   5.501  -7.860  0.00  0.00    -0.114 S 
ATOM      4  C   UNL     1       3.358   6.674  -8.483  0.00  0.00    +0.157 C 
ATOM      5  N   UNL     1       3.139   5.817  -9.723  0.00  0.00    -0.242 N 
ATOM      6  C   UNL     1       2.515   4.720  -9.011  0.00  0.00    +0.253 C 
ATOM      7  O   UNL     1       1.639   3.951  -9.521  0.00  0.00    -0.273 OA
ATOM      8  CA  UNL     1       1.934   5.878  -8.025  0.00  0.00    +0.201 C 
ATOM      9  CA  UNL     1       4.180   6.027 -10.687  0.00  0.00    +0.132 C 
ENDROOT
BRANCH   8  10
ATOM     10  N   UNL     1       2.528   5.249  -6.679  0.00  0.00    -0.190 NA
ATOM     11  C   UNL     1       1.570   5.029  -5.667  0.00  0.00    +0.288 C 
ATOM     12  O   UNL     1       0.585   4.327  -6.051  0.00  0.00    -0.267 OA
BRANCH  11  13
ATOM     13  C   UNL     1       1.510   5.767  -4.397  0.00  0.00    +0.197 C 
ATOM     14  N   UNL     1       0.706   6.790  -4.394  0.00  0.00    -0.023 NA
ATOM     15  O   UNL     1      -0.315   6.939  -5.310  0.00  0.00    -0.143 OA
BRANCH  13  16
ATOM     16  C   UNL     1       2.703   5.900  -3.531  0.00  0.00    +0.115 A 
ATOM     17  N   UNL     1       2.693   5.280  -2.335  0.00  0.00    -0.220 NA
ATOM     18  C   UNL     1       3.905   5.330  -1.733  0.00  0.00    +0.201 A 
ATOM     19  N   UNL     1       4.429   4.446  -0.730  0.00  0.00    -0.100 NA
ATOM     20  S   UNL     1       4.292   6.975  -2.047  0.00  0.00    -0.048 S 
ATOM     21  C   UNL     1       3.273   7.169  -3.417  0.00  0.00    +0.059 A 
ENDBRANCH  13  16
ENDBRANCH  11  13
ENDBRANCH   8  10
BRANCH   9  22
ATOM     22  C   UNL     1       3.719   5.964 -12.073  0.00  0.00    +0.401 C 
ATOM     23  OXT UNL     1       2.428   6.382 -12.418  0.00  0.00    -0.239 OA
ATOM     24  O   UNL     1       4.198   5.069 -12.831  0.00  0.00    -0.239 OA
ENDBRANCH   9  22
BRANCH   1  26
ATOM     25  C   UNL     1       6.606   8.096 -11.440  0.00  0.00    -0.000 C 
ATOM     26  C   UNL     1       6.327   6.865 -11.383  0.00  0.00    -0.002 C 
ENDBRANCH   1  26
TORSDOF 5
ENDMDL
MODEL 4
REMARK VINA RESULT:      -7.5      3.551      8.235
REMARK  Name = 
REMARK  5 active torsions:
REMARK  status: ('A' for Active; 'I' for Inactive)
REMARK    1  A    between atoms: C_2  and  C_3
REMARK    2  A    between atoms: CA_4  and  C_5
REMARK    3  A    between atoms: CA_11  and  N_12
REMARK    4  A    between atoms: C_13  and  C_15
REMARK    5  A    between atoms: C_15  and  C_18
REMARK                            x       y       z     vdW  Elec       q    Type
REMARK                         _______ _______ _______ _____ _____    ______ ____
ROOT
ATOM      1  C   UNL     1       1.854   5.084  -8.134  0.00  0.00    +0.009 C 
ATOM      2  C   UNL     1       0.700   5.792  -7.489  0.00  0.00    +0.087 C 
ATOM      3  S   UNL     1       1.005   6.008  -5.702  0.00  0.00    -0.114 S 
ATOM      4  C   UNL     1       2.518   4.871  -5.440  0.00  0.00    +0.157 C 
ATOM      5  N   UNL     1       3.374   5.739  -6.355  0.00  0.00    -0.242 N 
ATOM      6  C   UNL     1       3.468   6.847  -5.426  0.00  0.00    +0.253 C 
ATOM      7  O   UNL     1       4.461   7.640  -5.367  0.00  0.00    -0.273 OA
ATOM      8  CA  UNL     1       3.424   5.700  -4.272  0.00  0.00    +0.201 C 
ATOM      9  CA  UNL     1       3.054   5.509  -7.734  0.00  0.00    +0.132 C 
ENDROOT
BRANCH   8  10
ATOM     10  N   UNL     1       2.165   6.308  -3.495  0.00  0.00    -0.190 NA
ATOM     11  C   UNL     1       2.365   6.478  -2.107  0.00  0.00    +0.288 C 
ATOM     12  O   UNL     1       3.395   7.166  -1.829  0.00  0.00    -0.267 OA
BRANCH  11  13
ATOM     13  C   UNL     1       1.677   5.706  -1.063  0.00  0.00    +0.197 C 
ATOM     14  N   UNL     1       2.215   4.553  -0.789  0.00  0.00    -0.023 NA
ATOM     15  O   UNL     1       3.522   4.246  -1.105  0.00  0.00    -0.143 OA
BRANCH  13  16
ATOM     16  C   UNL     1       0.207   5.769  -0.905  0.00  0.00    +0.115 A 
ATOM     17  N   UNL     1      -0.557   5.638  -2.007  0.00  0.00    -0.220 NA
ATOM     18  C   UNL     1      -1.871   5.529  -1.699  0.00  0.00    +0.201 A 
ATOM     19  N   UNL     1      -2.916   4.937  -2.484  0.00  0.00    -0.100 NA
ATOM     20  S   UNL     1      -1.968   6.766  -0.508  0.00  0.00    -0.048 S 
ATOM     21  C   UNL     1      -0.305   6.765  -0.074  0.00  0.00    +0.059 A 
ENDBRANCH  13  16
ENDBRANCH  11  13
ENDBRANCH   8  10
BRANCH   9  22
ATOM     22  C   UNL     1       4.210   5.589  -8.626  0.00  0.00    +0.401 C 
ATOM     23  OXT UNL     1       5.441   5.038  -8.255  0.00  0.00    -0.239 OA
ATOM     24  O   UNL     1       4.296   6.575  -9.417  0.00  0.00    -0.239 OA
ENDBRANCH   9  22
BRANCH   1  26
ATOM     25  C   UNL     1       0.674   5.032 -10.144  0.00  0.00    -0.000 C 
ATOM     26  C   UNL     1       1.683   4.622  -9.502  0.00  0.00    -0.002 C 
ENDBRANCH   1  26
TORSDOF 5
ENDMDL
MODEL 5
REMARK VINA RESULT:      -7.5      2.728      8.078
REMARK  Name = 
REMARK  5 active torsions:
REMARK  status: ('A' for Active; 'I' for Inactive)
REMARK    1  A    between atoms: C_2  and  C_3
REMARK    2  A    between atoms: CA_4  and  C_5
REMARK    3  A    between atoms: CA_11  and  N_12
REMARK    4  A    between atoms: C_13  and  C_15
REMARK    5  A    between atoms: C_15  and  C_18
REMARK                            x       y       z     vdW  Elec       q    Type
REMARK                         _______ _______ _______ _____ _____    ______ ____
ROOT
ATOM      1  C   UNL     1       1.321   5.431 -12.862  0.00  0.00    +0.009 C 
ATOM      2  C   UNL     1       0.435   6.382 -12.114  0.00  0.00    +0.087 C 
ATOM      3  S   UNL     1       0.938   6.479 -10.363  0.00  0.00    -0.114 S 
ATOM      4  C   UNL     1       2.148   5.004 -10.239  0.00  0.00    +0.157 C 
ATOM      5  N   UNL     1       3.105   5.660 -11.227  0.00  0.00    -0.242 N 
ATOM      6  C   UNL     1       3.546   6.692 -10.311  0.00  0.00    +0.253 C 
ATOM      7  O   UNL     1       4.703   7.220 -10.342  0.00  0.00    -0.273 OA
ATOM      8  CA  UNL     1       3.327   5.564  -9.158  0.00  0.00    +0.201 C 
ATOM      9  CA  UNL     1       2.618   5.544 -12.572  0.00  0.00    +0.132 C 
ENDROOT
BRANCH   8  10
ATOM     10  N   UNL     1       2.327   6.440  -8.269  0.00  0.00    -0.190 NA
ATOM     11  C   UNL     1       2.374   6.156  -6.887  0.00  0.00    +0.288 C 
ATOM     12  O   UNL     1       3.542   6.237  -6.397  0.00  0.00    -0.267 OA
BRANCH  11  13
ATOM     13  C   UNL     1       1.287   5.523  -6.127  0.00  0.00    +0.197 C 
ATOM     14  N   UNL     1       1.273   4.223  -6.167  0.00  0.00    -0.023 NA
ATOM     15  O   UNL     1       2.381   3.475  -6.509  0.00  0.00    -0.143 OA
BRANCH  13  16
ATOM     16  C   UNL     1      -0.042   6.164  -6.011  0.00  0.00    +0.115 A 
ATOM     17  N   UNL     1      -0.339   6.811  -4.867  0.00  0.00    -0.220 NA
ATOM     18  C   UNL     1      -1.500   7.501  -4.966  0.00  0.00    +0.201 A 
ATOM     19  N   UNL     1      -1.920   8.636  -4.195  0.00  0.00    -0.100 NA
ATOM     20  S   UNL     1      -2.450   6.311  -5.764  0.00  0.00    -0.048 S 
ATOM     21  C   UNL     1      -1.145   5.436  -6.459  0.00  0.00    +0.059 A 
ENDBRANCH  13  16
ENDBRANCH  11  13
ENDBRANCH   8  10
BRANCH   9  22
ATOM     22  C   UNL     1       3.676   5.362 -13.565  0.00  0.00    +0.401 C 
ATOM     23  OXT UNL     1       4.802   4.582 -13.278  0.00  0.00    -0.239 OA
ATOM     24  O   UNL     1       3.883   6.287 -14.406  0.00  0.00    -0.239 OA
ENDBRANCH   9  22
BRANCH   1  26
ATOM     25  C   UNL     1       0.398   3.917 -14.376  0.00  0.00    -0.000 C 
ATOM     26  C   UNL     1       0.923   5.054 -14.209  0.00  0.00    -0.002 C 
ENDBRANCH   1  26
TORSDOF 5
ENDMDL
MODEL 6
REMARK VINA RESULT:      -7.5      3.075      4.080
REMARK  Name = 
REMARK  5 active torsions:
REMARK  status: ('A' for Active; 'I' for Inactive)
REMARK    1  A    between atoms: C_2  and  C_3
REMARK    2  A    between atoms: CA_4  and  C_5
REMARK    3  A    between atoms: CA_11  and  N_12
REMARK    4  A    between atoms: C_13  and  C_15
REMARK    5  A    between atoms: C_15  and  C_18
REMARK                            x       y       z     vdW  Elec       q    Type
REMARK                         _______ _______ _______ _____ _____    ______ ____
ROOT
ATOM      1  C   UNL     1       3.978   6.452  -1.774  0.00  0.00    +0.009 C 
ATOM      2  C   UNL     1       4.634   7.454  -2.676  0.00  0.00    +0.087 C 
ATOM      3  S   UNL     1       4.325   7.034  -4.425  0.00  0.00    -0.114 S 
ATOM      4  C   UNL     1       3.609   5.269  -4.266  0.00  0.00    +0.157 C 
ATOM      5  N   UNL     1       2.400   5.791  -3.499  0.00  0.00    -0.242 N 
ATOM      6  C   UNL     1       1.789   6.431  -4.647  0.00  0.00    +0.253 C 
ATOM      7  O   UNL     1       0.533   6.577  -4.791  0.00  0.00    -0.273 OA
ATOM      8  CA  UNL     1       2.450   5.212  -5.500  0.00  0.00    +0.201 C 
ATOM      9  CA  UNL     1       2.744   6.105  -2.143  0.00  0.00    +0.132 C 
ENDROOT
BRANCH   8  10
ATOM     10  N   UNL     1       3.251   6.151  -6.517  0.00  0.00    -0.190 NA
ATOM     11  C   UNL     1       2.837   6.039  -7.862  0.00  0.00    +0.288 C 
ATOM     12  O   UNL     1       1.591   6.226  -8.021  0.00  0.00    -0.267 OA
BRANCH  11  13
ATOM     13  C   UNL     1       3.650   5.462  -8.943  0.00  0.00    +0.197 C 
ATOM     14  N   UNL     1       3.595   4.165  -9.038  0.00  0.00    -0.023 NA
ATOM     15  O   UNL     1       2.570   3.420  -8.492  0.00  0.00    -0.143 OA
BRANCH  13  16
ATOM     16  C   UNL     1       4.939   6.069  -9.340  0.00  0.00    +0.115 A 
ATOM     17  N   UNL     1       5.051   6.567 -10.587  0.00  0.00    -0.220 NA
ATOM     18  C   UNL     1       6.207   7.251 -10.754  0.00  0.00    +0.201 A 
ATOM     19  N   UNL     1       6.494   8.278 -11.715  0.00  0.00    -0.100 NA
ATOM     20  S   UNL     1       7.279   6.158  -9.972  0.00  0.00    -0.048 S 
ATOM     21  C   UNL     1       6.104   5.389  -8.982  0.00  0.00    +0.059 A 
ENDBRANCH  13  16
ENDBRANCH  11  13
ENDBRANCH   8  10
BRANCH   9  22
ATOM     22  C   UNL     1       1.677   5.817  -1.185  0.00  0.00    +0.401 C 
ATOM     23  OXT UNL     1       1.516   4.532  -0.657  0.00  0.00    -0.239 OA
ATOM     24  O   UNL     1       0.607   6.493  -1.249  0.00  0.00    -0.239 OA
ENDBRANCH   9  22
BRANCH   1  26
ATOM     25  C   UNL     1       5.222   7.294   0.010  0.00  0.00    -0.000 C 
ATOM     26  C   UNL     1       4.312   6.497  -0.359  0.00  0.00    -0.002 C 
ENDBRANCH   1  26
TORSDOF 5
ENDMDL
MODEL 7
REMARK VINA RESULT:      -7.2      4.016      8.527
REMARK  Name = 
REMARK  5 active torsions:
REMARK  status: ('A' for Active; 'I' for Inactive)
REMARK    1  A    between atoms: C_2  and  C_3
REMARK    2  A    between atoms: CA_4  and  C_5
REMARK    3  A    between atoms: CA_11  and  N_12
REMARK    4  A    between atoms: C_13  and  C_15
REMARK    5  A    between atoms: C_15  and  C_18
REMARK                            x       y       z     vdW  Elec       q    Type
REMARK                         _______ _______ _______ _____ _____    ______ ____
ROOT
ATOM      1  C   UNL     1       3.729   6.183  -8.369  0.00  0.00    +0.009 C 
ATOM      2  C   UNL     1       4.703   5.370  -7.572  0.00  0.00    +0.087 C 
ATOM      3  S   UNL     1       4.331   5.498  -5.790  0.00  0.00    -0.114 S 
ATOM      4  C   UNL     1       3.076   6.939  -5.772  0.00  0.00    +0.157 C 
ATOM      5  N   UNL     1       2.078   6.127  -6.588  0.00  0.00    -0.242 N 
ATOM      6  C   UNL     1       1.745   5.217  -5.511  0.00  0.00    +0.253 C 
ATOM      7  O   UNL     1       0.610   4.655  -5.382  0.00  0.00    -0.273 OA
ATOM      8  CA  UNL     1       2.001   6.498  -4.539  0.00  0.00    +0.201 C 
ATOM      9  CA  UNL     1       2.461   6.073  -7.969  0.00  0.00    +0.132 C 
ENDROOT
BRANCH   8  10
ATOM     10  N   UNL     1       3.096   5.780  -3.620  0.00  0.00    -0.190 NA
ATOM     11  C   UNL     1       2.782   5.764  -2.244  0.00  0.00    +0.288 C 
ATOM     12  O   UNL     1       1.642   5.264  -1.995  0.00  0.00    -0.267 OA
BRANCH  11  13
ATOM     13  C   UNL     1       3.510   6.515  -1.211  0.00  0.00    +0.197 C 
ATOM     14  N   UNL     1       4.167   5.781  -0.360  0.00  0.00    -0.023 NA
ATOM     15  O   UNL     1       4.521   4.474  -0.620  0.00  0.00    -0.143 OA
BRANCH  13  16
ATOM     16  C   UNL     1       2.979   7.786  -0.670  0.00  0.00    +0.115 A 
ATOM     17  N   UNL     1       3.809   8.845  -0.605  0.00  0.00    -0.220 NA
ATOM     18  C   UNL     1       3.151   9.980  -0.268  0.00  0.00    +0.201 A 
ATOM     19  N   UNL     1       3.537  11.336  -0.533  0.00  0.00    -0.100 NA
ATOM     20  S   UNL     1       2.166   9.352   0.994  0.00  0.00    -0.048 S 
ATOM     21  C   UNL     1       2.193   7.712   0.481  0.00  0.00    +0.059 A 
ENDBRANCH  13  16
ENDBRANCH  11  13
ENDBRANCH   8  10
BRANCH   9  22
ATOM     22  C   UNL     1       1.328   6.085  -8.893  0.00  0.00    +0.401 C 
ATOM     23  OXT UNL     1       0.972   7.255  -9.574  0.00  0.00    -0.239 OA
ATOM     24  O   UNL     1       0.365   5.291  -8.681  0.00  0.00    -0.239 OA
ENDBRANCH   9  22
BRANCH   1  26
ATOM     25  C   UNL     1       4.790   5.566 -10.352  0.00  0.00    -0.000 C 
ATOM     26  C   UNL     1       4.014   6.384  -9.781  0.00  0.00    -0.002 C 
ENDBRANCH   1  26
TORSDOF 5
ENDMDL
MODEL 8
REMARK VINA RESULT:      -7.0      3.291      8.153
REMARK  Name = 
REMARK  5 active torsions:
REMARK  status: ('A' for Active; 'I' for Inactive)
REMARK    1  A    between atoms: C_2  and  C_3
REMARK    2  A    between atoms: CA_4  and  C_5
REMARK    3  A    between atoms: CA_11  and  N_12
REMARK    4  A    between atoms: C_13  and  C_15
REMARK    5  A    between atoms: C_15  and  C_18
REMARK                            x       y       z     vdW  Elec       q    Type
REMARK                         _______ _______ _______ _____ _____    ______ ____
ROOT
ATOM      1  C   UNL     1       4.388   5.906 -12.285  0.00  0.00    +0.009 C 
ATOM      2  C   UNL     1       4.887   5.070 -11.144  0.00  0.00    +0.087 C 
ATOM      3  S   UNL     1       3.709   5.125  -9.752  0.00  0.00    -0.114 S 
ATOM      4  C   UNL     1       2.559   6.554 -10.290  0.00  0.00    +0.157 C 
ATOM      5  N   UNL     1       2.090   5.766 -11.506  0.00  0.00    -0.242 N 
ATOM      6  C   UNL     1       1.309   4.811 -10.746  0.00  0.00    +0.253 C 
ATOM      7  O   UNL     1       0.265   4.236 -11.191  0.00  0.00    -0.273 OA
ATOM      8  CA  UNL     1       1.039   6.055  -9.731  0.00  0.00    +0.201 C 
ATOM      9  CA  UNL     1       3.085   5.769 -12.540  0.00  0.00    +0.132 C 
ENDROOT
BRANCH   8  10
ATOM     10  N   UNL     1       1.584   5.311  -8.424  0.00  0.00    -0.190 NA
ATOM     11  C   UNL     1       1.135   5.868  -7.207  0.00  0.00    +0.288 C 
ATOM     12  O   UNL     1      -0.129   5.961  -7.134  0.00  0.00    -0.267 OA
BRANCH  11  13
ATOM     13  C   UNL     1       1.993   6.570  -6.242  0.00  0.00    +0.197 C 
ATOM     14  N   UNL     1       2.541   7.662  -6.687  0.00  0.00    -0.023 NA
ATOM     15  O   UNL     1       2.056   8.348  -7.781  0.00  0.00    -0.143 OA
BRANCH  13  16
ATOM     16  C   UNL     1       2.793   5.824  -5.244  0.00  0.00    +0.115 A 
ATOM     17  N   UNL     1       2.803   6.273  -3.974  0.00  0.00    -0.220 NA
ATOM     18  C   UNL     1       3.416   5.401  -3.137  0.00  0.00    +0.201 A 
ATOM     19  N   UNL     1       3.243   5.269  -1.719  0.00  0.00    -0.100 NA
ATOM     20  S   UNL     1       4.777   5.009  -4.112  0.00  0.00    -0.048 S 
ATOM     21  C   UNL     1       4.071   5.414  -5.626  0.00  0.00    +0.059 A 
ENDBRANCH  13  16
ENDBRANCH  11  13
ENDBRANCH   8  10
BRANCH   9  22
ATOM     22  C   UNL     1       2.528   5.809 -13.891  0.00  0.00    +0.401 C 
ATOM     23  OXT UNL     1       1.658   6.834 -14.277  0.00  0.00    -0.239 OA
ATOM     24  O   UNL     1       2.352   4.715 -14.506  0.00  0.00    -0.239 OA
ENDBRANCH   9  22
BRANCH   1  26
ATOM     25  C   UNL     1       6.276   5.372 -13.545  0.00  0.00    -0.000 C 
ATOM     26  C   UNL     1       5.304   6.165 -13.384  0.00  0.00    -0.002 C 
ENDBRANCH   1  26
TORSDOF 5
ENDMDL
MODEL 9
REMARK VINA RESULT:      -7.0      3.383      8.834
REMARK  Name = 
REMARK  5 active torsions:
REMARK  status: ('A' for Active; 'I' for Inactive)
REMARK    1  A    between atoms: C_2  and  C_3
REMARK    2  A    between atoms: CA_4  and  C_5
REMARK    3  A    between atoms: CA_11  and  N_12
REMARK    4  A    between atoms: C_13  and  C_15
REMARK    5  A    between atoms: C_15  and  C_18
REMARK                            x       y       z     vdW  Elec       q    Type
REMARK                         _______ _______ _______ _____ _____    ______ ____
ROOT
ATOM      1  C   UNL     1       3.794   6.038  -8.026  0.00  0.00    +0.009 C 
ATOM      2  C   UNL     1       4.453   5.186  -6.984  0.00  0.00    +0.087 C 
ATOM      3  S   UNL     1       3.559   5.312  -5.398  0.00  0.00    -0.114 S 
ATOM      4  C   UNL     1       2.402   6.796  -5.738  0.00  0.00    +0.157 C 
ATOM      5  N   UNL     1       1.677   6.024  -6.833  0.00  0.00    -0.242 N 
ATOM      6  C   UNL     1       1.003   5.118  -5.926  0.00  0.00    +0.253 C 
ATOM      7  O   UNL     1      -0.133   4.595  -6.159  0.00  0.00    -0.273 OA
ATOM      8  CA  UNL     1       0.989   6.382  -4.899  0.00  0.00    +0.201 C 
ATOM      9  CA  UNL     1       2.462   5.968  -8.033  0.00  0.00    +0.132 C 
ENDROOT
BRANCH   8  10
ATOM     10  N   UNL     1       1.730   5.620  -3.704  0.00  0.00    -0.190 NA
ATOM     11  C   UNL     1       0.914   5.369  -2.579  0.00  0.00    +0.288 C 
ATOM     12  O   UNL     1      -0.157   4.750  -2.864  0.00  0.00    -0.267 OA
BRANCH  11  13
ATOM     13  C   UNL     1       1.081   6.008  -1.266  0.00  0.00    +0.197 C 
ATOM     14  N   UNL     1       1.794   5.331  -0.413  0.00  0.00    -0.023 NA
ATOM     15  O   UNL     1       2.669   4.336  -0.796  0.00  0.00    -0.143 OA
BRANCH  13  16
ATOM     16  C   UNL     1       0.006   6.835  -0.673  0.00  0.00    +0.115 A 
ATOM     17  N   UNL     1       0.340   7.719   0.288  0.00  0.00    -0.220 NA
ATOM     18  C   UNL     1      -0.695   8.530   0.607  0.00  0.00    +0.201 A 
ATOM     19  N   UNL     1      -0.643   9.836   1.200  0.00  0.00    -0.100 NA
ATOM     20  S   UNL     1      -1.948   7.354   0.667  0.00  0.00    -0.048 S 
ATOM     21  C   UNL     1      -1.190   6.193  -0.350  0.00  0.00    +0.059 A 
ENDBRANCH  13  16
ENDBRANCH  11  13
ENDBRANCH   8  10
BRANCH   9  22
ATOM     22  C   UNL     1       1.666   6.027  -9.258  0.00  0.00    +0.401 C 
ATOM     23  OXT UNL     1       0.984   7.195  -9.614  0.00  0.00    -0.239 OA
ATOM     24  O   UNL     1       1.132   4.960  -9.685  0.00  0.00    -0.239 OA
ENDBRANCH   9  22
BRANCH   1  26
ATOM     25  C   UNL     1       5.645   5.717  -9.406  0.00  0.00    -0.000 C 
ATOM     26  C   UNL     1       4.502   6.240  -9.280  0.00  0.00    -0.002 C 
ENDBRANCH   1  26
TORSDOF 5
ENDMDL
