MODEL 1
REMARK VINA RESULT:      -4.1      0.000      0.000
REMARK  Name = 
REMARK  0 active torsions:
REMARK  status: ('A' for Active; 'I' for Inactive)
REMARK                            x       y       z     vdW  Elec       q    Type
REMARK                         _______ _______ _______ _____ _____    ______ ____
ROOT
ATOM      1  C   UNL     1       6.519   7.853 -11.554  0.00  0.00    +0.034 C 
ATOM      2  C   UNL     1       7.245   6.698 -12.171  0.00  0.00    +0.020 A 
ATOM      3  C   UNL     1       7.427   5.466 -11.552  0.00  0.00    +0.119 A 
ATOM      4  N   UNL     1       7.874   4.626 -12.516  0.00  0.00    -0.147 NA
ATOM      5  N   UNL     1       7.232   5.032 -13.605  0.00  0.00    -0.147 NA
ATOM      6  C   UNL     1       7.147   6.381 -13.520  0.00  0.00    +0.119 A 
ENDROOT
TORSDOF 0
ENDMDL
MODEL 2
REMARK VINA RESULT:      -3.9     13.091     13.687
REMARK  Name = 
REMARK  0 active torsions:
REMARK  status: ('A' for Active; 'I' for Inactive)
REMARK                            x       y       z     vdW  Elec       q    Type
REMARK                         _______ _______ _______ _____ _____    ______ ____
ROOT
ATOM      1  C   UNL     1      -1.999   7.969  -4.169  0.00  0.00    +0.034 C 
ATOM      2  C   UNL     1      -2.595   6.788  -3.466  0.00  0.00    +0.020 A 
ATOM      3  C   UNL     1      -2.527   5.481  -3.933  0.00  0.00    +0.119 A 
ATOM      4  N   UNL     1      -2.929   4.695  -2.906  0.00  0.00    -0.147 NA
ATOM      5  N   UNL     1      -2.462   5.322  -1.833  0.00  0.00    -0.147 NA
ATOM      6  C   UNL     1      -2.577   6.648  -2.083  0.00  0.00    +0.119 A 
ENDROOT
TORSDOF 0
ENDMDL
MODEL 3
REMARK VINA RESULT:      -3.2     12.651     13.212
REMARK  Name = 
REMARK  0 active torsions:
REMARK  status: ('A' for Active; 'I' for Inactive)
REMARK                            x       y       z     vdW  Elec       q    Type
REMARK                         _______ _______ _______ _____ _____    ______ ____
ROOT
ATOM      1  C   UNL     1       0.083   5.837  -4.195  0.00  0.00    +0.034 C 
ATOM      2  C   UNL     1      -1.260   5.849  -3.532  0.00  0.00    +0.020 A 
ATOM      3  C   UNL     1      -2.430   5.386  -4.123  0.00  0.00    +0.119 A 
ATOM      4  N   UNL     1      -3.347   5.312  -3.129  0.00  0.00    -0.147 NA
ATOM      5  N   UNL     1      -2.632   4.943  -2.073  0.00  0.00    -0.147 NA
ATOM      6  C   UNL     1      -1.435   5.568  -2.182  0.00  0.00    +0.119 A 
ENDROOT
TORSDOF 0
ENDMDL
MODEL 4
REMARK VINA RESULT:      -3.2      1.662      2.295
REMARK  Name = 
REMARK  0 active torsions:
REMARK  status: ('A' for Active; 'I' for Inactive)
REMARK                            x       y       z     vdW  Elec       q    Type
REMARK                         _______ _______ _______ _____ _____    ______ ____
ROOT
ATOM      1  C   UNL     1       6.440   7.548 -15.303  0.00  0.00    +0.034 C 
ATOM      2  C   UNL     1       6.472   6.642 -14.110  0.00  0.00    +0.020 A 
ATOM      3  C   UNL     1       5.518   5.667 -13.841  0.00  0.00    +0.119 A 
ATOM      4  N   UNL     1       6.037   4.899 -12.853  0.00  0.00    -0.147 NA
ATOM      5  N   UNL     1       7.336   4.876 -13.126  0.00  0.00    -0.147 NA
ATOM      6  C   UNL     1       7.649   6.104 -13.605  0.00  0.00    +0.119 A 
ENDROOT
TORSDOF 0
ENDMDL
MODEL 5
REMARK VINA RESULT:      -3.0     11.731     12.217
REMARK  Name = 
REMARK  0 active torsions:
REMARK  status: ('A' for Active; 'I' for Inactive)
REMARK                            x       y       z     vdW  Elec       q    Type
REMARK                         _______ _______ _______ _____ _____    ______ ____
ROOT
ATOM      1  C   UNL     1      -1.950   5.436  -6.558  0.00  0.00    +0.034 C 
ATOM      2  C   UNL     1      -2.110   6.148  -5.250  0.00  0.00    +0.020 A 
ATOM      3  C   UNL     1      -1.248   6.004  -4.169  0.00  0.00    +0.119 A 
ATOM      4  N   UNL     1      -1.566   6.995  -3.302  0.00  0.00    -0.147 NA
ATOM      5  N   UNL     1      -1.899   8.006  -4.095  0.00  0.00    -0.147 NA
ATOM      6  C   UNL     1      -2.541   7.465  -5.158  0.00  0.00    +0.119 A 
ENDROOT
TORSDOF 0
ENDMDL
MODEL 6
REMARK VINA RESULT:      -2.9     11.844     12.413
REMARK  Name = 
REMARK  0 active torsions:
REMARK  status: ('A' for Active; 'I' for Inactive)
REMARK                            x       y       z     vdW  Elec       q    Type
REMARK                         _______ _______ _______ _____ _____    ______ ____
ROOT
ATOM      1  C   UNL     1      -3.097   5.228  -3.397  0.00  0.00    +0.034 C 
ATOM      2  C   UNL     1      -2.486   6.320  -4.220  0.00  0.00    +0.020 A 
ATOM      3  C   UNL     1      -2.168   7.583  -3.734  0.00  0.00    +0.119 A 
ATOM      4  N   UNL     1      -1.403   8.169  -4.686  0.00  0.00    -0.147 NA
ATOM      5  N   UNL     1      -0.695   7.160  -5.180  0.00  0.00    -0.147 NA
ATOM      6  C   UNL     1      -1.516   6.083  -5.187  0.00  0.00    +0.119 A 
ENDROOT
TORSDOF 0
ENDMDL
MODEL 7
REMARK VINA RESULT:      -2.9      1.890      1.953
REMARK  Name = 
REMARK  0 active torsions:
REMARK  status: ('A' for Active; 'I' for Inactive)
REMARK                            x       y       z     vdW  Elec       q    Type
REMARK                         _______ _______ _______ _____ _____    ______ ____
ROOT
ATOM      1  C   UNL     1       4.948   6.049 -10.215  0.00  0.00    +0.034 C 
ATOM      2  C   UNL     1       5.559   5.887 -11.573  0.00  0.00    +0.020 A 
ATOM      3  C   UNL     1       6.815   5.337 -11.807  0.00  0.00    +0.119 A 
ATOM      4  N   UNL     1       6.884   5.117 -13.142  0.00  0.00    -0.147 NA
ATOM      5  N   UNL     1       5.644   4.769 -13.465  0.00  0.00    -0.147 NA
ATOM      6  C   UNL     1       4.822   5.519 -12.692  0.00  0.00    +0.119 A 
ENDROOT
TORSDOF 0
ENDMDL
MODEL 8
REMARK VINA RESULT:      -2.9      1.585      2.212
REMARK  Name = 
REMARK  0 active torsions:
REMARK  status: ('A' for Active; 'I' for Inactive)
REMARK                            x       y       z     vdW  Elec       q    Type
REMARK                         _______ _______ _______ _____ _____    ______ ____
ROOT
ATOM      1  C   UNL     1       5.182   6.392 -14.363  0.00  0.00    +0.034 C 
ATOM      2  C   UNL     1       6.061   5.539 -13.501  0.00  0.00    +0.020 A 
ATOM      3  C   UNL     1       7.427   5.370 -13.699  0.00  0.00    +0.119 A 
ATOM      4  N   UNL     1       7.895   4.768 -12.579  0.00  0.00    -0.147 NA
ATOM      5  N   UNL     1       7.156   5.295 -11.611  0.00  0.00    -0.147 NA
ATOM      6  C   UNL     1       5.912   5.459 -12.122  0.00  0.00    +0.119 A 
ENDROOT
TORSDOF 0
ENDMDL
MODEL 9
REMARK VINA RESULT:      -2.9      3.194      3.699
REMARK  Name = 
REMARK  0 active torsions:
REMARK  status: ('A' for Active; 'I' for Inactive)
REMARK                            x       y       z     vdW  Elec       q    Type
REMARK                         _______ _______ _______ _____ _____    ______ ____
ROOT
ATOM      1  C   UNL     1       6.224   7.808 -11.243  0.00  0.00    +0.034 C 
ATOM      2  C   UNL     1       5.133   6.960 -10.665  0.00  0.00    +0.020 A 
ATOM      3  C   UNL     1       4.034   6.501 -11.382  0.00  0.00    +0.119 A 
ATOM      4  N   UNL     1       3.442   5.565 -10.601  0.00  0.00    -0.147 NA
ATOM      5  N   UNL     1       4.464   4.976  -9.993  0.00  0.00    -0.147 NA
ATOM      6  C   UNL     1       5.374   5.948  -9.744  0.00  0.00    +0.119 A 
ENDROOT
TORSDOF 0
ENDMDL
