MODEL 1
REMARK VINA RESULT:      -9.6      0.000      0.000
REMARK  Name = 
REMARK  5 active torsions:
REMARK  status: ('A' for Active; 'I' for Inactive)
REMARK    1  A    between atoms: O_2  and  C_3
REMARK    2  A    between atoms: N_5  and  C_7
REMARK    3  A    between atoms: C_11  and  C_12
REMARK    4  A    between atoms: N_14  and  C_15
REMARK    5  A    between atoms: C_15  and  C_16
REMARK                            x       y       z     vdW  Elec       q    Type
REMARK                         _______ _______ _______ _____ _____    ______ ____
ROOT
ATOM      1  C   UNL     1       1.839   5.921  -8.151  0.00  0.00    +0.140 A 
ATOM      2  C   UNL     1       1.176   6.128  -9.353  0.00  0.00    +0.058 A 
ATOM      3  C   UNL     1       2.043   5.717 -10.359  0.00  0.00    +0.161 A 
ATOM      4  N   UNL     1       1.587   5.734 -11.635  0.00  0.00    -0.225 NA
ATOM      5  C   UNL     1       0.623   6.643 -11.918  0.00  0.00    +0.101 A 
ATOM      6  C   UNL     1      -0.409   6.728 -10.991  0.00  0.00    +0.021 A 
ATOM      7  N   UNL     1       3.115   5.144  -9.760  0.00  0.00    -0.229 N 
ATOM      8  C   UNL     1      -0.150   6.323  -9.687  0.00  0.00    +0.006 A 
ATOM      9  N   UNL     1       3.075   5.518  -8.497  0.00  0.00    -0.165 NA
ENDROOT
BRANCH   1  14
ATOM     10  C   UNL     1      -0.367   6.705  -4.766  0.00  0.00    +0.127 A 
ATOM     11  C   UNL     1      -0.978   6.159  -5.887  0.00  0.00    +0.188 A 
ATOM     12  N   UNL     1      -2.376   6.329  -6.036  0.00  0.00    -0.106 NA
ATOM     13  N   UNL     1      -0.204   5.616  -6.856  0.00  0.00    -0.206 NA
ATOM     14  C   UNL     1       1.138   5.804  -6.881  0.00  0.00    +0.185 A 
ATOM     15  N   UNL     1       1.724   6.068  -5.692  0.00  0.00    -0.206 NA
ATOM     16  C   UNL     1       1.000   6.544  -4.649  0.00  0.00    +0.188 A 
ATOM     17  N   UNL     1       1.614   7.020  -3.451  0.00  0.00    -0.106 NA
BRANCH  10  19
ATOM     18  C   UNL     1      -1.440   5.452  -2.957  0.00  0.00    +0.409 C 
ATOM     19  N   UNL     1      -1.163   6.714  -3.574  0.00  0.00    -0.218 N 
ATOM     20  C   UNL     1      -2.035   7.866  -3.398  0.00  0.00    +0.124 C 
ATOM     21  O   UNL     1      -2.389   4.711  -3.310  0.00  0.00    -0.226 OA
BRANCH  18  23
ATOM     22  C   UNL     1      -0.149   5.629  -0.868  0.00  0.00    +0.257 C 
ATOM     23  O   UNL     1      -0.554   4.903  -2.025  0.00  0.00    -0.430 OA
ENDBRANCH  18  23
ENDBRANCH  10  19
ENDBRANCH   1  14
BRANCH   7  24
ATOM     24  C   UNL     1       4.303   4.781 -10.528  0.00  0.00    +0.158 C 
BRANCH  24  25
ATOM     25  C   UNL     1       5.285   5.904 -10.430  0.00  0.00    +0.030 A 
ATOM     26  C   UNL     1       6.400   5.679  -9.630  0.00  0.00    +0.138 A 
ATOM     27  F   UNL     1       6.271   4.995  -8.460  0.00  0.00    -0.204 F 
ATOM     28  C   UNL     1       7.493   6.495  -9.895  0.00  0.00    +0.029 A 
ATOM     29  C   UNL     1       7.391   7.563 -10.776  0.00  0.00    +0.002 A 
ATOM     30  C   UNL     1       6.132   8.003 -11.163  0.00  0.00    -0.000 A 
ATOM     31  C   UNL     1       5.058   7.131 -11.042  0.00  0.00    -0.000 A 
ENDBRANCH  24  25
ENDBRANCH   7  24
TORSDOF 5
ENDMDL
MODEL 2
REMARK VINA RESULT:      -9.4      2.278      3.287
REMARK  Name = 
REMARK  5 active torsions:
REMARK  status: ('A' for Active; 'I' for Inactive)
REMARK    1  A    between atoms: O_2  and  C_3
REMARK    2  A    between atoms: N_5  and  C_7
REMARK    3  A    between atoms: C_11  and  C_12
REMARK    4  A    between atoms: N_14  and  C_15
REMARK    5  A    between atoms: C_15  and  C_16
REMARK                            x       y       z     vdW  Elec       q    Type
REMARK                         _______ _______ _______ _____ _____    ______ ____
ROOT
ATOM      1  C   UNL     1       2.766   6.785  -9.503  0.00  0.00    +0.140 A 
ATOM      2  C   UNL     1       1.775   6.762 -10.476  0.00  0.00    +0.058 A 
ATOM      3  C   UNL     1       2.423   6.636 -11.698  0.00  0.00    +0.161 A 
ATOM      4  N   UNL     1       1.660   6.497 -12.809  0.00  0.00    -0.225 NA
ATOM      5  C   UNL     1       0.426   7.055 -12.765  0.00  0.00    +0.101 A 
ATOM      6  C   UNL     1      -0.295   6.821 -11.601  0.00  0.00    +0.021 A 
ATOM      7  N   UNL     1       3.739   6.433 -11.439  0.00  0.00    -0.229 N 
ATOM      8  C   UNL     1       0.414   6.529 -10.442  0.00  0.00    +0.006 A 
ATOM      9  N   UNL     1       3.925   6.786 -10.184  0.00  0.00    -0.165 NA
ENDROOT
BRANCH   1  14
ATOM     10  C   UNL     1       3.097   5.475  -5.615  0.00  0.00    +0.127 A 
ATOM     11  C   UNL     1       3.353   6.803  -5.928  0.00  0.00    +0.188 A 
ATOM     12  N   UNL     1       4.171   7.551  -5.048  0.00  0.00    -0.106 NA
ATOM     13  N   UNL     1       2.937   7.286  -7.123  0.00  0.00    -0.206 NA
ATOM     14  C   UNL     1       2.500   6.464  -8.109  0.00  0.00    +0.185 A 
ATOM     15  N   UNL     1       2.001   5.272  -7.711  0.00  0.00    -0.206 NA
ATOM     16  C   UNL     1       2.312   4.756  -6.496  0.00  0.00    +0.188 A 
ATOM     17  N   UNL     1       1.968   3.420  -6.127  0.00  0.00    -0.106 NA
BRANCH  10  19
ATOM     18  C   UNL     1       1.914   5.755  -3.490  0.00  0.00    +0.409 C 
ATOM     19  N   UNL     1       3.006   5.180  -4.215  0.00  0.00    -0.218 N 
ATOM     20  C   UNL     1       4.248   4.796  -3.562  0.00  0.00    +0.124 C 
ATOM     21  O   UNL     1       1.947   6.914  -3.009  0.00  0.00    -0.226 OA
BRANCH  18  23
ATOM     22  C   UNL     1      -0.456   5.586  -4.137  0.00  0.00    +0.257 C 
ATOM     23  O   UNL     1       0.678   5.104  -3.422  0.00  0.00    -0.430 OA
ENDBRANCH  18  23
ENDBRANCH  10  19
ENDBRANCH   1  14
BRANCH   7  24
ATOM     24  C   UNL     1       4.730   6.454 -12.513  0.00  0.00    +0.158 C 
BRANCH  24  25
ATOM     25  C   UNL     1       6.089   6.380 -11.895  0.00  0.00    +0.030 A 
ATOM     26  C   UNL     1       6.549   7.538 -11.278  0.00  0.00    +0.138 A 
ATOM     27  F   UNL     1       6.295   8.753 -11.837  0.00  0.00    -0.204 F 
ATOM     28  C   UNL     1       7.558   7.349 -10.342  0.00  0.00    +0.029 A 
ATOM     29  C   UNL     1       8.163   6.109 -10.183  0.00  0.00    +0.002 A 
ATOM     30  C   UNL     1       7.978   5.136 -11.157  0.00  0.00    -0.000 A 
ATOM     31  C   UNL     1       6.879   5.242 -12.000  0.00  0.00    -0.000 A 
ENDBRANCH  24  25
ENDBRANCH   7  24
TORSDOF 5
ENDMDL
MODEL 3
REMARK VINA RESULT:      -9.3      2.614      3.846
REMARK  Name = 
REMARK  5 active torsions:
REMARK  status: ('A' for Active; 'I' for Inactive)
REMARK    1  A    between atoms: O_2  and  C_3
REMARK    2  A    between atoms: N_5  and  C_7
REMARK    3  A    between atoms: C_11  and  C_12
REMARK    4  A    between atoms: N_14  and  C_15
REMARK    5  A    between atoms: C_15  and  C_16
REMARK                            x       y       z     vdW  Elec       q    Type
REMARK                         _______ _______ _______ _____ _____    ______ ____
ROOT
ATOM      1  C   UNL     1       3.523   6.109  -5.860  0.00  0.00    +0.140 A 
ATOM      2  C   UNL     1       2.243   5.903  -6.357  0.00  0.00    +0.058 A 
ATOM      3  C   UNL     1       2.394   5.320  -7.609  0.00  0.00    +0.161 A 
ATOM      4  N   UNL     1       1.274   4.934  -8.268  0.00  0.00    -0.225 NA
ATOM      5  C   UNL     1       0.142   5.625  -7.988  0.00  0.00    +0.101 A 
ATOM      6  C   UNL     1      -0.096   5.859  -6.640  0.00  0.00    +0.021 A 
ATOM      7  N   UNL     1       3.712   5.048  -7.772  0.00  0.00    -0.229 N 
ATOM      8  C   UNL     1       0.991   5.862  -5.774  0.00  0.00    +0.006 A 
ATOM      9  N   UNL     1       4.349   5.753  -6.860  0.00  0.00    -0.165 NA
ENDROOT
BRANCH   1  14
ATOM     10  C   UNL     1       3.146   6.790  -1.818  0.00  0.00    +0.127 A 
ATOM     11  C   UNL     1       3.118   5.493  -2.313  0.00  0.00    +0.188 A 
ATOM     12  N   UNL     1       2.491   4.493  -1.531  0.00  0.00    -0.106 NA
ATOM     13  N   UNL     1       3.557   5.263  -3.573  0.00  0.00    -0.206 NA
ATOM     14  C   UNL     1       3.792   6.279  -4.440  0.00  0.00    +0.185 A 
ATOM     15  N   UNL     1       4.088   7.477  -3.886  0.00  0.00    -0.206 NA
ATOM     16  C   UNL     1       3.746   7.755  -2.604  0.00  0.00    +0.188 A 
ATOM     17  N   UNL     1       3.862   9.068  -2.054  0.00  0.00    -0.106 NA
BRANCH  10  19
ATOM     18  C   UNL     1       2.146   7.493   0.304  0.00  0.00    +0.409 C 
ATOM     19  N   UNL     1       3.249   6.903  -0.393  0.00  0.00    -0.218 N 
ATOM     20  C   UNL     1       4.600   6.917   0.149  0.00  0.00    +0.124 C 
ATOM     21  O   UNL     1       2.011   8.732   0.447  0.00  0.00    -0.226 OA
BRANCH  18  23
ATOM     22  C   UNL     1      -0.164   6.695   0.009  0.00  0.00    +0.257 C 
ATOM     23  O   UNL     1       1.067   6.711   0.726  0.00  0.00    -0.430 OA
ENDBRANCH  18  23
ENDBRANCH  10  19
ENDBRANCH   1  14
BRANCH   7  24
ATOM     24  C   UNL     1       4.236   4.609  -9.063  0.00  0.00    +0.158 C 
BRANCH  24  25
ATOM     25  C   UNL     1       5.084   5.707  -9.622  0.00  0.00    +0.030 A 
ATOM     26  C   UNL     1       6.459   5.538  -9.514  0.00  0.00    +0.138 A 
ATOM     27  F   UNL     1       6.990   4.992  -8.386  0.00  0.00    -0.204 F 
ATOM     28  C   UNL     1       7.219   6.287 -10.403  0.00  0.00    +0.029 A 
ATOM     29  C   UNL     1       6.631   7.254 -11.208  0.00  0.00    +0.002 A 
ATOM     30  C   UNL     1       5.344   7.685 -10.917  0.00  0.00    -0.000 A 
ATOM     31  C   UNL     1       4.526   6.864 -10.151  0.00  0.00    -0.000 A 
ENDBRANCH  24  25
ENDBRANCH   7  24
TORSDOF 5
ENDMDL
MODEL 4
REMARK VINA RESULT:      -9.2      3.364      7.811
REMARK  Name = 
REMARK  5 active torsions:
REMARK  status: ('A' for Active; 'I' for Inactive)
REMARK    1  A    between atoms: O_2  and  C_3
REMARK    2  A    between atoms: N_5  and  C_7
REMARK    3  A    between atoms: C_11  and  C_12
REMARK    4  A    between atoms: N_14  and  C_15
REMARK    5  A    between atoms: C_15  and  C_16
REMARK                            x       y       z     vdW  Elec       q    Type
REMARK                         _______ _______ _______ _____ _____    ______ ____
ROOT
ATOM      1  C   UNL     1       0.627   5.275  -4.456  0.00  0.00    +0.140 A 
ATOM      2  C   UNL     1      -0.587   5.510  -3.826  0.00  0.00    +0.058 A 
ATOM      3  C   UNL     1      -0.319   5.593  -2.465  0.00  0.00    +0.161 A 
ATOM      4  N   UNL     1      -1.341   5.914  -1.635  0.00  0.00    -0.225 NA
ATOM      5  C   UNL     1      -2.583   5.563  -2.047  0.00  0.00    +0.101 A 
ATOM      6  C   UNL     1      -2.875   5.851  -3.375  0.00  0.00    +0.021 A 
ATOM      7  N   UNL     1       1.029   5.565  -2.317  0.00  0.00    -0.229 N 
ATOM      8  C   UNL     1      -1.817   5.961  -4.268  0.00  0.00    +0.006 A 
ATOM      9  N   UNL     1       1.515   5.120  -3.458  0.00  0.00    -0.165 NA
ENDROOT
BRANCH   1  14
ATOM     10  C   UNL     1       2.352   6.001  -8.122  0.00  0.00    +0.127 A 
ATOM     11  C   UNL     1       1.942   4.718  -7.785  0.00  0.00    +0.188 A 
ATOM     12  N   UNL     1       2.540   3.626  -8.460  0.00  0.00    -0.106 NA
ATOM     13  N   UNL     1       1.102   4.552  -6.736  0.00  0.00    -0.206 NA
ATOM     14  C   UNL     1       0.845   5.560  -5.866  0.00  0.00    +0.185 A 
ATOM     15  N   UNL     1       1.003   6.815  -6.346  0.00  0.00    -0.206 NA
ATOM     16  C   UNL     1       1.769   7.051  -7.439  0.00  0.00    +0.188 A 
ATOM     17  N   UNL     1       2.118   8.373  -7.852  0.00  0.00    -0.106 NA
BRANCH  10  19
ATOM     18  C   UNL     1       1.668   6.098 -10.471  0.00  0.00    +0.409 C 
ATOM     19  N   UNL     1       2.713   6.190  -9.496  0.00  0.00    -0.218 N 
ATOM     20  C   UNL     1       4.105   5.931  -9.832  0.00  0.00    +0.124 C 
ATOM     21  O   UNL     1       1.284   5.009 -10.961  0.00  0.00    -0.226 OA
BRANCH  18  23
ATOM     22  C   UNL     1      -0.443   7.094 -11.252  0.00  0.00    +0.257 C 
ATOM     23  O   UNL     1       0.905   7.220 -10.809  0.00  0.00    -0.430 OA
ENDBRANCH  18  23
ENDBRANCH  10  19
ENDBRANCH   1  14
BRANCH   7  24
ATOM     24  C   UNL     1       1.639   5.438  -0.996  0.00  0.00    +0.158 C 
BRANCH  24  25
ATOM     25  C   UNL     1       2.472   6.655  -0.746  0.00  0.00    +0.030 A 
ATOM     26  C   UNL     1       3.671   6.733  -1.445  0.00  0.00    +0.138 A 
ATOM     27  F   UNL     1       4.424   5.615  -1.631  0.00  0.00    -0.204 F 
ATOM     28  C   UNL     1       4.199   8.012  -1.572  0.00  0.00    +0.029 A 
ATOM     29  C   UNL     1       3.642   9.087  -0.892  0.00  0.00    +0.002 A 
ATOM     30  C   UNL     1       2.751   8.843   0.145  0.00  0.00    -0.000 A 
ATOM     31  C   UNL     1       2.103   7.615   0.188  0.00  0.00    -0.000 A 
ENDBRANCH  24  25
ENDBRANCH   7  24
TORSDOF 5
ENDMDL
MODEL 5
REMARK VINA RESULT:      -9.2      4.032      8.283
REMARK  Name = 
REMARK  5 active torsions:
REMARK  status: ('A' for Active; 'I' for Inactive)
REMARK    1  A    between atoms: O_2  and  C_3
REMARK    2  A    between atoms: N_5  and  C_7
REMARK    3  A    between atoms: C_11  and  C_12
REMARK    4  A    between atoms: N_14  and  C_15
REMARK    5  A    between atoms: C_15  and  C_16
REMARK                            x       y       z     vdW  Elec       q    Type
REMARK                         _______ _______ _______ _____ _____    ______ ____
ROOT
ATOM      1  C   UNL     1       2.853   5.704  -4.033  0.00  0.00    +0.140 A 
ATOM      2  C   UNL     1       1.579   5.679  -3.484  0.00  0.00    +0.058 A 
ATOM      3  C   UNL     1       1.713   6.051  -2.152  0.00  0.00    +0.161 A 
ATOM      4  N   UNL     1       0.585   6.193  -1.415  0.00  0.00    -0.225 NA
ATOM      5  C   UNL     1      -0.478   5.441  -1.791  0.00  0.00    +0.101 A 
ATOM      6  C   UNL     1      -0.741   5.417  -3.155  0.00  0.00    +0.021 A 
ATOM      7  N   UNL     1       3.001   6.434  -1.968  0.00  0.00    -0.229 N 
ATOM      8  C   UNL     1       0.308   5.682  -4.028  0.00  0.00    +0.006 A 
ATOM      9  N   UNL     1       3.674   5.970  -3.001  0.00  0.00    -0.165 NA
ENDROOT
BRANCH   1  14
ATOM     10  C   UNL     1       2.356   6.034  -8.106  0.00  0.00    +0.127 A 
ATOM     11  C   UNL     1       2.578   7.168  -7.335  0.00  0.00    +0.188 A 
ATOM     12  N   UNL     1       2.155   8.418  -7.848  0.00  0.00    -0.106 NA
ATOM     13  N   UNL     1       3.052   7.021  -6.075  0.00  0.00    -0.206 NA
ATOM     14  C   UNL     1       3.086   5.811  -5.465  0.00  0.00    +0.185 A 
ATOM     15  N   UNL     1       3.146   4.735  -6.282  0.00  0.00    -0.206 NA
ATOM     16  C   UNL     1       2.759   4.822  -7.579  0.00  0.00    +0.188 A 
ATOM     17  N   UNL     1       2.620   3.669  -8.410  0.00  0.00    -0.106 NA
BRANCH  10  19
ATOM     18  C   UNL     1       1.227   6.097 -10.277  0.00  0.00    +0.409 C 
ATOM     19  N   UNL     1       2.437   6.229  -9.523  0.00  0.00    -0.218 N 
ATOM     20  C   UNL     1       3.746   6.014 -10.123  0.00  0.00    +0.124 C 
ATOM     21  O   UNL     1       0.791   4.993 -10.685  0.00  0.00    -0.226 OA
BRANCH  18  23
ATOM     22  C   UNL     1      -0.305   7.406 -11.692  0.00  0.00    +0.257 C 
ATOM     23  O   UNL     1       0.376   7.191 -10.459  0.00  0.00    -0.430 OA
ENDBRANCH  18  23
ENDBRANCH  10  19
ENDBRANCH   1  14
BRANCH   7  24
ATOM     24  C   UNL     1       3.524   6.699  -0.630  0.00  0.00    +0.158 C 
BRANCH  24  25
ATOM     25  C   UNL     1       3.248   8.130  -0.295  0.00  0.00    +0.030 A 
ATOM     26  C   UNL     1       2.563   8.364   0.892  0.00  0.00    +0.138 A 
ATOM     27  F   UNL     1       1.549   7.536   1.266  0.00  0.00    -0.204 F 
ATOM     28  C   UNL     1       2.710   9.641   1.418  0.00  0.00    +0.029 A 
ATOM     29  C   UNL     1       3.354  10.641   0.700  0.00  0.00    +0.002 A 
ATOM     30  C   UNL     1       3.586  10.457  -0.657  0.00  0.00    -0.000 A 
ATOM     31  C   UNL     1       3.591   9.163  -1.160  0.00  0.00    -0.000 A 
ENDBRANCH  24  25
ENDBRANCH   7  24
TORSDOF 5
ENDMDL
MODEL 6
REMARK VINA RESULT:      -9.1      2.280      2.970
REMARK  Name = 
REMARK  5 active torsions:
REMARK  status: ('A' for Active; 'I' for Inactive)
REMARK    1  A    between atoms: O_2  and  C_3
REMARK    2  A    between atoms: N_5  and  C_7
REMARK    3  A    between atoms: C_11  and  C_12
REMARK    4  A    between atoms: N_14  and  C_15
REMARK    5  A    between atoms: C_15  and  C_16
REMARK                            x       y       z     vdW  Elec       q    Type
REMARK                         _______ _______ _______ _____ _____    ______ ____
ROOT
ATOM      1  C   UNL     1       3.093   5.885  -6.894  0.00  0.00    +0.140 A 
ATOM      2  C   UNL     1       1.910   5.679  -7.590  0.00  0.00    +0.058 A 
ATOM      3  C   UNL     1       2.268   5.296  -8.877  0.00  0.00    +0.161 A 
ATOM      4  N   UNL     1       1.279   4.944  -9.733  0.00  0.00    -0.225 NA
ATOM      5  C   UNL     1       0.069   5.518  -9.523  0.00  0.00    +0.101 A 
ATOM      6  C   UNL     1      -0.362   5.536  -8.203  0.00  0.00    +0.021 A 
ATOM      7  N   UNL     1       3.614   5.131  -8.889  0.00  0.00    -0.229 N 
ATOM      8  C   UNL     1       0.599   5.477  -7.201  0.00  0.00    +0.006 A 
ATOM      9  N   UNL     1       4.068   5.731  -7.807  0.00  0.00    -0.165 NA
ENDROOT
BRANCH   1  14
ATOM     10  C   UNL     1       2.425   6.583  -2.893  0.00  0.00    +0.127 A 
ATOM     11  C   UNL     1       1.820   5.504  -3.524  0.00  0.00    +0.188 A 
ATOM     12  N   UNL     1       0.643   4.968  -2.949  0.00  0.00    -0.106 NA
ATOM     13  N   UNL     1       2.289   5.103  -4.729  0.00  0.00    -0.206 NA
ATOM     14  C   UNL     1       3.160   5.860  -5.440  0.00  0.00    +0.185 A 
ATOM     15  N   UNL     1       3.929   6.713  -4.726  0.00  0.00    -0.206 NA
ATOM     16  C   UNL     1       3.563   7.103  -3.480  0.00  0.00    +0.188 A 
ATOM     17  N   UNL     1       4.240   8.148  -2.781  0.00  0.00    -0.106 NA
BRANCH  10  19
ATOM     18  C   UNL     1       3.044   5.592  -0.741  0.00  0.00    +0.409 C 
ATOM     19  N   UNL     1       2.323   6.596  -1.463  0.00  0.00    -0.218 N 
ATOM     20  C   UNL     1       1.137   7.239  -0.915  0.00  0.00    +0.124 C 
ATOM     21  O   UNL     1       2.590   4.441  -0.533  0.00  0.00    -0.226 OA
BRANCH  18  23
ATOM     22  C   UNL     1       4.753   6.894   0.461  0.00  0.00    +0.257 C 
ATOM     23  O   UNL     1       4.375   5.798  -0.366  0.00  0.00    -0.430 OA
ENDBRANCH  18  23
ENDBRANCH  10  19
ENDBRANCH   1  14
BRANCH   7  24
ATOM     24  C   UNL     1       4.336   4.919 -10.141  0.00  0.00    +0.158 C 
BRANCH  24  25
ATOM     25  C   UNL     1       5.352   6.006 -10.285  0.00  0.00    +0.030 A 
ATOM     26  C   UNL     1       6.638   5.708  -9.848  0.00  0.00    +0.138 A 
ATOM     27  F   UNL     1       6.818   4.972  -8.717  0.00  0.00    -0.204 F 
ATOM     28  C   UNL     1       7.644   6.502 -10.383  0.00  0.00    +0.029 A 
ATOM     29  C   UNL     1       7.341   7.615 -11.157  0.00  0.00    +0.002 A 
ATOM     30  C   UNL     1       6.044   8.111 -11.150  0.00  0.00    -0.000 A 
ATOM     31  C   UNL     1       5.013   7.267 -10.759  0.00  0.00    -0.000 A 
ENDBRANCH  24  25
ENDBRANCH   7  24
TORSDOF 5
ENDMDL
MODEL 7
REMARK VINA RESULT:      -9.1      3.610      8.753
REMARK  Name = 
REMARK  5 active torsions:
REMARK  status: ('A' for Active; 'I' for Inactive)
REMARK    1  A    between atoms: O_2  and  C_3
REMARK    2  A    between atoms: N_5  and  C_7
REMARK    3  A    between atoms: C_11  and  C_12
REMARK    4  A    between atoms: N_14  and  C_15
REMARK    5  A    between atoms: C_15  and  C_16
REMARK                            x       y       z     vdW  Elec       q    Type
REMARK                         _______ _______ _______ _____ _____    ______ ____
ROOT
ATOM      1  C   UNL     1       2.144   6.383  -3.863  0.00  0.00    +0.140 A 
ATOM      2  C   UNL     1       2.995   6.562  -2.781  0.00  0.00    +0.058 A 
ATOM      3  C   UNL     1       2.270   6.217  -1.646  0.00  0.00    +0.161 A 
ATOM      4  N   UNL     1       2.918   6.219  -0.456  0.00  0.00    -0.225 NA
ATOM      5  C   UNL     1       3.966   7.071  -0.342  0.00  0.00    +0.101 A 
ATOM      6  C   UNL     1       4.845   7.083  -1.417  0.00  0.00    +0.021 A 
ATOM      7  N   UNL     1       1.087   5.703  -2.063  0.00  0.00    -0.229 N 
ATOM      8  C   UNL     1       4.366   6.680  -2.658  0.00  0.00    +0.006 A 
ATOM      9  N   UNL     1       0.955   6.060  -3.324  0.00  0.00    -0.165 NA
ENDROOT
BRANCH   1  14
ATOM     10  C   UNL     1       2.401   5.988  -7.953  0.00  0.00    +0.127 A 
ATOM     11  C   UNL     1       2.594   7.228  -7.357  0.00  0.00    +0.188 A 
ATOM     12  N   UNL     1       2.391   8.386  -8.145  0.00  0.00    -0.106 NA
ATOM     13  N   UNL     1       2.823   7.286  -6.024  0.00  0.00    -0.206 NA
ATOM     14  C   UNL     1       2.633   6.209  -5.223  0.00  0.00    +0.185 A 
ATOM     15  N   UNL     1       2.730   4.999  -5.819  0.00  0.00    -0.206 NA
ATOM     16  C   UNL     1       2.587   4.871  -7.161  0.00  0.00    +0.188 A 
ATOM     17  N   UNL     1       2.484   3.596  -7.796  0.00  0.00    -0.106 NA
BRANCH  10  19
ATOM     18  C   UNL     1       1.679   5.756 -10.280  0.00  0.00    +0.409 C 
ATOM     19  N   UNL     1       2.748   5.912  -9.341  0.00  0.00    -0.218 N 
ATOM     20  C   UNL     1       4.104   5.473  -9.637  0.00  0.00    +0.124 C 
ATOM     21  O   UNL     1       1.187   4.641 -10.579  0.00  0.00    -0.226 OA
BRANCH  18  23
ATOM     22  C   UNL     1      -0.391   6.853 -11.037  0.00  0.00    +0.257 C 
ATOM     23  O   UNL     1       1.013   6.872 -10.797  0.00  0.00    -0.430 OA
ENDBRANCH  18  23
ENDBRANCH  10  19
ENDBRANCH   1  14
BRANCH   7  24
ATOM     24  C   UNL     1       0.012   5.422  -1.115  0.00  0.00    +0.158 C 
BRANCH  24  25
ATOM     25  C   UNL     1      -1.274   5.897  -1.711  0.00  0.00    +0.030 A 
ATOM     26  C   UNL     1      -1.531   7.260  -1.614  0.00  0.00    +0.138 A 
ATOM     27  F   UNL     1      -1.202   7.935  -0.479  0.00  0.00    -0.204 F 
ATOM     28  C   UNL     1      -2.449   7.755  -2.531  0.00  0.00    +0.029 A 
ATOM     29  C   UNL     1      -3.171   6.901  -3.353  0.00  0.00    +0.002 A 
ATOM     30  C   UNL     1      -3.203   5.544  -3.058  0.00  0.00    -0.000 A 
ATOM     31  C   UNL     1      -2.195   5.015  -2.263  0.00  0.00    -0.000 A 
ENDBRANCH  24  25
ENDBRANCH   7  24
TORSDOF 5
ENDMDL
MODEL 8
REMARK VINA RESULT:      -8.9      2.333      3.087
REMARK  Name = 
REMARK  5 active torsions:
REMARK  status: ('A' for Active; 'I' for Inactive)
REMARK    1  A    between atoms: O_2  and  C_3
REMARK    2  A    between atoms: N_5  and  C_7
REMARK    3  A    between atoms: C_11  and  C_12
REMARK    4  A    between atoms: N_14  and  C_15
REMARK    5  A    between atoms: C_15  and  C_16
REMARK                            x       y       z     vdW  Elec       q    Type
REMARK                         _______ _______ _______ _____ _____    ______ ____
ROOT
ATOM      1  C   UNL     1       3.163   6.296  -8.565  0.00  0.00    +0.140 A 
ATOM      2  C   UNL     1       2.057   5.906  -9.307  0.00  0.00    +0.058 A 
ATOM      3  C   UNL     1       2.405   6.055 -10.644  0.00  0.00    +0.161 A 
ATOM      4  N   UNL     1       1.514   5.647 -11.581  0.00  0.00    -0.225 NA
ATOM      5  C   UNL     1       0.207   5.684 -11.225  0.00  0.00    +0.101 A 
ATOM      6  C   UNL     1      -0.084   5.175  -9.966  0.00  0.00    +0.021 A 
ATOM      7  N   UNL     1       3.722   6.372 -10.686  0.00  0.00    -0.229 N 
ATOM      8  C   UNL     1       0.928   5.164  -9.015  0.00  0.00    +0.006 A 
ATOM      9  N   UNL     1       4.048   6.754  -9.468  0.00  0.00    -0.165 NA
ENDROOT
BRANCH   1  14
ATOM     10  C   UNL     1       3.048   6.028  -4.459  0.00  0.00    +0.127 A 
ATOM     11  C   UNL     1       2.175   5.275  -5.232  0.00  0.00    +0.188 A 
ATOM     12  N   UNL     1       0.975   4.820  -4.635  0.00  0.00    -0.106 NA
ATOM     13  N   UNL     1       2.432   5.127  -6.554  0.00  0.00    -0.206 NA
ATOM     14  C   UNL     1       3.365   5.881  -7.185  0.00  0.00    +0.185 A 
ATOM     15  N   UNL     1       4.359   6.369  -6.408  0.00  0.00    -0.206 NA
ATOM     16  C   UNL     1       4.205   6.478  -5.066  0.00  0.00    +0.188 A 
ATOM     17  N   UNL     1       5.148   7.169  -4.246  0.00  0.00    -0.106 NA
BRANCH  10  19
ATOM     18  C   UNL     1       2.518   6.613  -2.141  0.00  0.00    +0.409 C 
ATOM     19  N   UNL     1       3.091   5.685  -3.068  0.00  0.00    -0.218 N 
ATOM     20  C   UNL     1       4.131   4.745  -2.675  0.00  0.00    +0.124 C 
ATOM     21  O   UNL     1       3.147   7.597  -1.681  0.00  0.00    -0.226 OA
BRANCH  18  23
ATOM     22  C   UNL     1       0.597   5.441  -1.142  0.00  0.00    +0.257 C 
ATOM     23  O   UNL     1       1.157   6.560  -1.824  0.00  0.00    -0.430 OA
ENDBRANCH  18  23
ENDBRANCH  10  19
ENDBRANCH   1  14
BRANCH   7  24
ATOM     24  C   UNL     1       4.358   6.788 -11.934  0.00  0.00    +0.158 C 
BRANCH  24  25
ATOM     25  C   UNL     1       5.823   6.508 -11.830  0.00  0.00    +0.030 A 
ATOM     26  C   UNL     1       6.599   7.503 -11.246  0.00  0.00    +0.138 A 
ATOM     27  F   UNL     1       6.336   8.812 -11.507  0.00  0.00    -0.204 F 
ATOM     28  C   UNL     1       7.822   7.079 -10.742  0.00  0.00    +0.029 A 
ATOM     29  C   UNL     1       8.284   5.790 -10.975  0.00  0.00    +0.002 A 
ATOM     30  C   UNL     1       7.674   5.020 -11.957  0.00  0.00    -0.000 A 
ATOM     31  C   UNL     1       6.386   5.352 -12.355  0.00  0.00    -0.000 A 
ENDBRANCH  24  25
ENDBRANCH   7  24
TORSDOF 5
ENDMDL
MODEL 9
REMARK VINA RESULT:      -8.8      3.893      8.859
REMARK  Name = 
REMARK  5 active torsions:
REMARK  status: ('A' for Active; 'I' for Inactive)
REMARK    1  A    between atoms: O_2  and  C_3
REMARK    2  A    between atoms: N_5  and  C_7
REMARK    3  A    between atoms: C_11  and  C_12
REMARK    4  A    between atoms: N_14  and  C_15
REMARK    5  A    between atoms: C_15  and  C_16
REMARK                            x       y       z     vdW  Elec       q    Type
REMARK                         _______ _______ _______ _____ _____    ______ ____
ROOT
ATOM      1  C   UNL     1       2.331   6.177  -3.934  0.00  0.00    +0.140 A 
ATOM      2  C   UNL     1       3.203   6.478  -2.896  0.00  0.00    +0.058 A 
ATOM      3  C   UNL     1       2.613   6.001  -1.732  0.00  0.00    +0.161 A 
ATOM      4  N   UNL     1       3.320   6.093  -0.579  0.00  0.00    -0.225 NA
ATOM      5  C   UNL     1       4.218   7.105  -0.503  0.00  0.00    +0.101 A 
ATOM      6  C   UNL     1       5.019   7.278  -1.624  0.00  0.00    +0.021 A 
ATOM      7  N   UNL     1       1.508   5.304  -2.095  0.00  0.00    -0.229 N 
ATOM      8  C   UNL     1       4.541   6.820  -2.846  0.00  0.00    +0.006 A 
ATOM      9  N   UNL     1       1.246   5.653  -3.338  0.00  0.00    -0.165 NA
ENDROOT
BRANCH   1  14
ATOM     10  C   UNL     1       2.410   6.024  -8.047  0.00  0.00    +0.127 A 
ATOM     11  C   UNL     1       2.564   7.238  -7.390  0.00  0.00    +0.188 A 
ATOM     12  N   UNL     1       2.259   8.425  -8.099  0.00  0.00    -0.106 NA
ATOM     13  N   UNL     1       2.854   7.236  -6.067  0.00  0.00    -0.206 NA
ATOM     14  C   UNL     1       2.763   6.107  -5.322  0.00  0.00    +0.185 A 
ATOM     15  N   UNL     1       2.897   4.939  -5.991  0.00  0.00    -0.206 NA
ATOM     16  C   UNL     1       2.695   4.877  -7.331  0.00  0.00    +0.188 A 
ATOM     17  N   UNL     1       2.631   3.635  -8.033  0.00  0.00    -0.106 NA
BRANCH  10  19
ATOM     18  C   UNL     1       4.035   6.344  -9.851  0.00  0.00    +0.409 C 
ATOM     19  N   UNL     1       2.692   6.045  -9.451  0.00  0.00    -0.218 N 
ATOM     20  C   UNL     1       1.555   6.290 -10.327  0.00  0.00    +0.124 C 
ATOM     21  O   UNL     1       4.465   7.515  -9.981  0.00  0.00    -0.226 OA
BRANCH  18  23
ATOM     22  C   UNL     1       6.088   5.244  -9.056  0.00  0.00    +0.257 C 
ATOM     23  O   UNL     1       4.990   5.330  -9.959  0.00  0.00    -0.430 OA
ENDBRANCH  18  23
ENDBRANCH  10  19
ENDBRANCH   1  14
BRANCH   7  24
ATOM     24  C   UNL     1       0.552   4.835  -1.096  0.00  0.00    +0.158 C 
BRANCH  24  25
ATOM     25  C   UNL     1      -0.715   5.613  -1.260  0.00  0.00    +0.030 A 
ATOM     26  C   UNL     1      -0.817   6.785  -0.520  0.00  0.00    +0.138 A 
ATOM     27  F   UNL     1      -0.338   6.830   0.754  0.00  0.00    -0.204 F 
ATOM     28  C   UNL     1      -1.739   7.708  -0.998  0.00  0.00    +0.029 A 
ATOM     29  C   UNL     1      -2.605   7.383  -2.034  0.00  0.00    +0.002 A 
ATOM     30  C   UNL     1      -2.760   6.051  -2.393  0.00  0.00    -0.000 A 
ATOM     31  C   UNL     1      -1.761   5.149  -2.048  0.00  0.00    -0.000 A 
ENDBRANCH  24  25
ENDBRANCH   7  24
TORSDOF 5
ENDMDL
