MODEL 1
REMARK VINA RESULT:      -7.8      0.000      0.000
REMARK  Name = 
REMARK  1 active torsions:
REMARK  status: ('A' for Active; 'I' for Inactive)
REMARK    1  A    between atoms: N_11  and  C_12
REMARK                            x       y       z     vdW  Elec       q    Type
REMARK                         _______ _______ _______ _____ _____    ______ ____
ROOT
ATOM      1  O   UNL     1       4.930   5.203  -7.503  0.00  0.00    -0.269 OA
ATOM      2  C   UNL     1       4.764   5.552  -8.591  0.00  0.00    +0.255 C 
ATOM      3  N   UNL     1       3.553   6.007  -9.096  0.00  0.00    -0.216 N 
ATOM      4  C   UNL     1       3.688   6.047 -10.523  0.00  0.00    +0.255 C 
ATOM      5  O   UNL     1       2.799   6.320 -11.383  0.00  0.00    -0.269 OA
ATOM      6  C   UNL     1       5.112   5.932 -10.869  0.00  0.00    +0.058 A 
ATOM      7  C   UNL     1       5.767   5.434 -11.992  0.00  0.00    +0.005 A 
ATOM      8  C   UNL     1       7.146   5.609 -11.997  0.00  0.00    +0.000 A 
ATOM      9  C   UNL     1       7.800   5.981 -10.829  0.00  0.00    +0.000 A 
ATOM     10  C   UNL     1       7.132   5.853  -9.615  0.00  0.00    +0.005 A 
ATOM     11  C   UNL     1       5.750   5.910  -9.632  0.00  0.00    +0.058 A 
ENDROOT
BRANCH   3  12
ATOM     12  C   UNL     1       2.117   5.719  -8.534  0.00  0.00    +0.162 C 
ATOM     13  C   UNL     1       2.174   6.916  -7.449  0.00  0.00    +0.266 C 
ATOM     14  O   UNL     1       2.404   8.054  -7.924  0.00  0.00    -0.271 OA
ATOM     15  N   UNL     1       0.927   6.800  -6.732  0.00  0.00    -0.143 NA
ATOM     16  C   UNL     1       0.502   5.462  -6.450  0.00  0.00    +0.248 C 
ATOM     17  O   UNL     1      -0.665   5.033  -6.662  0.00  0.00    -0.273 OA
ATOM     18  C   UNL     1       1.566   4.438  -6.433  0.00  0.00    +0.089 C 
ATOM     19  C   UNL     1       2.646   4.622  -7.431  0.00  0.00    +0.039 C 
ENDBRANCH   3  12
TORSDOF 1
ENDMDL
MODEL 2
REMARK VINA RESULT:      -7.7      3.019      7.618
REMARK  Name = 
REMARK  1 active torsions:
REMARK  status: ('A' for Active; 'I' for Inactive)
REMARK    1  A    between atoms: N_11  and  C_12
REMARK                            x       y       z     vdW  Elec       q    Type
REMARK                         _______ _______ _______ _____ _____    ______ ____
ROOT
ATOM      1  O   UNL     1       1.568   5.937  -3.965  0.00  0.00    -0.269 OA
ATOM      2  C   UNL     1       0.469   5.784  -4.287  0.00  0.00    +0.255 C 
ATOM      3  N   UNL     1       0.067   5.440  -5.571  0.00  0.00    -0.216 N 
ATOM      4  C   UNL     1      -1.352   5.646  -5.630  0.00  0.00    +0.255 C 
ATOM      5  O   UNL     1      -2.113   5.537  -6.635  0.00  0.00    -0.269 OA
ATOM      6  C   UNL     1      -1.866   5.800  -4.262  0.00  0.00    +0.058 A 
ATOM      7  C   UNL     1      -2.968   6.477  -3.745  0.00  0.00    +0.005 A 
ATOM      8  C   UNL     1      -3.193   6.287  -2.386  0.00  0.00    +0.000 A 
ATOM      9  C   UNL     1      -2.207   5.709  -1.596  0.00  0.00    +0.000 A 
ATOM     10  C   UNL     1      -0.908   5.633  -2.090  0.00  0.00    +0.005 A 
ATOM     11  C   UNL     1      -0.744   5.599  -3.464  0.00  0.00    +0.058 A 
ENDROOT
BRANCH   3  12
ATOM     12  C   UNL     1       0.862   5.645  -6.907  0.00  0.00    +0.162 C 
ATOM     13  C   UNL     1       2.050   4.629  -6.493  0.00  0.00    +0.266 C 
ATOM     14  O   UNL     1       1.679   3.467  -6.201  0.00  0.00    -0.271 OA
ATOM     15  N   UNL     1       2.980   4.709  -7.593  0.00  0.00    -0.143 NA
ATOM     16  C   UNL     1       3.178   6.018  -8.138  0.00  0.00    +0.248 C 
ATOM     17  O   UNL     1       3.151   6.281  -9.372  0.00  0.00    -0.273 OA
ATOM     18  C   UNL     1       2.862   7.145  -7.238  0.00  0.00    +0.089 C 
ATOM     19  C   UNL     1       1.700   6.940  -6.341  0.00  0.00    +0.039 C 
ENDBRANCH   3  12
TORSDOF 1
ENDMDL
MODEL 3
REMARK VINA RESULT:      -7.6      2.182      6.878
REMARK  Name = 
REMARK  1 active torsions:
REMARK  status: ('A' for Active; 'I' for Inactive)
REMARK    1  A    between atoms: N_11  and  C_12
REMARK                            x       y       z     vdW  Elec       q    Type
REMARK                         _______ _______ _______ _____ _____    ______ ____
ROOT
ATOM      1  O   UNL     1      -0.090   5.390  -7.881  0.00  0.00    -0.269 OA
ATOM      2  C   UNL     1       0.140   5.739  -6.804  0.00  0.00    +0.255 C 
ATOM      3  N   UNL     1       1.358   6.261  -6.390  0.00  0.00    -0.216 N 
ATOM      4  C   UNL     1       1.335   6.279  -4.956  0.00  0.00    +0.255 C 
ATOM      5  O   UNL     1       2.270   6.598  -4.165  0.00  0.00    -0.269 OA
ATOM      6  C   UNL     1      -0.048   6.075  -4.501  0.00  0.00    +0.058 A 
ATOM      7  C   UNL     1      -0.581   5.528  -3.338  0.00  0.00    +0.005 A 
ATOM      8  C   UNL     1      -1.964   5.619  -3.222  0.00  0.00    +0.000 A 
ATOM      9  C   UNL     1      -2.729   5.962  -4.330  0.00  0.00    +0.000 A 
ATOM     10  C   UNL     1      -2.153   5.886  -5.594  0.00  0.00    +0.005 A 
ATOM     11  C   UNL     1      -0.780   6.027  -5.685  0.00  0.00    +0.058 A 
ENDROOT
BRANCH   3  12
ATOM     12  C   UNL     1       2.760   6.065  -7.066  0.00  0.00    +0.162 C 
ATOM     13  C   UNL     1       2.436   7.064  -8.297  0.00  0.00    +0.266 C 
ATOM     14  O   UNL     1       2.098   8.225  -7.965  0.00  0.00    -0.271 OA
ATOM     15  N   UNL     1       3.612   6.989  -9.129  0.00  0.00    -0.143 NA
ATOM     16  C   UNL     1       4.188   5.685  -9.265  0.00  0.00    +0.248 C 
ATOM     17  O   UNL     1       5.418   5.439  -9.130  0.00  0.00    -0.273 OA
ATOM     18  C   UNL     1       3.278   4.549  -9.014  0.00  0.00    +0.089 C 
ATOM     19  C   UNL     1       2.284   4.754  -7.935  0.00  0.00    +0.039 C 
ENDBRANCH   3  12
TORSDOF 1
ENDMDL
MODEL 4
REMARK VINA RESULT:      -7.5      1.618      3.057
REMARK  Name = 
REMARK  1 active torsions:
REMARK  status: ('A' for Active; 'I' for Inactive)
REMARK    1  A    between atoms: N_11  and  C_12
REMARK                            x       y       z     vdW  Elec       q    Type
REMARK                         _______ _______ _______ _____ _____    ______ ____
ROOT
ATOM      1  O   UNL     1       3.192   5.879 -11.351  0.00  0.00    -0.269 OA
ATOM      2  C   UNL     1       4.319   5.761 -11.127  0.00  0.00    +0.255 C 
ATOM      3  N   UNL     1       4.849   5.526  -9.865  0.00  0.00    -0.216 N 
ATOM      4  C   UNL     1       6.263   5.747  -9.962  0.00  0.00    +0.255 C 
ATOM      5  O   UNL     1       7.120   5.727  -9.031  0.00  0.00    -0.269 OA
ATOM      6  C   UNL     1       6.640   5.793 -11.382  0.00  0.00    +0.058 A 
ATOM      7  C   UNL     1       7.675   6.433 -12.057  0.00  0.00    +0.005 A 
ATOM      8  C   UNL     1       7.771   6.133 -13.412  0.00  0.00    +0.000 A 
ATOM      9  C   UNL     1       6.721   5.486 -14.052  0.00  0.00    +0.000 A 
ATOM     10  C   UNL     1       5.478   5.441 -13.429  0.00  0.00    +0.005 A 
ATOM     11  C   UNL     1       5.448   5.518 -12.047  0.00  0.00    +0.058 A 
ENDROOT
BRANCH   3  12
ATOM     12  C   UNL     1       4.184   5.835  -8.478  0.00  0.00    +0.162 C 
ATOM     13  C   UNL     1       3.001   4.749  -8.672  0.00  0.00    +0.266 C 
ATOM     14  O   UNL     1       3.387   3.576  -8.893  0.00  0.00    -0.271 OA
ATOM     15  N   UNL     1       2.183   4.906  -7.493  0.00  0.00    -0.143 NA
ATOM     16  C   UNL     1       1.990   6.255  -7.054  0.00  0.00    +0.248 C 
ATOM     17  O   UNL     1       2.130   6.636  -5.859  0.00  0.00    -0.273 OA
ATOM     18  C   UNL     1       2.169   7.300  -8.082  0.00  0.00    +0.089 C 
ATOM     19  C   UNL     1       3.243   7.044  -9.071  0.00  0.00    +0.039 C 
ENDBRANCH   3  12
TORSDOF 1
ENDMDL
MODEL 5
REMARK VINA RESULT:      -7.4      3.447      5.137
REMARK  Name = 
REMARK  1 active torsions:
REMARK  status: ('A' for Active; 'I' for Inactive)
REMARK    1  A    between atoms: N_11  and  C_12
REMARK                            x       y       z     vdW  Elec       q    Type
REMARK                         _______ _______ _______ _____ _____    ______ ____
ROOT
ATOM      1  O   UNL     1       1.755   6.892  -4.612  0.00  0.00    -0.269 OA
ATOM      2  C   UNL     1       1.214   6.579  -5.583  0.00  0.00    +0.255 C 
ATOM      3  N   UNL     1      -0.129   6.236  -5.660  0.00  0.00    -0.216 N 
ATOM      4  C   UNL     1      -0.329   5.627  -6.943  0.00  0.00    +0.255 C 
ATOM      5  O   UNL     1      -1.382   5.091  -7.396  0.00  0.00    -0.269 OA
ATOM      6  C   UNL     1       0.841   5.906  -7.788  0.00  0.00    +0.058 A 
ATOM      7  C   UNL     1       1.415   5.217  -8.853  0.00  0.00    +0.005 A 
ATOM      8  C   UNL     1       2.466   5.874  -9.484  0.00  0.00    +0.000 A 
ATOM      9  C   UNL     1       3.051   6.980  -8.880  0.00  0.00    +0.000 A 
ATOM     10  C   UNL     1       2.812   7.215  -7.530  0.00  0.00    +0.005 A 
ATOM     11  C   UNL     1       1.633   6.730  -6.992  0.00  0.00    +0.058 A 
ENDROOT
BRANCH   3  12
ATOM     12  C   UNL     1      -1.055   5.738  -4.495  0.00  0.00    +0.162 C 
ATOM     13  C   UNL     1      -1.327   7.224  -3.919  0.00  0.00    +0.266 C 
ATOM     14  O   UNL     1      -1.805   8.036  -4.747  0.00  0.00    -0.271 OA
ATOM     15  N   UNL     1      -2.140   7.004  -2.748  0.00  0.00    -0.143 NA
ATOM     16  C   UNL     1      -1.774   5.872  -1.949  0.00  0.00    +0.248 C 
ATOM     17  O   UNL     1      -2.594   5.013  -1.525  0.00  0.00    -0.273 OA
ATOM     18  C   UNL     1      -0.378   5.410  -2.088  0.00  0.00    +0.089 C 
ATOM     19  C   UNL     1       0.193   5.504  -3.452  0.00  0.00    +0.039 C 
ENDBRANCH   3  12
TORSDOF 1
ENDMDL
MODEL 6
REMARK VINA RESULT:      -7.2      2.462      3.765
REMARK  Name = 
REMARK  1 active torsions:
REMARK  status: ('A' for Active; 'I' for Inactive)
REMARK    1  A    between atoms: N_11  and  C_12
REMARK                            x       y       z     vdW  Elec       q    Type
REMARK                         _______ _______ _______ _____ _____    ______ ____
ROOT
ATOM      1  O   UNL     1       4.305   5.895 -10.224  0.00  0.00    -0.269 OA
ATOM      2  C   UNL     1       3.166   5.842 -10.405  0.00  0.00    +0.255 C 
ATOM      3  N   UNL     1       2.204   6.005  -9.416  0.00  0.00    -0.216 N 
ATOM      4  C   UNL     1       0.957   5.570  -9.976  0.00  0.00    +0.255 C 
ATOM      5  O   UNL     1      -0.164   5.468  -9.397  0.00  0.00    -0.269 OA
ATOM      6  C   UNL     1       1.106   5.455 -11.434  0.00  0.00    +0.058 A 
ATOM      7  C   UNL     1       0.468   4.660 -12.382  0.00  0.00    +0.005 A 
ATOM      8  C   UNL     1       0.807   4.929 -13.703  0.00  0.00    +0.000 A 
ATOM      9  C   UNL     1       1.912   5.723 -13.986  0.00  0.00    +0.000 A 
ATOM     10  C   UNL     1       2.843   5.962 -12.979  0.00  0.00    +0.005 A 
ATOM     11  C   UNL     1       2.403   5.903 -11.669  0.00  0.00    +0.058 A 
ENDROOT
BRANCH   3  12
ATOM     12  C   UNL     1       2.384   5.813  -7.870  0.00  0.00    +0.162 C 
ATOM     13  C   UNL     1       2.846   7.342  -7.616  0.00  0.00    +0.266 C 
ATOM     14  O   UNL     1       2.037   8.215  -8.012  0.00  0.00    -0.271 OA
ATOM     15  N   UNL     1       3.145   7.389  -6.206  0.00  0.00    -0.143 NA
ATOM     16  C   UNL     1       3.812   6.236  -5.679  0.00  0.00    +0.248 C 
ATOM     17  O   UNL     1       3.461   5.637  -4.626  0.00  0.00    -0.273 OA
ATOM     18  C   UNL     1       4.560   5.422  -6.658  0.00  0.00    +0.089 C 
ATOM     19  C   UNL     1       3.942   5.308  -7.999  0.00  0.00    +0.039 C 
ENDBRANCH   3  12
TORSDOF 1
ENDMDL
MODEL 7
REMARK VINA RESULT:      -7.2      1.649      5.823
REMARK  Name = 
REMARK  1 active torsions:
REMARK  status: ('A' for Active; 'I' for Inactive)
REMARK    1  A    between atoms: N_11  and  C_12
REMARK                            x       y       z     vdW  Elec       q    Type
REMARK                         _______ _______ _______ _____ _____    ______ ____
ROOT
ATOM      1  O   UNL     1       3.562   4.184  -8.466  0.00  0.00    -0.269 OA
ATOM      2  C   UNL     1       2.988   5.113  -8.087  0.00  0.00    +0.255 C 
ATOM      3  N   UNL     1       2.927   6.327  -8.759  0.00  0.00    -0.216 N 
ATOM      4  C   UNL     1       2.394   7.285  -7.833  0.00  0.00    +0.255 C 
ATOM      5  O   UNL     1       2.248   8.532  -8.000  0.00  0.00    -0.269 OA
ATOM      6  C   UNL     1       1.813   6.568  -6.690  0.00  0.00    +0.058 A 
ATOM      7  C   UNL     1       1.628   6.922  -5.356  0.00  0.00    +0.005 A 
ATOM      8  C   UNL     1       0.921   6.000  -4.593  0.00  0.00    +0.000 A 
ATOM      9  C   UNL     1       0.702   4.719  -5.084  0.00  0.00    +0.000 A 
ATOM     10  C   UNL     1       1.458   4.274  -6.164  0.00  0.00    +0.005 A 
ATOM     11  C   UNL     1       1.960   5.227  -7.033  0.00  0.00    +0.058 A 
ENDROOT
BRANCH   3  12
ATOM     12  C   UNL     1       3.928   6.874  -9.836  0.00  0.00    +0.162 C 
ATOM     13  C   UNL     1       3.440   5.842 -10.982  0.00  0.00    +0.266 C 
ATOM     14  O   UNL     1       2.214   5.879 -11.243  0.00  0.00    -0.271 OA
ATOM     15  N   UNL     1       4.307   6.124 -12.100  0.00  0.00    -0.143 NA
ATOM     16  C   UNL     1       5.674   6.388 -11.768  0.00  0.00    +0.248 C 
ATOM     17  O   UNL     1       6.335   7.363 -12.219  0.00  0.00    -0.273 OA
ATOM     18  C   UNL     1       6.140   5.845 -10.476  0.00  0.00    +0.089 C 
ATOM     19  C   UNL     1       5.146   5.871  -9.377  0.00  0.00    +0.039 C 
ENDBRANCH   3  12
TORSDOF 1
ENDMDL
MODEL 8
REMARK VINA RESULT:      -7.1      2.831      5.208
REMARK  Name = 
REMARK  1 active torsions:
REMARK  status: ('A' for Active; 'I' for Inactive)
REMARK    1  A    between atoms: N_11  and  C_12
REMARK                            x       y       z     vdW  Elec       q    Type
REMARK                         _______ _______ _______ _____ _____    ______ ____
ROOT
ATOM      1  O   UNL     1       2.819   7.802  -7.489  0.00  0.00    -0.269 OA
ATOM      2  C   UNL     1       2.952   6.820  -6.895  0.00  0.00    +0.255 C 
ATOM      3  N   UNL     1       2.640   5.558  -7.382  0.00  0.00    -0.216 N 
ATOM      4  C   UNL     1       2.657   4.665  -6.259  0.00  0.00    +0.255 C 
ATOM      5  O   UNL     1       2.347   3.438  -6.235  0.00  0.00    -0.269 OA
ATOM      6  C   UNL     1       3.315   5.336  -5.129  0.00  0.00    +0.058 A 
ATOM      7  C   UNL     1       3.185   5.195  -3.751  0.00  0.00    +0.005 A 
ATOM      8  C   UNL     1       4.084   5.938  -2.994  0.00  0.00    +0.000 A 
ATOM      9  C   UNL     1       4.825   6.948  -3.596  0.00  0.00    +0.000 A 
ATOM     10  C   UNL     1       4.430   7.418  -4.845  0.00  0.00    +0.005 A 
ATOM     11  C   UNL     1       3.723   6.555  -5.663  0.00  0.00    +0.058 A 
ENDROOT
BRANCH   3  12
ATOM     12  C   UNL     1       1.652   5.202  -8.547  0.00  0.00    +0.162 C 
ATOM     13  C   UNL     1       2.790   5.277  -9.693  0.00  0.00    +0.266 C 
ATOM     14  O   UNL     1       3.779   4.529  -9.510  0.00  0.00    -0.271 OA
ATOM     15  N   UNL     1       2.070   5.040 -10.920  0.00  0.00    -0.143 NA
ATOM     16  C   UNL     1       0.781   5.659 -11.007  0.00  0.00    +0.248 C 
ATOM     17  O   UNL     1      -0.266   5.061 -11.379  0.00  0.00    -0.273 OA
ATOM     18  C   UNL     1       0.570   6.834 -10.137  0.00  0.00    +0.089 C 
ATOM     19  C   UNL     1       1.214   6.764  -8.804  0.00  0.00    +0.039 C 
ENDBRANCH   3  12
TORSDOF 1
ENDMDL
MODEL 9
REMARK VINA RESULT:      -7.1      2.624      4.314
REMARK  Name = 
REMARK  1 active torsions:
REMARK  status: ('A' for Active; 'I' for Inactive)
REMARK    1  A    between atoms: N_11  and  C_12
REMARK                            x       y       z     vdW  Elec       q    Type
REMARK                         _______ _______ _______ _____ _____    ______ ____
ROOT
ATOM      1  O   UNL     1       1.013   6.825  -7.536  0.00  0.00    -0.269 OA
ATOM      2  C   UNL     1       1.581   6.313  -8.402  0.00  0.00    +0.255 C 
ATOM      3  N   UNL     1       2.678   5.478  -8.237  0.00  0.00    -0.216 N 
ATOM      4  C   UNL     1       3.266   5.304  -9.534  0.00  0.00    +0.255 C 
ATOM      5  O   UNL     1       4.331   4.689  -9.831  0.00  0.00    -0.269 OA
ATOM      6  C   UNL     1       2.315   5.773 -10.552  0.00  0.00    +0.058 A 
ATOM      7  C   UNL     1       2.491   6.295 -11.830  0.00  0.00    +0.005 A 
ATOM      8  C   UNL     1       1.319   6.516 -12.545  0.00  0.00    +0.000 A 
ATOM      9  C   UNL     1       0.094   6.488 -11.890  0.00  0.00    +0.000 A 
ATOM     10  C   UNL     1       0.073   6.569 -10.501  0.00  0.00    +0.005 A 
ATOM     11  C   UNL     1       1.188   6.123  -9.813  0.00  0.00    +0.058 A 
ENDROOT
BRANCH   3  12
ATOM     12  C   UNL     1       3.655   5.416  -7.011  0.00  0.00    +0.162 C 
ATOM     13  C   UNL     1       2.577   4.699  -6.040  0.00  0.00    +0.266 C 
ATOM     14  O   UNL     1       2.106   3.621  -6.474  0.00  0.00    -0.271 OA
ATOM     15  N   UNL     1       3.260   4.596  -4.773  0.00  0.00    -0.143 NA
ATOM     16  C   UNL     1       4.060   5.727  -4.411  0.00  0.00    +0.248 C 
ATOM     17  O   UNL     1       5.246   5.648  -3.989  0.00  0.00    -0.273 OA
ATOM     18  C   UNL     1       3.695   7.006  -5.054  0.00  0.00    +0.089 C 
ATOM     19  C   UNL     1       3.239   6.907  -6.460  0.00  0.00    +0.039 C 
ENDBRANCH   3  12
TORSDOF 1
ENDMDL
