MODEL 1
REMARK VINA RESULT:      -8.0      0.000      0.000
REMARK  Name = 
REMARK  3 active torsions:
REMARK  status: ('A' for Active; 'I' for Inactive)
REMARK    1  A    between atoms: N_2  and  C_4
REMARK    2  A    between atoms: C_4  and  C_5
REMARK    3  A    between atoms: C_5  and  C_6
REMARK                            x       y       z     vdW  Elec       q    Type
REMARK                         _______ _______ _______ _____ _____    ______ ____
ROOT
ATOM      1  C   UNL     1       1.259   5.762  -7.533  0.00  0.00    -0.025 C 
ATOM      2  C   UNL     1       1.202   5.617  -6.218  0.00  0.00    -0.001 C 
ATOM      3  C   UNL     1       2.365   6.165  -5.504  0.00  0.00    +0.034 A 
ATOM      4  C   UNL     1       2.391   6.633  -4.196  0.00  0.00    +0.139 A 
ATOM      5  C   UNL     1       3.471   7.346  -3.736  0.00  0.00    +0.037 A 
ATOM      6  C   UNL     1       4.628   7.310  -4.500  0.00  0.00    +0.003 A 
ATOM      7  C   UNL     1       4.676   6.528  -5.640  0.00  0.00    +0.000 A 
ATOM      8  O   UNL     1       1.391   6.432  -3.237  0.00  0.00    -0.471 OA
ATOM      9  C   UNL     1       0.334   5.476  -3.188  0.00  0.00    +0.232 C 
ATOM     10  C   UNL     1      -0.534   5.570  -4.403  0.00  0.00    +0.021 A 
ATOM     11  C   UNL     1      -1.882   5.643  -4.098  0.00  0.00    -0.001 A 
ATOM     12  C   UNL     1      -2.698   6.258  -5.038  0.00  0.00    -0.000 A 
ATOM     13  C   UNL     1      -2.428   5.912  -6.358  0.00  0.00    -0.000 A 
ATOM     14  C   UNL     1      -1.121   5.661  -6.756  0.00  0.00    -0.000 A 
ATOM     15  C   UNL     1       3.499   6.182  -6.293  0.00  0.00    +0.003 A 
ATOM     16  C   UNL     1      -0.183   5.487  -5.746  0.00  0.00    -0.001 A 
ENDROOT
BRANCH   1  17
ATOM     17  C   UNL     1       0.139   5.361  -8.441  0.00  0.00    +0.043 C 
BRANCH  17  18
ATOM     18  C   UNL     1       0.802   5.005  -9.762  0.00  0.00    +0.077 C 
BRANCH  18  20
ATOM     19  C   UNL     1      -0.151   6.780 -10.919  0.00  0.00    +0.090 C 
ATOM     20  N   UNL     1      -0.017   5.322 -10.901  0.00  0.00    -0.270 NA
ATOM     21  C   UNL     1       0.629   4.972 -12.160  0.00  0.00    +0.090 C 
ENDBRANCH  18  20
ENDBRANCH  17  18
ENDBRANCH   1  17
TORSDOF 3
ENDMDL
MODEL 2
REMARK VINA RESULT:      -7.9      4.244      8.109
REMARK  Name = 
REMARK  3 active torsions:
REMARK  status: ('A' for Active; 'I' for Inactive)
REMARK    1  A    between atoms: N_2  and  C_4
REMARK    2  A    between atoms: C_4  and  C_5
REMARK    3  A    between atoms: C_5  and  C_6
REMARK                            x       y       z     vdW  Elec       q    Type
REMARK                         _______ _______ _______ _____ _____    ______ ____
ROOT
ATOM      1  C   UNL     1       3.552   5.705  -8.719  0.00  0.00    -0.025 C 
ATOM      2  C   UNL     1       3.687   5.455 -10.013  0.00  0.00    -0.001 C 
ATOM      3  C   UNL     1       2.522   5.836 -10.823  0.00  0.00    +0.034 A 
ATOM      4  C   UNL     1       2.525   6.187 -12.168  0.00  0.00    +0.139 A 
ATOM      5  C   UNL     1       1.414   6.762 -12.736  0.00  0.00    +0.037 A 
ATOM      6  C   UNL     1       0.227   6.691 -12.024  0.00  0.00    +0.003 A 
ATOM      7  C   UNL     1       0.184   6.008 -10.822  0.00  0.00    +0.000 A 
ATOM      8  O   UNL     1       3.585   5.993 -13.059  0.00  0.00    -0.471 OA
ATOM      9  C   UNL     1       4.719   5.132 -12.977  0.00  0.00    +0.232 C 
ATOM     10  C   UNL     1       5.513   5.404 -11.738  0.00  0.00    +0.021 A 
ATOM     11  C   UNL     1       6.864   5.567 -11.989  0.00  0.00    -0.001 A 
ATOM     12  C   UNL     1       7.577   6.329 -11.072  0.00  0.00    -0.000 A 
ATOM     13  C   UNL     1       7.269   6.074  -9.740  0.00  0.00    -0.000 A 
ATOM     14  C   UNL     1       5.968   5.745  -9.378  0.00  0.00    -0.000 A 
ATOM     15  C   UNL     1       1.351   5.822 -10.090  0.00  0.00    +0.003 A 
ATOM     16  C   UNL     1       5.101   5.405 -10.409  0.00  0.00    -0.001 A 
ENDROOT
BRANCH   1  17
ATOM     17  C   UNL     1       4.652   5.482  -7.731  0.00  0.00    +0.043 C 
BRANCH  17  18
ATOM     18  C   UNL     1       3.964   5.398  -6.378  0.00  0.00    +0.077 C 
BRANCH  18  20
ATOM     19  C   UNL     1       4.112   7.191  -4.908  0.00  0.00    +0.090 C 
ATOM     20  N   UNL     1       4.762   5.943  -5.312  0.00  0.00    -0.270 NA
ATOM     21  C   UNL     1       4.752   5.095  -4.126  0.00  0.00    +0.090 C 
ENDBRANCH  18  20
ENDBRANCH  17  18
ENDBRANCH   1  17
TORSDOF 3
ENDMDL
MODEL 3
REMARK VINA RESULT:      -7.8      4.260      6.217
REMARK  Name = 
REMARK  3 active torsions:
REMARK  status: ('A' for Active; 'I' for Inactive)
REMARK    1  A    between atoms: N_2  and  C_4
REMARK    2  A    between atoms: C_4  and  C_5
REMARK    3  A    between atoms: C_5  and  C_6
REMARK                            x       y       z     vdW  Elec       q    Type
REMARK                         _______ _______ _______ _____ _____    ______ ____
ROOT
ATOM      1  C   UNL     1       3.677   6.129 -12.032  0.00  0.00    -0.025 C 
ATOM      2  C   UNL     1       4.435   5.670 -11.047  0.00  0.00    -0.001 C 
ATOM      3  C   UNL     1       5.873   5.660 -11.352  0.00  0.00    +0.034 A 
ATOM      4  C   UNL     1       6.915   5.746 -10.436  0.00  0.00    +0.139 A 
ATOM      5  C   UNL     1       8.199   5.979 -10.867  0.00  0.00    +0.037 A 
ATOM      6  C   UNL     1       8.454   5.815 -12.221  0.00  0.00    +0.003 A 
ATOM      7  C   UNL     1       7.448   5.376 -13.063  0.00  0.00    +0.000 A 
ATOM      8  O   UNL     1       6.799   5.595  -9.050  0.00  0.00    -0.471 OA
ATOM      9  C   UNL     1       5.767   5.000  -8.267  0.00  0.00    +0.232 C 
ATOM     10  C   UNL     1       4.445   5.648  -8.535  0.00  0.00    +0.021 A 
ATOM     11  C   UNL     1       3.782   6.019  -7.378  0.00  0.00    -0.001 A 
ATOM     12  C   UNL     1       2.873   7.062  -7.492  0.00  0.00    -0.000 A 
ATOM     13  C   UNL     1       2.064   7.008  -8.622  0.00  0.00    -0.000 A 
ATOM     14  C   UNL     1       2.572   6.509  -9.816  0.00  0.00    -0.000 A 
ATOM     15  C   UNL     1       6.118   5.559 -12.707  0.00  0.00    +0.003 A 
ATOM     16  C   UNL     1       3.777   5.820  -9.742  0.00  0.00    -0.001 A 
ENDROOT
BRANCH   1  17
ATOM     17  C   UNL     1       2.199   6.312 -11.898  0.00  0.00    +0.043 C 
BRANCH  17  18
ATOM     18  C   UNL     1       1.638   6.073 -13.291  0.00  0.00    +0.077 C 
BRANCH  18  20
ATOM     19  C   UNL     1       0.997   3.982 -14.075  0.00  0.00    +0.090 C 
ATOM     20  N   UNL     1       0.544   5.138 -13.299  0.00  0.00    -0.270 NA
ATOM     21  C   UNL     1       0.248   4.624 -11.968  0.00  0.00    +0.090 C 
ENDBRANCH  18  20
ENDBRANCH  17  18
ENDBRANCH   1  17
TORSDOF 3
ENDMDL
MODEL 4
REMARK VINA RESULT:      -7.7      4.280      6.904
REMARK  Name = 
REMARK  3 active torsions:
REMARK  status: ('A' for Active; 'I' for Inactive)
REMARK    1  A    between atoms: N_2  and  C_4
REMARK    2  A    between atoms: C_4  and  C_5
REMARK    3  A    between atoms: C_5  and  C_6
REMARK                            x       y       z     vdW  Elec       q    Type
REMARK                         _______ _______ _______ _____ _____    ______ ____
ROOT
ATOM      1  C   UNL     1       4.763   5.675  -8.240  0.00  0.00    -0.025 C 
ATOM      2  C   UNL     1       4.501   5.984  -9.501  0.00  0.00    -0.001 C 
ATOM      3  C   UNL     1       5.641   5.809 -10.411  0.00  0.00    +0.034 A 
ATOM      4  C   UNL     1       5.582   5.543 -11.774  0.00  0.00    +0.139 A 
ATOM      5  C   UNL     1       6.711   5.154 -12.454  0.00  0.00    +0.037 A 
ATOM      6  C   UNL     1       7.930   5.338 -11.818  0.00  0.00    +0.003 A 
ATOM      7  C   UNL     1       7.975   5.946 -10.577  0.00  0.00    +0.000 A 
ATOM      8  O   UNL     1       4.443   5.650 -12.578  0.00  0.00    -0.471 OA
ATOM      9  C   UNL     1       3.218   6.348 -12.361  0.00  0.00    +0.232 C 
ATOM     10  C   UNL     1       2.560   5.899 -11.094  0.00  0.00    +0.021 A 
ATOM     11  C   UNL     1       1.225   5.575 -11.266  0.00  0.00    -0.001 A 
ATOM     12  C   UNL     1       0.685   4.672 -10.359  0.00  0.00    -0.000 A 
ATOM     13  C   UNL     1       1.056   4.884  -9.036  0.00  0.00    -0.000 A 
ATOM     14  C   UNL     1       2.329   5.358  -8.740  0.00  0.00    -0.000 A 
ATOM     15  C   UNL     1       6.853   5.932  -9.758  0.00  0.00    +0.003 A 
ATOM     16  C   UNL     1       3.067   5.871  -9.799  0.00  0.00    -0.001 A 
ENDROOT
BRANCH   1  17
ATOM     17  C   UNL     1       3.720   5.691  -7.169  0.00  0.00    +0.043 C 
BRANCH  17  18
ATOM     18  C   UNL     1       4.463   6.051  -5.892  0.00  0.00    +0.077 C 
BRANCH  18  20
ATOM     19  C   UNL     1       2.764   6.910  -4.561  0.00  0.00    +0.090 C 
ATOM     20  N   UNL     1       3.982   7.266  -5.289  0.00  0.00    -0.270 NA
ATOM     21  C   UNL     1       4.902   7.785  -4.285  0.00  0.00    +0.090 C 
ENDBRANCH  18  20
ENDBRANCH  17  18
ENDBRANCH   1  17
TORSDOF 3
ENDMDL
MODEL 5
REMARK VINA RESULT:      -7.7      2.387      5.890
REMARK  Name = 
REMARK  3 active torsions:
REMARK  status: ('A' for Active; 'I' for Inactive)
REMARK    1  A    between atoms: N_2  and  C_4
REMARK    2  A    between atoms: C_4  and  C_5
REMARK    3  A    between atoms: C_5  and  C_6
REMARK                            x       y       z     vdW  Elec       q    Type
REMARK                         _______ _______ _______ _____ _____    ______ ____
ROOT
ATOM      1  C   UNL     1      -0.140   5.534  -7.736  0.00  0.00    -0.025 C 
ATOM      2  C   UNL     1       1.080   5.231  -8.153  0.00  0.00    -0.001 C 
ATOM      3  C   UNL     1       1.239   5.258  -9.614  0.00  0.00    +0.034 A 
ATOM      4  C   UNL     1       2.413   5.502 -10.317  0.00  0.00    +0.139 A 
ATOM      5  C   UNL     1       2.374   5.747 -11.668  0.00  0.00    +0.037 A 
ATOM      6  C   UNL     1       1.198   5.440 -12.335  0.00  0.00    +0.003 A 
ATOM      7  C   UNL     1       0.148   4.856 -11.649  0.00  0.00    +0.000 A 
ATOM      8  O   UNL     1       3.703   5.508  -9.774  0.00  0.00    -0.471 OA
ATOM      9  C   UNL     1       4.197   4.956  -8.556  0.00  0.00    +0.232 C 
ATOM     10  C   UNL     1       3.454   5.502  -7.377  0.00  0.00    +0.021 A 
ATOM     11  C   UNL     1       4.293   5.970  -6.381  0.00  0.00    -0.001 A 
ATOM     12  C   UNL     1       3.772   6.947  -5.541  0.00  0.00    -0.000 A 
ATOM     13  C   UNL     1       2.464   6.722  -5.128  0.00  0.00    -0.000 A 
ATOM     14  C   UNL     1       1.559   6.113  -5.989  0.00  0.00    -0.000 A 
ATOM     15  C   UNL     1       0.049   5.013 -10.272  0.00  0.00    +0.003 A 
ATOM     16  C   UNL     1       2.087   5.499  -7.118  0.00  0.00    -0.001 A 
ENDROOT
BRANCH   1  17
ATOM     17  C   UNL     1      -0.495   5.657  -6.289  0.00  0.00    +0.043 C 
BRANCH  17  18
ATOM     18  C   UNL     1      -2.010   5.772  -6.255  0.00  0.00    +0.077 C 
BRANCH  18  20
ATOM     19  C   UNL     1      -2.502   5.619  -3.990  0.00  0.00    +0.090 C 
ATOM     20  N   UNL     1      -2.488   6.534  -5.132  0.00  0.00    -0.270 NA
ATOM     21  C   UNL     1      -1.572   7.606  -4.764  0.00  0.00    +0.090 C 
ENDBRANCH  18  20
ENDBRANCH  17  18
ENDBRANCH   1  17
TORSDOF 3
ENDMDL
MODEL 6
REMARK VINA RESULT:      -7.6      2.658      4.924
REMARK  Name = 
REMARK  3 active torsions:
REMARK  status: ('A' for Active; 'I' for Inactive)
REMARK    1  A    between atoms: N_2  and  C_4
REMARK    2  A    between atoms: C_4  and  C_5
REMARK    3  A    between atoms: C_5  and  C_6
REMARK                            x       y       z     vdW  Elec       q    Type
REMARK                         _______ _______ _______ _____ _____    ______ ____
ROOT
ATOM      1  C   UNL     1       0.626   6.121  -3.625  0.00  0.00    -0.025 C 
ATOM      2  C   UNL     1       1.266   6.728  -4.613  0.00  0.00    -0.001 C 
ATOM      3  C   UNL     1       2.689   6.973  -4.344  0.00  0.00    +0.034 A 
ATOM      4  C   UNL     1       3.704   7.091  -5.287  0.00  0.00    +0.139 A 
ATOM      5  C   UNL     1       5.020   7.068  -4.894  0.00  0.00    +0.037 A 
ATOM      6  C   UNL     1       5.284   7.236  -3.543  0.00  0.00    +0.003 A 
ATOM      7  C   UNL     1       4.244   7.476  -2.663  0.00  0.00    +0.000 A 
ATOM      8  O   UNL     1       3.523   7.256  -6.664  0.00  0.00    -0.471 OA
ATOM      9  C   UNL     1       2.383   7.688  -7.403  0.00  0.00    +0.232 C 
ATOM     10  C   UNL     1       1.198   6.818  -7.123  0.00  0.00    +0.021 A 
ATOM     11  C   UNL     1       0.573   6.371  -8.274  0.00  0.00    -0.001 A 
ATOM     12  C   UNL     1      -0.143   5.186  -8.170  0.00  0.00    -0.000 A 
ATOM     13  C   UNL     1      -0.915   5.071  -7.020  0.00  0.00    -0.000 A 
ATOM     14  C   UNL     1      -0.464   5.618  -5.824  0.00  0.00    -0.000 A 
ATOM     15  C   UNL     1       2.954   7.078  -2.992  0.00  0.00    +0.003 A 
ATOM     16  C   UNL     1       0.604   6.503  -5.905  0.00  0.00    -0.001 A 
ENDROOT
BRANCH   1  17
ATOM     17  C   UNL     1      -0.803   5.693  -3.727  0.00  0.00    +0.043 C 
BRANCH  17  18
ATOM     18  C   UNL     1      -1.227   5.366  -2.304  0.00  0.00    +0.077 C 
BRANCH  18  20
ATOM     19  C   UNL     1      -3.031   6.681  -1.662  0.00  0.00    +0.090 C 
ATOM     20  N   UNL     1      -2.657   5.349  -2.137  0.00  0.00    -0.270 NA
ATOM     21  C   UNL     1      -3.357   5.173  -3.404  0.00  0.00    +0.090 C 
ENDBRANCH  18  20
ENDBRANCH  17  18
ENDBRANCH   1  17
TORSDOF 3
ENDMDL
MODEL 7
REMARK VINA RESULT:      -7.6      0.978      4.165
REMARK  Name = 
REMARK  3 active torsions:
REMARK  status: ('A' for Active; 'I' for Inactive)
REMARK    1  A    between atoms: N_2  and  C_4
REMARK    2  A    between atoms: C_4  and  C_5
REMARK    3  A    between atoms: C_5  and  C_6
REMARK                            x       y       z     vdW  Elec       q    Type
REMARK                         _______ _______ _______ _____ _____    ______ ____
ROOT
ATOM      1  C   UNL     1       0.174   5.571  -8.060  0.00  0.00    -0.025 C 
ATOM      2  C   UNL     1       0.584   6.117  -6.925  0.00  0.00    -0.001 C 
ATOM      3  C   UNL     1      -0.350   5.941  -5.803  0.00  0.00    +0.034 A 
ATOM      4  C   UNL     1      -0.027   5.915  -4.451  0.00  0.00    +0.139 A 
ATOM      5  C   UNL     1      -0.952   5.495  -3.527  0.00  0.00    +0.037 A 
ATOM      6  C   UNL     1      -2.272   5.403  -3.943  0.00  0.00    +0.003 A 
ATOM      7  C   UNL     1      -2.616   5.785  -5.227  0.00  0.00    +0.000 A 
ATOM      8  O   UNL     1       1.195   6.308  -3.896  0.00  0.00    -0.471 OA
ATOM      9  C   UNL     1       2.237   7.121  -4.432  0.00  0.00    +0.232 C 
ATOM     10  C   UNL     1       2.745   6.562  -5.724  0.00  0.00    +0.021 A 
ATOM     11  C   UNL     1       4.124   6.456  -5.760  0.00  0.00    -0.001 A 
ATOM     12  C   UNL     1       4.650   5.497  -6.617  0.00  0.00    -0.000 A 
ATOM     13  C   UNL     1       4.039   5.434  -7.864  0.00  0.00    -0.000 A 
ATOM     14  C   UNL     1       2.675   5.675  -7.983  0.00  0.00    -0.000 A 
ATOM     15  C   UNL     1      -1.655   5.789  -6.231  0.00  0.00    +0.003 A 
ATOM     16  C   UNL     1       2.046   6.251  -6.886  0.00  0.00    -0.001 A 
ENDROOT
BRANCH   1  17
ATOM     17  C   UNL     1       1.011   5.551  -9.298  0.00  0.00    +0.043 C 
BRANCH  17  18
ATOM     18  C   UNL     1       0.053   5.201 -10.425  0.00  0.00    +0.077 C 
BRANCH  18  20
ATOM     19  C   UNL     1      -0.362   7.260 -11.418  0.00  0.00    +0.090 C 
ATOM     20  N   UNL     1       0.293   5.966 -11.620  0.00  0.00    -0.270 NA
ATOM     21  C   UNL     1       1.706   6.268 -11.807  0.00  0.00    +0.090 C 
ENDBRANCH  18  20
ENDBRANCH  17  18
ENDBRANCH   1  17
TORSDOF 3
ENDMDL
MODEL 8
REMARK VINA RESULT:      -7.6      4.491      7.304
REMARK  Name = 
REMARK  3 active torsions:
REMARK  status: ('A' for Active; 'I' for Inactive)
REMARK    1  A    between atoms: N_2  and  C_4
REMARK    2  A    between atoms: C_4  and  C_5
REMARK    3  A    between atoms: C_5  and  C_6
REMARK                            x       y       z     vdW  Elec       q    Type
REMARK                         _______ _______ _______ _____ _____    ______ ____
ROOT
ATOM      1  C   UNL     1       3.920   6.722  -9.636  0.00  0.00    -0.025 C 
ATOM      2  C   UNL     1       4.038   6.579 -10.947  0.00  0.00    -0.001 C 
ATOM      3  C   UNL     1       5.399   6.248 -11.394  0.00  0.00    +0.034 A 
ATOM      4  C   UNL     1       5.749   5.554 -12.546  0.00  0.00    +0.139 A 
ATOM      5  C   UNL     1       7.033   5.096 -12.716  0.00  0.00    +0.037 A 
ATOM      6  C   UNL     1       8.007   5.607 -11.872  0.00  0.00    +0.003 A 
ATOM      7  C   UNL     1       7.676   6.583 -10.949  0.00  0.00    +0.000 A 
ATOM      8  O   UNL     1       4.896   5.270 -13.618  0.00  0.00    -0.471 OA
ATOM      9  C   UNL     1       3.654   5.860 -13.995  0.00  0.00    +0.232 C 
ATOM     10  C   UNL     1       2.656   5.772 -12.884  0.00  0.00    +0.021 A 
ATOM     11  C   UNL     1       1.436   5.264 -13.294  0.00  0.00    -0.001 A 
ATOM     12  C   UNL     1       0.663   4.646 -12.320  0.00  0.00    -0.000 A 
ATOM     13  C   UNL     1       0.624   5.311 -11.099  0.00  0.00    -0.000 A 
ATOM     14  C   UNL     1       1.746   5.994 -10.645  0.00  0.00    -0.000 A 
ATOM     15  C   UNL     1       6.362   6.708 -10.516  0.00  0.00    +0.003 A 
ATOM     16  C   UNL     1       2.758   6.218 -11.570  0.00  0.00    -0.001 A 
ENDROOT
BRANCH   1  17
ATOM     17  C   UNL     1       2.607   6.966  -8.963  0.00  0.00    +0.043 C 
BRANCH  17  18
ATOM     18  C   UNL     1       2.884   6.815  -7.476  0.00  0.00    +0.077 C 
BRANCH  18  20
ATOM     19  C   UNL     1       4.348   5.798  -5.986  0.00  0.00    +0.090 C 
ATOM     20  N   UNL     1       3.491   5.552  -7.146  0.00  0.00    -0.270 NA
ATOM     21  C   UNL     1       2.510   4.567  -6.707  0.00  0.00    +0.090 C 
ENDBRANCH  18  20
ENDBRANCH  17  18
ENDBRANCH   1  17
TORSDOF 3
ENDMDL
MODEL 9
REMARK VINA RESULT:      -7.6      2.089      2.728
REMARK  Name = 
REMARK  3 active torsions:
REMARK  status: ('A' for Active; 'I' for Inactive)
REMARK    1  A    between atoms: N_2  and  C_4
REMARK    2  A    between atoms: C_4  and  C_5
REMARK    3  A    between atoms: C_5  and  C_6
REMARK                            x       y       z     vdW  Elec       q    Type
REMARK                         _______ _______ _______ _____ _____    ______ ____
ROOT
ATOM      1  C   UNL     1       3.448   5.801  -7.257  0.00  0.00    -0.025 C 
ATOM      2  C   UNL     1       2.808   5.651  -6.107  0.00  0.00    -0.001 C 
ATOM      3  C   UNL     1       3.421   6.370  -4.981  0.00  0.00    +0.034 A 
ATOM      4  C   UNL     1       2.772   6.839  -3.844  0.00  0.00    +0.139 A 
ATOM      5  C   UNL     1       3.409   7.709  -2.993  0.00  0.00    +0.037 A 
ATOM      6  C   UNL     1       4.781   7.849  -3.137  0.00  0.00    +0.003 A 
ATOM      7  C   UNL     1       5.458   7.083  -4.068  0.00  0.00    +0.000 A 
ATOM      8  O   UNL     1       1.480   6.489  -3.439  0.00  0.00    -0.471 OA
ATOM      9  C   UNL     1       0.661   5.383  -3.811  0.00  0.00    +0.232 C 
ATOM     10  C   UNL     1       0.451   5.341  -5.292  0.00  0.00    +0.021 A 
ATOM     11  C   UNL     1      -0.880   5.208  -5.645  0.00  0.00    -0.001 A 
ATOM     12  C   UNL     1      -1.241   5.690  -6.896  0.00  0.00    -0.000 A 
ATOM     13  C   UNL     1      -0.346   5.388  -7.916  0.00  0.00    -0.000 A 
ATOM     14  C   UNL     1       1.017   5.339  -7.652  0.00  0.00    -0.000 A 
ATOM     15  C   UNL     1       4.777   6.560  -5.161  0.00  0.00    +0.003 A 
ATOM     16  C   UNL     1       1.394   5.311  -6.315  0.00  0.00    -0.001 A 
ENDROOT
BRANCH   1  17
ATOM     17  C   UNL     1       2.943   5.233  -8.545  0.00  0.00    +0.043 C 
BRANCH  17  18
ATOM     18  C   UNL     1       4.185   4.976  -9.383  0.00  0.00    +0.077 C 
BRANCH  18  20
ATOM     19  C   UNL     1       6.329   5.778  -9.777  0.00  0.00    +0.090 C 
ATOM     20  N   UNL     1       4.925   6.176  -9.669  0.00  0.00    -0.270 NA
ATOM     21  C   UNL     1       4.577   6.743 -10.966  0.00  0.00    +0.090 C 
ENDBRANCH  18  20
ENDBRANCH  17  18
ENDBRANCH   1  17
TORSDOF 3
ENDMDL
