MODEL 1
REMARK VINA RESULT:      -5.0      0.000      0.000
REMARK  Name = 
REMARK  5 active torsions:
REMARK  status: ('A' for Active; 'I' for Inactive)
REMARK    1  A    between atoms: P_2  and  N_3
REMARK    2  A    between atoms: N_3  and  C_4
REMARK    3  A    between atoms: C_4  and  C_5
REMARK    4  A    between atoms: N_11  and  C_12
REMARK    5  A    between atoms: C_12  and  C_13
REMARK                            x       y       z     vdW  Elec       q    Type
REMARK                         _______ _______ _______ _____ _____    ______ ____
ROOT
ATOM      1  O   UNL     1       2.174   8.458  -7.924  0.00  0.00    -0.253 OA
ATOM      2  P   UNL     1       2.236   7.171  -7.196  0.00  0.00    +0.365 P 
ATOM      3  N   UNL     1       2.737   5.882  -8.243  0.00  0.00    -0.196 NA
ATOM      4  C   UNL     1       1.741   4.870  -8.447  0.00  0.00    +0.084 C 
ATOM      5  C   UNL     1       0.330   5.379  -8.285  0.00  0.00    +0.050 C 
ATOM      6  C   UNL     1       0.156   5.710  -6.816  0.00  0.00    +0.153 C 
ATOM      7  O   UNL     1       0.735   6.920  -6.488  0.00  0.00    -0.291 OA
ENDROOT
BRANCH   3   8
ATOM      8  C   UNL     1       3.280   6.349  -9.491  0.00  0.00    +0.099 C 
BRANCH   8   9
ATOM      9  C   UNL     1       4.420   5.449  -9.884  0.00  0.00    +0.113 C 
ATOM     10 CL   UNL     1       5.554   5.250  -8.544  0.00  0.00    -0.112 Cl
ENDBRANCH   8   9
ENDBRANCH   3   8
BRANCH   2  11
ATOM     11  N   UNL     1       3.430   7.254  -5.904  0.00  0.00    -0.132 NA
BRANCH  11  12
ATOM     12  C   UNL     1       3.782   5.936  -5.449  0.00  0.00    +0.117 C 
BRANCH  12  13
ATOM     13  C   UNL     1       4.754   6.027  -4.297  0.00  0.00    +0.114 C 
ATOM     14 CL   UNL     1       5.478   7.642  -4.219  0.00  0.00    -0.112 Cl
ENDBRANCH  12  13
ENDBRANCH  11  12
ENDBRANCH   2  11
TORSDOF 5
ENDMDL
MODEL 2
REMARK VINA RESULT:      -4.8      3.177      5.193
REMARK  Name = 
REMARK  5 active torsions:
REMARK  status: ('A' for Active; 'I' for Inactive)
REMARK    1  A    between atoms: P_2  and  N_3
REMARK    2  A    between atoms: N_3  and  C_4
REMARK    3  A    between atoms: C_4  and  C_5
REMARK    4  A    between atoms: N_11  and  C_12
REMARK    5  A    between atoms: C_12  and  C_13
REMARK                            x       y       z     vdW  Elec       q    Type
REMARK                         _______ _______ _______ _____ _____    ______ ____
ROOT
ATOM      1  O   UNL     1       2.088   8.366  -7.883  0.00  0.00    -0.253 OA
ATOM      2  P   UNL     1       2.118   6.964  -8.354  0.00  0.00    +0.365 P 
ATOM      3  N   UNL     1       1.452   5.888  -7.167  0.00  0.00    -0.196 NA
ATOM      4  C   UNL     1       2.394   4.950  -6.630  0.00  0.00    +0.084 C 
ATOM      5  C   UNL     1       3.820   5.441  -6.676  0.00  0.00    +0.050 C 
ATOM      6  C   UNL     1       4.213   5.491  -8.140  0.00  0.00    +0.153 C 
ATOM      7  O   UNL     1       3.704   6.607  -8.772  0.00  0.00    -0.291 OA
ENDROOT
BRANCH   3   8
ATOM      8  C   UNL     1       0.736   6.575  -6.124  0.00  0.00    +0.099 C 
BRANCH   8   9
ATOM      9  C   UNL     1      -0.291   5.637  -5.550  0.00  0.00    +0.113 C 
ATOM     10 CL   UNL     1      -1.742   5.603  -6.558  0.00  0.00    -0.112 Cl
ENDBRANCH   8   9
ENDBRANCH   3   8
BRANCH   2  11
ATOM     11  N   UNL     1       1.129   6.781  -9.800  0.00  0.00    -0.132 NA
BRANCH  11  12
ATOM     12  C   UNL     1       0.180   5.713  -9.637  0.00  0.00    +0.117 C 
BRANCH  12  13
ATOM     13  C   UNL     1       0.549   4.551 -10.528  0.00  0.00    +0.114 C 
ATOM     14 CL   UNL     1       0.457   5.020 -12.234  0.00  0.00    -0.112 Cl
ENDBRANCH  12  13
ENDBRANCH  11  12
ENDBRANCH   2  11
TORSDOF 5
ENDMDL
MODEL 3
REMARK VINA RESULT:      -4.8      2.119      3.558
REMARK  Name = 
REMARK  5 active torsions:
REMARK  status: ('A' for Active; 'I' for Inactive)
REMARK    1  A    between atoms: P_2  and  N_3
REMARK    2  A    between atoms: N_3  and  C_4
REMARK    3  A    between atoms: C_4  and  C_5
REMARK    4  A    between atoms: N_11  and  C_12
REMARK    5  A    between atoms: C_12  and  C_13
REMARK                            x       y       z     vdW  Elec       q    Type
REMARK                         _______ _______ _______ _____ _____    ______ ____
ROOT
ATOM      1  O   UNL     1       1.884   8.126  -7.798  0.00  0.00    -0.253 OA
ATOM      2  P   UNL     1       2.690   6.890  -7.687  0.00  0.00    +0.365 P 
ATOM      3  N   UNL     1       1.688   5.478  -7.775  0.00  0.00    -0.196 NA
ATOM      4  C   UNL     1       1.673   4.692  -6.576  0.00  0.00    +0.084 C 
ATOM      5  C   UNL     1       1.959   5.496  -5.331  0.00  0.00    +0.050 C 
ATOM      6  C   UNL     1       3.412   5.924  -5.417  0.00  0.00    +0.153 C 
ATOM      7  O   UNL     1       3.582   6.997  -6.270  0.00  0.00    -0.291 OA
ENDROOT
BRANCH   3   8
ATOM      8  C   UNL     1       0.355   5.761  -8.239  0.00  0.00    +0.099 C 
BRANCH   8   9
ATOM      9  C   UNL     1       0.271   5.404  -9.698  0.00  0.00    +0.113 C 
ATOM     10 CL   UNL     1       0.217   6.861 -10.699  0.00  0.00    -0.112 Cl
ENDBRANCH   8   9
ENDBRANCH   3   8
BRANCH   2  11
ATOM     11  N   UNL     1       3.827   6.777  -9.028  0.00  0.00    -0.132 NA
BRANCH  11  12
ATOM     12  C   UNL     1       4.209   5.410  -9.259  0.00  0.00    +0.117 C 
BRANCH  12  13
ATOM     13  C   UNL     1       5.459   5.082  -8.478  0.00  0.00    +0.114 C 
ATOM     14 CL   UNL     1       6.897   5.679  -9.323  0.00  0.00    -0.112 Cl
ENDBRANCH  12  13
ENDBRANCH  11  12
ENDBRANCH   2  11
TORSDOF 5
ENDMDL
MODEL 4
REMARK VINA RESULT:      -4.8      3.569      4.639
REMARK  Name = 
REMARK  5 active torsions:
REMARK  status: ('A' for Active; 'I' for Inactive)
REMARK    1  A    between atoms: P_2  and  N_3
REMARK    2  A    between atoms: N_3  and  C_4
REMARK    3  A    between atoms: C_4  and  C_5
REMARK    4  A    between atoms: N_11  and  C_12
REMARK    5  A    between atoms: C_12  and  C_13
REMARK                            x       y       z     vdW  Elec       q    Type
REMARK                         _______ _______ _______ _____ _____    ______ ____
ROOT
ATOM      1  O   UNL     1       1.291   3.784  -5.997  0.00  0.00    -0.253 OA
ATOM      2  P   UNL     1       1.285   5.164  -5.465  0.00  0.00    +0.365 P 
ATOM      3  N   UNL     1       1.333   6.331  -6.748  0.00  0.00    -0.196 NA
ATOM      4  C   UNL     1       2.520   7.134  -6.768  0.00  0.00    +0.084 C 
ATOM      5  C   UNL     1       3.716   6.450  -6.152  0.00  0.00    +0.050 C 
ATOM      6  C   UNL     1       3.430   6.334  -4.667  0.00  0.00    +0.153 C 
ATOM      7  O   UNL     1       2.566   5.295  -4.388  0.00  0.00    -0.291 OA
ENDROOT
BRANCH   3   8
ATOM      8  C   UNL     1       1.059   5.758  -8.040  0.00  0.00    +0.099 C 
BRANCH   8   9
ATOM      9  C   UNL     1       1.435   6.760  -9.097  0.00  0.00    +0.113 C 
ATOM     10 CL   UNL     1       0.340   6.654 -10.481  0.00  0.00    -0.112 Cl
ENDBRANCH   8   9
ENDBRANCH   3   8
BRANCH   2  11
ATOM     11  N   UNL     1      -0.200   5.471  -4.570  0.00  0.00    -0.132 NA
BRANCH  11  12
ATOM     12  C   UNL     1      -0.661   6.815  -4.790  0.00  0.00    +0.117 C 
BRANCH  12  13
ATOM     13  C   UNL     1      -2.124   6.808  -5.162  0.00  0.00    +0.114 C 
ATOM     14 CL   UNL     1      -2.426   5.666  -6.482  0.00  0.00    -0.112 Cl
ENDBRANCH  12  13
ENDBRANCH  11  12
ENDBRANCH   2  11
TORSDOF 5
ENDMDL
MODEL 5
REMARK VINA RESULT:      -4.7      2.768      4.403
REMARK  Name = 
REMARK  5 active torsions:
REMARK  status: ('A' for Active; 'I' for Inactive)
REMARK    1  A    between atoms: P_2  and  N_3
REMARK    2  A    between atoms: N_3  and  C_4
REMARK    3  A    between atoms: C_4  and  C_5
REMARK    4  A    between atoms: N_11  and  C_12
REMARK    5  A    between atoms: C_12  and  C_13
REMARK                            x       y       z     vdW  Elec       q    Type
REMARK                         _______ _______ _______ _____ _____    ______ ____
ROOT
ATOM      1  O   UNL     1       2.841   7.675  -7.043  0.00  0.00    -0.253 OA
ATOM      2  P   UNL     1       3.081   6.217  -6.973  0.00  0.00    +0.365 P 
ATOM      3  N   UNL     1       1.633   5.362  -6.550  0.00  0.00    -0.196 NA
ATOM      4  C   UNL     1       1.698   4.685  -5.288  0.00  0.00    +0.084 C 
ATOM      5  C   UNL     1       2.664   5.319  -4.318  0.00  0.00    +0.050 C 
ATOM      6  C   UNL     1       4.054   5.087  -4.879  0.00  0.00    +0.153 C 
ATOM      7  O   UNL     1       4.349   5.966  -5.902  0.00  0.00    -0.291 OA
ENDROOT
BRANCH   3   8
ATOM      8  C   UNL     1       0.449   6.174  -6.655  0.00  0.00    +0.099 C 
BRANCH   8   9
ATOM      9  C   UNL     1      -0.651   5.342  -7.256  0.00  0.00    +0.113 C 
ATOM     10 CL   UNL     1      -2.200   5.695  -6.483  0.00  0.00    -0.112 Cl
ENDBRANCH   8   9
ENDBRANCH   3   8
BRANCH   2  11
ATOM     11  N   UNL     1       3.580   5.601  -8.546  0.00  0.00    -0.132 NA
BRANCH  11  12
ATOM     12  C   UNL     1       4.955   5.182  -8.518  0.00  0.00    +0.117 C 
BRANCH  12  13
ATOM     13  C   UNL     1       5.692   5.740  -9.712  0.00  0.00    +0.114 C 
ATOM     14 CL   UNL     1       7.434   5.803  -9.397  0.00  0.00    -0.112 Cl
ENDBRANCH  12  13
ENDBRANCH  11  12
ENDBRANCH   2  11
TORSDOF 5
ENDMDL
MODEL 6
REMARK VINA RESULT:      -4.6      2.656      4.729
REMARK  Name = 
REMARK  5 active torsions:
REMARK  status: ('A' for Active; 'I' for Inactive)
REMARK    1  A    between atoms: P_2  and  N_3
REMARK    2  A    between atoms: N_3  and  C_4
REMARK    3  A    between atoms: C_4  and  C_5
REMARK    4  A    between atoms: N_11  and  C_12
REMARK    5  A    between atoms: C_12  and  C_13
REMARK                            x       y       z     vdW  Elec       q    Type
REMARK                         _______ _______ _______ _____ _____    ______ ____
ROOT
ATOM      1  O   UNL     1       0.770   4.211  -5.892  0.00  0.00    -0.253 OA
ATOM      2  P   UNL     1       0.157   5.465  -6.383  0.00  0.00    +0.365 P 
ATOM      3  N   UNL     1       0.203   6.703  -5.169  0.00  0.00    -0.196 NA
ATOM      4  C   UNL     1      -1.088   7.123  -4.709  0.00  0.00    +0.084 C 
ATOM      5  C   UNL     1      -2.147   6.056  -4.842  0.00  0.00    +0.050 C 
ATOM      6  C   UNL     1      -2.381   5.863  -6.328  0.00  0.00    +0.153 C 
ATOM      7  O   UNL     1      -1.393   5.095  -6.910  0.00  0.00    -0.291 OA
ENDROOT
BRANCH   3   8
ATOM      8  C   UNL     1       1.078   6.383  -4.072  0.00  0.00    +0.099 C 
BRANCH   8   9
ATOM      9  C   UNL     1       2.466   6.855  -4.414  0.00  0.00    +0.113 C 
ATOM     10 CL   UNL     1       3.611   5.509  -4.387  0.00  0.00    -0.112 Cl
ENDBRANCH   8   9
ENDBRANCH   3   8
BRANCH   2  11
ATOM     11  N   UNL     1       1.057   6.089  -7.763  0.00  0.00    -0.132 NA
BRANCH  11  12
ATOM     12  C   UNL     1       0.693   5.393  -8.967  0.00  0.00    +0.117 C 
BRANCH  12  13
ATOM     13  C   UNL     1       1.930   4.879  -9.663  0.00  0.00    +0.114 C 
ATOM     14 CL   UNL     1       2.773   3.698  -8.647  0.00  0.00    -0.112 Cl
ENDBRANCH  12  13
ENDBRANCH  11  12
ENDBRANCH   2  11
TORSDOF 5
ENDMDL
MODEL 7
REMARK VINA RESULT:      -4.6      3.560      5.169
REMARK  Name = 
REMARK  5 active torsions:
REMARK  status: ('A' for Active; 'I' for Inactive)
REMARK    1  A    between atoms: P_2  and  N_3
REMARK    2  A    between atoms: N_3  and  C_4
REMARK    3  A    between atoms: C_4  and  C_5
REMARK    4  A    between atoms: N_11  and  C_12
REMARK    5  A    between atoms: C_12  and  C_13
REMARK                            x       y       z     vdW  Elec       q    Type
REMARK                         _______ _______ _______ _____ _____    ______ ____
ROOT
ATOM      1  O   UNL     1       1.056   4.858  -4.311  0.00  0.00    -0.253 OA
ATOM      2  P   UNL     1       0.714   5.922  -5.280  0.00  0.00    +0.365 P 
ATOM      3  N   UNL     1      -0.672   6.825  -4.757  0.00  0.00    -0.196 NA
ATOM      4  C   UNL     1      -1.813   6.701  -5.616  0.00  0.00    +0.084 C 
ATOM      5  C   UNL     1      -1.844   5.403  -6.385  0.00  0.00    +0.050 C 
ATOM      6  C   UNL     1      -0.699   5.462  -7.378  0.00  0.00    +0.153 C 
ATOM      7  O   UNL     1       0.516   5.193  -6.779  0.00  0.00    -0.291 OA
ENDROOT
BRANCH   3   8
ATOM      8  C   UNL     1      -1.016   6.580  -3.381  0.00  0.00    +0.099 C 
BRANCH   8   9
ATOM      9  C   UNL     1      -2.187   7.453  -3.018  0.00  0.00    +0.113 C 
ATOM     10 CL   UNL     1      -3.555   6.473  -2.476  0.00  0.00    -0.112 Cl
ENDBRANCH   8   9
ENDBRANCH   3   8
BRANCH   2  11
ATOM     11  N   UNL     1       2.037   7.077  -5.417  0.00  0.00    -0.132 NA
BRANCH  11  12
ATOM     12  C   UNL     1       3.067   6.573  -6.285  0.00  0.00    +0.117 C 
BRANCH  12  13
ATOM     13  C   UNL     1       4.311   6.264  -5.487  0.00  0.00    +0.114 C 
ATOM     14 CL   UNL     1       4.778   7.656  -4.496  0.00  0.00    -0.112 Cl
ENDBRANCH  12  13
ENDBRANCH  11  12
ENDBRANCH   2  11
TORSDOF 5
ENDMDL
MODEL 8
REMARK VINA RESULT:      -4.6      2.815      4.496
REMARK  Name = 
REMARK  5 active torsions:
REMARK  status: ('A' for Active; 'I' for Inactive)
REMARK    1  A    between atoms: P_2  and  N_3
REMARK    2  A    between atoms: N_3  and  C_4
REMARK    3  A    between atoms: C_4  and  C_5
REMARK    4  A    between atoms: N_11  and  C_12
REMARK    5  A    between atoms: C_12  and  C_13
REMARK                            x       y       z     vdW  Elec       q    Type
REMARK                         _______ _______ _______ _____ _____    ______ ____
ROOT
ATOM      1  O   UNL     1       2.789   3.567  -8.735  0.00  0.00    -0.253 OA
ATOM      2  P   UNL     1       2.524   4.894  -8.139  0.00  0.00    +0.365 P 
ATOM      3  N   UNL     1       3.995   5.657  -7.626  0.00  0.00    -0.196 NA
ATOM      4  C   UNL     1       4.088   5.863  -6.211  0.00  0.00    +0.084 C 
ATOM      5  C   UNL     1       3.283   4.871  -5.408  0.00  0.00    +0.050 C 
ATOM      6  C   UNL     1       1.823   5.178  -5.682  0.00  0.00    +0.153 C 
ATOM      7  O   UNL     1       1.411   4.677  -6.901  0.00  0.00    -0.291 OA
ENDROOT
BRANCH   3   8
ATOM      8  C   UNL     1       5.173   5.016  -8.148  0.00  0.00    +0.099 C 
BRANCH   8   9
ATOM      9  C   UNL     1       5.590   5.729  -9.405  0.00  0.00    +0.113 C 
ATOM     10 CL   UNL     1       7.350   5.860  -9.499  0.00  0.00    -0.112 Cl
ENDBRANCH   8   9
ENDBRANCH   3   8
BRANCH   2  11
ATOM     11  N   UNL     1       1.796   5.968  -9.330  0.00  0.00    -0.132 NA
BRANCH  11  12
ATOM     12  C   UNL     1       0.396   5.679  -9.489  0.00  0.00    +0.117 C 
BRANCH  12  13
ATOM     13  C   UNL     1       0.014   5.753 -10.948  0.00  0.00    +0.114 C 
ATOM     14 CL   UNL     1      -0.504   7.393 -11.375  0.00  0.00    -0.112 Cl
ENDBRANCH  12  13
ENDBRANCH  11  12
ENDBRANCH   2  11
TORSDOF 5
ENDMDL
MODEL 9
REMARK VINA RESULT:      -4.6      2.837      4.047
REMARK  Name = 
REMARK  5 active torsions:
REMARK  status: ('A' for Active; 'I' for Inactive)
REMARK    1  A    between atoms: P_2  and  N_3
REMARK    2  A    between atoms: N_3  and  C_4
REMARK    3  A    between atoms: C_4  and  C_5
REMARK    4  A    between atoms: N_11  and  C_12
REMARK    5  A    between atoms: C_12  and  C_13
REMARK                            x       y       z     vdW  Elec       q    Type
REMARK                         _______ _______ _______ _____ _____    ______ ____
ROOT
ATOM      1  O   UNL     1       1.276   7.038  -6.955  0.00  0.00    -0.253 OA
ATOM      2  P   UNL     1       0.863   5.677  -7.363  0.00  0.00    +0.365 P 
ATOM      3  N   UNL     1       2.188   4.563  -7.265  0.00  0.00    -0.196 NA
ATOM      4  C   UNL     1       2.592   4.016  -8.527  0.00  0.00    +0.084 C 
ATOM      5  C   UNL     1       2.284   4.920  -9.696  0.00  0.00    +0.050 C 
ATOM      6  C   UNL     1       0.773   4.954  -9.828  0.00  0.00    +0.153 C 
ATOM      7  O   UNL     1       0.194   5.794  -8.898  0.00  0.00    -0.291 OA
ENDROOT
BRANCH   3   8
ATOM      8  C   UNL     1       3.310   5.086  -6.531  0.00  0.00    +0.099 C 
BRANCH   8   9
ATOM      9  C   UNL     1       3.177   4.670  -5.091  0.00  0.00    +0.113 C 
ATOM     10 CL   UNL     1       4.701   4.904  -4.226  0.00  0.00    -0.112 Cl
ENDBRANCH   8   9
ENDBRANCH   3   8
BRANCH   2  11
ATOM     11  N   UNL     1      -0.384   5.064  -6.281  0.00  0.00    -0.132 NA
BRANCH  11  12
ATOM     12  C   UNL     1      -0.575   5.953  -5.167  0.00  0.00    +0.117 C 
BRANCH  12  13
ATOM     13  C   UNL     1      -1.918   6.634  -5.272  0.00  0.00    +0.114 C 
ATOM     14 CL   UNL     1      -1.848   8.262  -4.575  0.00  0.00    -0.112 Cl
ENDBRANCH  12  13
ENDBRANCH  11  12
ENDBRANCH   2  11
TORSDOF 5
ENDMDL
