MODEL 1
REMARK VINA RESULT:      -5.6      0.000      0.000
REMARK  Name = 
REMARK  2 active torsions:
REMARK  status: ('A' for Active; 'I' for Inactive)
REMARK    1  A    between atoms: C_2  and  C_3
REMARK    2  A    between atoms: C_3  and  C_5
REMARK                            x       y       z     vdW  Elec       q    Type
REMARK                         _______ _______ _______ _____ _____    ______ ____
ROOT
ATOM      1  C   UNL     1       7.208   6.900 -10.807  0.00  0.00    +0.013 A 
ATOM      2  C   UNL     1       6.948   5.786 -10.035  0.00  0.00    +0.044 A 
ATOM      3  C   UNL     1       5.786   5.709  -9.297  0.00  0.00    +0.234 A 
ATOM      4  O   UNL     1       5.655   4.840  -8.224  0.00  0.00    -0.283 OA
ATOM      5  C   UNL     1       4.625   6.235  -9.848  0.00  0.00    +0.234 A 
ATOM      6  O   UNL     1       3.410   5.593  -9.711  0.00  0.00    -0.283 OA
ATOM      7  C   UNL     1       4.814   7.336 -10.672  0.00  0.00    +0.045 A 
ATOM      8  C   UNL     1       6.073   7.619 -11.174  0.00  0.00    +0.002 A 
ENDROOT
BRANCH   1   9
ATOM      9  C   UNL     1       8.017   6.507 -12.202  0.00  0.00    +0.193 C 
ATOM     10  O   UNL     1       8.898   5.478 -11.442  0.00  0.00    -0.217 OA
BRANCH   9  12
ATOM     11  N   UNL     1       7.403   4.888 -13.476  0.00  0.00    -0.128 NA
ATOM     12  C   UNL     1       6.895   5.308 -12.595  0.00  0.00    +0.147 C 
ENDBRANCH   9  12
ENDBRANCH   1   9
TORSDOF 2
ENDMDL
MODEL 2
REMARK VINA RESULT:      -5.5      2.623      4.413
REMARK  Name = 
REMARK  2 active torsions:
REMARK  status: ('A' for Active; 'I' for Inactive)
REMARK    1  A    between atoms: C_2  and  C_3
REMARK    2  A    between atoms: C_3  and  C_5
REMARK                            x       y       z     vdW  Elec       q    Type
REMARK                         _______ _______ _______ _____ _____    ______ ____
ROOT
ATOM      1  C   UNL     1       5.417   5.872  -9.741  0.00  0.00    +0.013 A 
ATOM      2  C   UNL     1       4.943   5.401 -10.948  0.00  0.00    +0.044 A 
ATOM      3  C   UNL     1       5.716   5.504 -12.085  0.00  0.00    +0.234 A 
ATOM      4  O   UNL     1       5.164   5.428 -13.356  0.00  0.00    -0.283 OA
ATOM      5  C   UNL     1       7.087   5.320 -11.964  0.00  0.00    +0.234 A 
ATOM      6  O   UNL     1       7.804   4.620 -12.914  0.00  0.00    -0.283 OA
ATOM      7  C   UNL     1       7.629   5.734 -10.756  0.00  0.00    +0.045 A 
ATOM      8  C   UNL     1       6.806   5.951  -9.663  0.00  0.00    +0.002 A 
ENDROOT
BRANCH   1   9
ATOM      9  C   UNL     1       4.904   4.938  -8.469  0.00  0.00    +0.193 C 
ATOM     10  O   UNL     1       4.145   6.142  -7.846  0.00  0.00    -0.217 OA
BRANCH   9  12
ATOM     11  N   UNL     1       2.978   3.981  -8.464  0.00  0.00    -0.128 NA
ATOM     12  C   UNL     1       3.517   4.450  -9.301  0.00  0.00    +0.147 C 
ENDBRANCH   9  12
ENDBRANCH   1   9
TORSDOF 2
ENDMDL
MODEL 3
REMARK VINA RESULT:      -5.3      7.628      9.098
REMARK  Name = 
REMARK  2 active torsions:
REMARK  status: ('A' for Active; 'I' for Inactive)
REMARK    1  A    between atoms: C_2  and  C_3
REMARK    2  A    between atoms: C_3  and  C_5
REMARK                            x       y       z     vdW  Elec       q    Type
REMARK                         _______ _______ _______ _____ _____    ______ ____
ROOT
ATOM      1  C   UNL     1      -0.131   6.021  -5.393  0.00  0.00    +0.013 A 
ATOM      2  C   UNL     1       0.178   5.309  -4.253  0.00  0.00    +0.044 A 
ATOM      3  C   UNL     1      -0.644   5.375  -3.148  0.00  0.00    +0.234 A 
ATOM      4  O   UNL     1      -0.199   5.027  -1.881  0.00  0.00    -0.283 OA
ATOM      5  C   UNL     1      -2.015   5.442  -3.356  0.00  0.00    +0.234 A 
ATOM      6  O   UNL     1      -2.897   4.743  -2.556  0.00  0.00    -0.283 OA
ATOM      7  C   UNL     1      -2.400   6.111  -4.509  0.00  0.00    +0.045 A 
ATOM      8  C   UNL     1      -1.481   6.342  -5.518  0.00  0.00    +0.002 A 
ENDROOT
BRANCH   1   9
ATOM      9  C   UNL     1       0.313   5.206  -6.769  0.00  0.00    +0.193 C 
ATOM     10  O   UNL     1       1.371   6.291  -7.111  0.00  0.00    -0.217 OA
BRANCH   9  12
ATOM     11  N   UNL     1       2.072   3.969  -6.797  0.00  0.00    -0.128 NA
ATOM     12  C   UNL     1       1.467   4.295  -5.937  0.00  0.00    +0.147 C 
ENDBRANCH   9  12
ENDBRANCH   1   9
TORSDOF 2
ENDMDL
MODEL 4
REMARK VINA RESULT:      -5.2      8.119     10.073
REMARK  Name = 
REMARK  2 active torsions:
REMARK  status: ('A' for Active; 'I' for Inactive)
REMARK    1  A    between atoms: C_2  and  C_3
REMARK    2  A    between atoms: C_3  and  C_5
REMARK                            x       y       z     vdW  Elec       q    Type
REMARK                         _______ _______ _______ _____ _____    ______ ____
ROOT
ATOM      1  C   UNL     1      -1.382   5.407  -4.569  0.00  0.00    +0.013 A 
ATOM      2  C   UNL     1      -0.006   5.307  -4.574  0.00  0.00    +0.044 A 
ATOM      3  C   UNL     1       0.658   4.920  -5.718  0.00  0.00    +0.234 A 
ATOM      4  O   UNL     1       1.952   4.422  -5.683  0.00  0.00    -0.283 OA
ATOM      5  C   UNL     1       0.171   5.365  -6.940  0.00  0.00    +0.234 A 
ATOM      6  O   UNL     1       1.023   5.771  -7.948  0.00  0.00    -0.283 OA
ATOM      7  C   UNL     1      -1.206   5.529  -6.997  0.00  0.00    +0.045 A 
ATOM      8  C   UNL     1      -1.946   5.599  -5.828  0.00  0.00    +0.002 A 
ENDROOT
BRANCH   1   9
ATOM      9  C   UNL     1      -1.907   6.647  -3.599  0.00  0.00    +0.193 C 
ATOM     10  O   UNL     1      -2.757   7.238  -4.756  0.00  0.00    -0.217 OA
BRANCH   9  12
ATOM     11  N   UNL     1      -2.695   5.107  -2.322  0.00  0.00    -0.128 NA
ATOM     12  C   UNL     1      -3.224   5.745  -3.046  0.00  0.00    +0.147 C 
ENDBRANCH   9  12
ENDBRANCH   1   9
TORSDOF 2
ENDMDL
MODEL 5
REMARK VINA RESULT:      -5.1      2.319      4.381
REMARK  Name = 
REMARK  2 active torsions:
REMARK  status: ('A' for Active; 'I' for Inactive)
REMARK    1  A    between atoms: C_2  and  C_3
REMARK    2  A    between atoms: C_3  and  C_5
REMARK                            x       y       z     vdW  Elec       q    Type
REMARK                         _______ _______ _______ _____ _____    ______ ____
ROOT
ATOM      1  C   UNL     1       4.885   6.278 -11.478  0.00  0.00    +0.013 A 
ATOM      2  C   UNL     1       5.561   5.317 -12.201  0.00  0.00    +0.044 A 
ATOM      3  C   UNL     1       6.814   5.586 -12.711  0.00  0.00    +0.234 A 
ATOM      4  O   UNL     1       7.356   4.845 -13.752  0.00  0.00    -0.283 OA
ATOM      5  C   UNL     1       7.679   6.358 -11.948  0.00  0.00    +0.234 A 
ATOM      6  O   UNL     1       9.025   6.059 -11.865  0.00  0.00    -0.283 OA
ATOM      7  C   UNL     1       7.065   7.322 -11.161  0.00  0.00    +0.045 A 
ATOM      8  C   UNL     1       5.708   7.241 -10.898  0.00  0.00    +0.002 A 
ENDROOT
BRANCH   1   9
ATOM      9  C   UNL     1       3.975   5.608 -10.262  0.00  0.00    +0.193 C 
ATOM     10  O   UNL     1       3.795   6.995  -9.586  0.00  0.00    -0.217 OA
BRANCH   9  12
ATOM     11  N   UNL     1       1.976   6.389 -10.389  0.00  0.00    -0.128 NA
ATOM     12  C   UNL     1       2.542   5.808 -11.133  0.00  0.00    +0.147 C 
ENDBRANCH   9  12
ENDBRANCH   1   9
TORSDOF 2
ENDMDL
MODEL 6
REMARK VINA RESULT:      -5.1      2.697      4.626
REMARK  Name = 
REMARK  2 active torsions:
REMARK  status: ('A' for Active; 'I' for Inactive)
REMARK    1  A    between atoms: C_2  and  C_3
REMARK    2  A    between atoms: C_3  and  C_5
REMARK                            x       y       z     vdW  Elec       q    Type
REMARK                         _______ _______ _______ _____ _____    ______ ____
ROOT
ATOM      1  C   UNL     1       4.575   6.131  -9.483  0.00  0.00    +0.013 A 
ATOM      2  C   UNL     1       4.868   6.918 -10.578  0.00  0.00    +0.044 A 
ATOM      3  C   UNL     1       6.157   7.356 -10.792  0.00  0.00    +0.234 A 
ATOM      4  O   UNL     1       6.437   8.442 -11.609  0.00  0.00    -0.283 OA
ATOM      5  C   UNL     1       7.202   6.494 -10.485  0.00  0.00    +0.234 A 
ATOM      6  O   UNL     1       8.312   6.393 -11.299  0.00  0.00    -0.283 OA
ATOM      7  C   UNL     1       6.962   5.641  -9.417  0.00  0.00    +0.045 A 
ATOM      8  C   UNL     1       5.667   5.434  -8.971  0.00  0.00    +0.002 A 
ENDROOT
BRANCH   1   9
ATOM      9  C   UNL     1       3.393   5.016  -9.824  0.00  0.00    +0.193 C 
ATOM     10  O   UNL     1       3.687   4.251  -8.504  0.00  0.00    -0.217 OA
BRANCH   9  12
ATOM     11  N   UNL     1       2.081   5.338  -8.151  0.00  0.00    -0.128 NA
ATOM     12  C   UNL     1       2.205   5.944  -9.061  0.00  0.00    +0.147 C 
ENDBRANCH   9  12
ENDBRANCH   1   9
TORSDOF 2
ENDMDL
MODEL 7
REMARK VINA RESULT:      -5.0      1.481      2.174
REMARK  Name = 
REMARK  2 active torsions:
REMARK  status: ('A' for Active; 'I' for Inactive)
REMARK    1  A    between atoms: C_2  and  C_3
REMARK    2  A    between atoms: C_3  and  C_5
REMARK                            x       y       z     vdW  Elec       q    Type
REMARK                         _______ _______ _______ _____ _____    ______ ____
ROOT
ATOM      1  C   UNL     1       6.110   5.505 -10.937  0.00  0.00    +0.013 A 
ATOM      2  C   UNL     1       4.769   5.727 -11.176  0.00  0.00    +0.044 A 
ATOM      3  C   UNL     1       3.840   5.505 -10.182  0.00  0.00    +0.234 A 
ATOM      4  O   UNL     1       2.494   5.321 -10.464  0.00  0.00    -0.283 OA
ATOM      5  C   UNL     1       4.189   5.826  -8.877  0.00  0.00    +0.234 A 
ATOM      6  O   UNL     1       3.286   6.419  -8.018  0.00  0.00    -0.283 OA
ATOM      7  C   UNL     1       5.534   5.665  -8.574  0.00  0.00    +0.045 A 
ATOM      8  C   UNL     1       6.467   5.561  -9.592  0.00  0.00    +0.002 A 
ENDROOT
BRANCH   1   9
ATOM      9  C   UNL     1       7.069   6.589 -11.749  0.00  0.00    +0.193 C 
ATOM     10  O   UNL     1       7.790   6.989 -10.432  0.00  0.00    -0.217 OA
BRANCH   9  12
ATOM     11  N   UNL     1       7.747   4.920 -12.923  0.00  0.00    -0.128 NA
ATOM     12  C   UNL     1       8.239   5.413 -12.071  0.00  0.00    +0.147 C 
ENDBRANCH   9  12
ENDBRANCH   1   9
TORSDOF 2
ENDMDL
MODEL 8
REMARK VINA RESULT:      -4.9      8.489     10.182
REMARK  Name = 
REMARK  2 active torsions:
REMARK  status: ('A' for Active; 'I' for Inactive)
REMARK    1  A    between atoms: C_2  and  C_3
REMARK    2  A    between atoms: C_3  and  C_5
REMARK                            x       y       z     vdW  Elec       q    Type
REMARK                         _______ _______ _______ _____ _____    ______ ____
ROOT
ATOM      1  C   UNL     1      -0.743   6.979  -4.355  0.00  0.00    +0.013 A 
ATOM      2  C   UNL     1      -1.191   6.308  -5.474  0.00  0.00    +0.044 A 
ATOM      3  C   UNL     1      -0.302   5.620  -6.272  0.00  0.00    +0.234 A 
ATOM      4  O   UNL     1      -0.605   5.279  -7.583  0.00  0.00    -0.283 OA
ATOM      5  C   UNL     1       0.747   4.950  -5.657  0.00  0.00    +0.234 A 
ATOM      6  O   UNL     1       1.152   3.701  -6.087  0.00  0.00    -0.283 OA
ATOM      7  C   UNL     1       1.224   5.546  -4.499  0.00  0.00    +0.045 A 
ATOM      8  C   UNL     1       0.462   6.500  -3.845  0.00  0.00    +0.002 A 
ENDROOT
BRANCH   1   9
ATOM      9  C   UNL     1      -1.854   6.934  -3.123  0.00  0.00    +0.193 C 
ATOM     10  O   UNL     1      -3.027   6.866  -4.138  0.00  0.00    -0.217 OA
BRANCH   9  12
ATOM     11  N   UNL     1      -2.597   5.088  -2.308  0.00  0.00    -0.128 NA
ATOM     12  C   UNL     1      -1.787   5.248  -3.035  0.00  0.00    +0.147 C 
ENDBRANCH   9  12
ENDBRANCH   1   9
TORSDOF 2
ENDMDL
MODEL 9
REMARK VINA RESULT:      -4.8      2.525      3.684
REMARK  Name = 
REMARK  2 active torsions:
REMARK  status: ('A' for Active; 'I' for Inactive)
REMARK    1  A    between atoms: C_2  and  C_3
REMARK    2  A    between atoms: C_3  and  C_5
REMARK                            x       y       z     vdW  Elec       q    Type
REMARK                         _______ _______ _______ _____ _____    ______ ____
ROOT
ATOM      1  C   UNL     1       4.249   5.379  -9.805  0.00  0.00    +0.013 A 
ATOM      2  C   UNL     1       3.189   6.086 -10.334  0.00  0.00    +0.044 A 
ATOM      3  C   UNL     1       2.201   6.578  -9.508  0.00  0.00    +0.234 A 
ATOM      4  O   UNL     1       0.948   6.927  -9.990  0.00  0.00    -0.283 OA
ATOM      5  C   UNL     1       2.573   7.066  -8.262  0.00  0.00    +0.234 A 
ATOM      6  O   UNL     1       1.998   8.207  -7.738  0.00  0.00    -0.283 OA
ATOM      7  C   UNL     1       3.662   6.428  -7.684  0.00  0.00    +0.045 A 
ATOM      8  C   UNL     1       4.502   5.648  -8.461  0.00  0.00    +0.002 A 
ENDROOT
BRANCH   1   9
ATOM      9  C   UNL     1       5.656   5.662 -10.638  0.00  0.00    +0.193 C 
ATOM     10  O   UNL     1       4.983   5.260 -11.979  0.00  0.00    -0.217 OA
BRANCH   9  12
ATOM     11  N   UNL     1       6.261   7.660 -11.153  0.00  0.00    -0.128 NA
ATOM     12  C   UNL     1       5.261   7.285 -10.887  0.00  0.00    +0.147 C 
ENDBRANCH   9  12
ENDBRANCH   1   9
TORSDOF 2
ENDMDL
