MODEL 1
REMARK VINA RESULT:      -8.1      0.000      0.000
REMARK  Name = 
REMARK  4 active torsions:
REMARK  status: ('A' for Active; 'I' for Inactive)
REMARK    1  A    between atoms: C_5  and  C_6
REMARK    2  A    between atoms: C_11  and  C_12
REMARK    3  A    between atoms: C_12  and  O_13
REMARK    4  A    between atoms: O_13  and  C_14
REMARK                            x       y       z     vdW  Elec       q    Type
REMARK                         _______ _______ _______ _____ _____    ______ ____
ROOT
ATOM      1  C   UNL     1      -1.034   5.186  -2.492  0.00  0.00    +0.029 C 
ATOM      2  C   UNL     1      -0.162   6.518  -1.879  0.00  0.00    +0.065 C 
ATOM      3  C   UNL     1      -0.854   6.438  -0.413  0.00  0.00    +0.093 C 
ATOM      4  N   UNL     1      -1.856   7.496  -0.544  0.00  0.00    -0.218 NA
ATOM      5  C   UNL     1      -2.464   7.189  -1.838  0.00  0.00    +0.089 C 
ATOM      6  C   UNL     1      -2.491   5.722  -1.998  0.00  0.00    +0.023 C 
ENDROOT
BRANCH   1  11
ATOM      7  F   UNL     1      -1.253   4.994  -7.831  0.00  0.00    -0.204 F 
ATOM      8  C   UNL     1      -1.130   5.237  -6.752  0.00  0.00    +0.140 A 
ATOM      9  C   UNL     1      -2.169   5.869  -6.081  0.00  0.00    +0.029 A 
ATOM     10  C   UNL     1      -2.215   5.813  -4.692  0.00  0.00    -0.002 A 
ATOM     11  C   UNL     1      -1.090   5.792  -3.970  0.00  0.00    -0.022 A 
ATOM     12  C   UNL     1       0.071   5.443  -4.661  0.00  0.00    -0.002 A 
ATOM     13  C   UNL     1       0.041   5.113  -6.011  0.00  0.00    +0.029 A 
ENDBRANCH   1  11
BRANCH   2  14
ATOM     14  C   UNL     1       1.105   5.627  -1.386  0.00  0.00    +0.207 C 
BRANCH  14  15
ATOM     15  O   UNL     1       2.259   6.282  -1.603  0.00  0.00    -0.475 OA
BRANCH  15  16
ATOM     16  C   UNL     1       3.264   6.271  -2.506  0.00  0.00    +0.142 A 
ATOM     17  C   UNL     1       3.167   7.191  -3.550  0.00  0.00    +0.077 A 
ATOM     18  C   UNL     1       3.467   6.848  -4.865  0.00  0.00    +0.179 A 
ATOM     19  O   UNL     1       3.458   7.541  -6.078  0.00  0.00    -0.435 OA
ATOM     20  C   UNL     1       3.166   6.600  -7.100  0.00  0.00    +0.429 C 
ATOM     21  O   UNL     1       3.463   5.346  -6.494  0.00  0.00    -0.435 OA
ATOM     22  C   UNL     1       3.833   5.545  -5.180  0.00  0.00    +0.177 A 
ATOM     23  C   UNL     1       4.109   4.672  -4.134  0.00  0.00    +0.043 A 
ATOM     24  C   UNL     1       4.064   5.184  -2.841  0.00  0.00    +0.040 A 
ENDBRANCH  15  16
ENDBRANCH  14  15
ENDBRANCH   2  14
TORSDOF 4
ENDMDL
MODEL 2
REMARK VINA RESULT:      -8.0      4.226      6.236
REMARK  Name = 
REMARK  4 active torsions:
REMARK  status: ('A' for Active; 'I' for Inactive)
REMARK    1  A    between atoms: C_5  and  C_6
REMARK    2  A    between atoms: C_11  and  C_12
REMARK    3  A    between atoms: C_12  and  O_13
REMARK    4  A    between atoms: O_13  and  C_14
REMARK                            x       y       z     vdW  Elec       q    Type
REMARK                         _______ _______ _______ _____ _____    ______ ____
ROOT
ATOM      1  C   UNL     1       2.367   4.737  -6.284  0.00  0.00    +0.029 C 
ATOM      2  C   UNL     1       3.316   5.904  -7.090  0.00  0.00    +0.065 C 
ATOM      3  C   UNL     1       4.658   5.557  -6.247  0.00  0.00    +0.093 C 
ATOM      4  N   UNL     1       4.634   6.643  -5.268  0.00  0.00    -0.218 NA
ATOM      5  C   UNL     1       3.250   6.608  -4.799  0.00  0.00    +0.089 C 
ATOM      6  C   UNL     1       2.804   5.201  -4.784  0.00  0.00    +0.023 C 
ENDROOT
BRANCH   1  11
ATOM      7  F   UNL     1      -2.908   5.607  -6.385  0.00  0.00    -0.204 F 
ATOM      8  C   UNL     1      -1.797   5.621  -6.464  0.00  0.00    +0.140 A 
ATOM      9  C   UNL     1      -1.058   6.227  -5.457  0.00  0.00    +0.029 A 
ATOM     10  C   UNL     1       0.289   5.909  -5.317  0.00  0.00    -0.002 A 
ATOM     11  C   UNL     1       1.038   5.619  -6.386  0.00  0.00    -0.022 A 
ATOM     12  C   UNL     1       0.341   5.280  -7.545  0.00  0.00    -0.002 A 
ATOM     13  C   UNL     1      -1.048   5.223  -7.566  0.00  0.00    +0.029 A 
ENDBRANCH   1  11
BRANCH   2  14
ATOM     14  C   UNL     1       3.752   4.905  -8.295  0.00  0.00    +0.207 C 
BRANCH  14  15
ATOM     15  O   UNL     1       5.062   5.033  -8.567  0.00  0.00    -0.475 OA
BRANCH  15  16
ATOM     16  C   UNL     1       5.848   5.753  -9.398  0.00  0.00    +0.142 A 
ATOM     17  C   UNL     1       5.307   6.066 -10.644  0.00  0.00    +0.077 A 
ATOM     18  C   UNL     1       6.053   5.975 -11.816  0.00  0.00    +0.179 A 
ATOM     19  O   UNL     1       5.779   6.216 -13.165  0.00  0.00    -0.435 OA
ATOM     20  C   UNL     1       6.597   5.338 -13.924  0.00  0.00    +0.429 C 
ATOM     21  O   UNL     1       7.617   4.954 -13.008  0.00  0.00    -0.435 OA
ATOM     22  C   UNL     1       7.364   5.518 -11.774  0.00  0.00    +0.177 A 
ATOM     23  C   UNL     1       7.969   5.378 -10.530  0.00  0.00    +0.043 A 
ATOM     24  C   UNL     1       7.239   5.771  -9.413  0.00  0.00    +0.040 A 
ENDBRANCH  15  16
ENDBRANCH  14  15
ENDBRANCH   2  14
TORSDOF 4
ENDMDL
MODEL 3
REMARK VINA RESULT:      -8.0      5.209      7.321
REMARK  Name = 
REMARK  4 active torsions:
REMARK  status: ('A' for Active; 'I' for Inactive)
REMARK    1  A    between atoms: C_5  and  C_6
REMARK    2  A    between atoms: C_11  and  C_12
REMARK    3  A    between atoms: C_12  and  O_13
REMARK    4  A    between atoms: O_13  and  C_14
REMARK                            x       y       z     vdW  Elec       q    Type
REMARK                         _______ _______ _______ _____ _____    ______ ____
ROOT
ATOM      1  C   UNL     1       1.579   4.862  -9.397  0.00  0.00    +0.029 C 
ATOM      2  C   UNL     1       2.806   5.648  -8.508  0.00  0.00    +0.065 C 
ATOM      3  C   UNL     1       2.488   4.835  -7.141  0.00  0.00    +0.093 C 
ATOM      4  N   UNL     1       1.699   5.836  -6.423  0.00  0.00    -0.218 NA
ATOM      5  C   UNL     1       0.748   6.272  -7.446  0.00  0.00    +0.089 C 
ATOM      6  C   UNL     1       0.411   5.107  -8.287  0.00  0.00    +0.023 C 
ENDROOT
BRANCH   1  11
ATOM      7  F   UNL     1      -0.108   7.506 -13.729  0.00  0.00    -0.204 F 
ATOM      8  C   UNL     1       0.357   7.140 -12.785  0.00  0.00    +0.140 A 
ATOM      9  C   UNL     1      -0.275   7.401 -11.577  0.00  0.00    +0.029 A 
ATOM     10  C   UNL     1       0.041   6.632 -10.463  0.00  0.00    -0.002 A 
ATOM     11  C   UNL     1       1.278   6.154 -10.290  0.00  0.00    -0.022 A 
ATOM     12  C   UNL     1       2.088   6.135 -11.426  0.00  0.00    -0.002 A 
ATOM     13  C   UNL     1       1.616   6.562 -12.662  0.00  0.00    +0.029 A 
ENDBRANCH   1  11
BRANCH   2  14
ATOM     14  C   UNL     1       3.966   4.591  -8.929  0.00  0.00    +0.207 C 
BRANCH  14  15
ATOM     15  O   UNL     1       5.182   5.153  -8.820  0.00  0.00    -0.475 OA
BRANCH  15  16
ATOM     16  C   UNL     1       6.060   5.806  -9.613  0.00  0.00    +0.142 A 
ATOM     17  C   UNL     1       5.573   6.247 -10.843  0.00  0.00    +0.077 A 
ATOM     18  C   UNL     1       6.309   6.118 -12.017  0.00  0.00    +0.179 A 
ATOM     19  O   UNL     1       6.079   6.456 -13.352  0.00  0.00    -0.435 OA
ATOM     20  C   UNL     1       6.783   5.519 -14.153  0.00  0.00    +0.429 C 
ATOM     21  O   UNL     1       7.739   4.965 -13.256  0.00  0.00    -0.435 OA
ATOM     22  C   UNL     1       7.551   5.496 -11.995  0.00  0.00    +0.177 A 
ATOM     23  C   UNL     1       8.124   5.219 -10.760  0.00  0.00    +0.043 A 
ATOM     24  C   UNL     1       7.442   5.648  -9.625  0.00  0.00    +0.040 A 
ENDBRANCH  15  16
ENDBRANCH  14  15
ENDBRANCH   2  14
TORSDOF 4
ENDMDL
MODEL 4
REMARK VINA RESULT:      -7.8      4.550      6.785
REMARK  Name = 
REMARK  4 active torsions:
REMARK  status: ('A' for Active; 'I' for Inactive)
REMARK    1  A    between atoms: C_5  and  C_6
REMARK    2  A    between atoms: C_11  and  C_12
REMARK    3  A    between atoms: C_12  and  O_13
REMARK    4  A    between atoms: O_13  and  C_14
REMARK                            x       y       z     vdW  Elec       q    Type
REMARK                         _______ _______ _______ _____ _____    ______ ____
ROOT
ATOM      1  C   UNL     1       1.320   4.888  -6.310  0.00  0.00    +0.029 C 
ATOM      2  C   UNL     1       2.189   5.679  -7.546  0.00  0.00    +0.065 C 
ATOM      3  C   UNL     1       3.632   5.162  -7.014  0.00  0.00    +0.093 C 
ATOM      4  N   UNL     1       4.087   6.355  -6.300  0.00  0.00    -0.218 NA
ATOM      5  C   UNL     1       2.913   6.704  -5.502  0.00  0.00    +0.089 C 
ATOM      6  C   UNL     1       2.245   5.453  -5.093  0.00  0.00    +0.023 C 
ENDROOT
BRANCH   1  11
ATOM      7  F   UNL     1      -3.286   7.114  -4.752  0.00  0.00    -0.204 F 
ATOM      8  C   UNL     1      -2.340   6.793  -5.244  0.00  0.00    +0.140 A 
ATOM      9  C   UNL     1      -1.161   7.455  -4.933  0.00  0.00    +0.029 A 
ATOM     10  C   UNL     1       0.056   6.837  -5.197  0.00  0.00    -0.002 A 
ATOM     11  C   UNL     1       0.198   6.026  -6.250  0.00  0.00    -0.022 A 
ATOM     12  C   UNL     1      -0.985   5.544  -6.812  0.00  0.00    -0.002 A 
ATOM     13  C   UNL     1      -2.227   5.873  -6.281  0.00  0.00    +0.029 A 
ENDBRANCH   1  11
BRANCH   2  14
ATOM     14  C   UNL     1       2.074   4.443  -8.595  0.00  0.00    +0.207 C 
BRANCH  14  15
ATOM     15  O   UNL     1       1.932   4.899  -9.852  0.00  0.00    -0.475 OA
BRANCH  15  16
ATOM     16  C   UNL     1       0.927   5.251 -10.683  0.00  0.00    +0.142 A 
ATOM     17  C   UNL     1       1.159   5.067 -12.046  0.00  0.00    +0.077 A 
ATOM     18  C   UNL     1       0.788   6.019 -12.992  0.00  0.00    +0.179 A 
ATOM     19  O   UNL     1       0.895   6.102 -14.382  0.00  0.00    -0.435 OA
ATOM     20  C   UNL     1       1.014   7.477 -14.715  0.00  0.00    +0.429 C 
ATOM     21  O   UNL     1       0.524   8.145 -13.557  0.00  0.00    -0.435 OA
ATOM     22  C   UNL     1       0.209   7.215 -12.587  0.00  0.00    +0.177 A 
ATOM     23  C   UNL     1      -0.192   7.333 -11.261  0.00  0.00    +0.043 A 
ATOM     24  C   UNL     1      -0.045   6.216 -10.444  0.00  0.00    +0.040 A 
ENDBRANCH  15  16
ENDBRANCH  14  15
ENDBRANCH   2  14
TORSDOF 4
ENDMDL
MODEL 5
REMARK VINA RESULT:      -7.7      3.767      5.777
REMARK  Name = 
REMARK  4 active torsions:
REMARK  status: ('A' for Active; 'I' for Inactive)
REMARK    1  A    between atoms: C_5  and  C_6
REMARK    2  A    between atoms: C_11  and  C_12
REMARK    3  A    between atoms: C_12  and  O_13
REMARK    4  A    between atoms: O_13  and  C_14
REMARK                            x       y       z     vdW  Elec       q    Type
REMARK                         _______ _______ _______ _____ _____    ______ ____
ROOT
ATOM      1  C   UNL     1       2.101   4.916  -5.546  0.00  0.00    +0.029 C 
ATOM      2  C   UNL     1       3.086   5.894  -6.538  0.00  0.00    +0.065 C 
ATOM      3  C   UNL     1       4.393   5.733  -5.589  0.00  0.00    +0.093 C 
ATOM      4  N   UNL     1       4.337   6.998  -4.858  0.00  0.00    -0.218 NA
ATOM      5  C   UNL     1       2.935   7.057  -4.446  0.00  0.00    +0.089 C 
ATOM      6  C   UNL     1       2.482   5.682  -4.158  0.00  0.00    +0.023 C 
ENDROOT
BRANCH   1  11
ATOM      7  F   UNL     1      -3.115   5.623  -6.490  0.00  0.00    -0.204 F 
ATOM      8  C   UNL     1      -2.006   5.669  -6.397  0.00  0.00    +0.140 A 
ATOM      9  C   UNL     1      -1.448   6.324  -5.307  0.00  0.00    +0.029 A 
ATOM     10  C   UNL     1      -0.132   6.052  -4.950  0.00  0.00    -0.002 A 
ATOM     11  C   UNL     1       0.782   5.755  -5.880  0.00  0.00    -0.022 A 
ATOM     12  C   UNL     1       0.282   5.363  -7.122  0.00  0.00    -0.002 A 
ATOM     13  C   UNL     1      -1.084   5.263  -7.356  0.00  0.00    +0.029 A 
ENDBRANCH   1  11
BRANCH   2  14
ATOM     14  C   UNL     1       3.564   4.668  -7.492  0.00  0.00    +0.207 C 
BRANCH  14  15
ATOM     15  O   UNL     1       4.663   5.008  -8.188  0.00  0.00    -0.475 OA
BRANCH  15  16
ATOM     16  C   UNL     1       4.973   5.752  -9.272  0.00  0.00    +0.142 A 
ATOM     17  C   UNL     1       3.987   5.856 -10.252  0.00  0.00    +0.077 A 
ATOM     18  C   UNL     1       4.283   5.762 -11.609  0.00  0.00    +0.179 A 
ATOM     19  O   UNL     1       3.521   5.824 -12.779  0.00  0.00    -0.435 OA
ATOM     20  C   UNL     1       4.164   5.008 -13.746  0.00  0.00    +0.429 C 
ATOM     21  O   UNL     1       5.489   4.874 -13.242  0.00  0.00    -0.435 OA
ATOM     22  C   UNL     1       5.586   5.512 -12.023  0.00  0.00    +0.177 A 
ATOM     23  C   UNL     1       6.600   5.588 -11.075  0.00  0.00    +0.043 A 
ATOM     24  C   UNL     1       6.246   5.976  -9.786  0.00  0.00    +0.040 A 
ENDBRANCH  15  16
ENDBRANCH  14  15
ENDBRANCH   2  14
TORSDOF 4
ENDMDL
MODEL 6
REMARK VINA RESULT:      -7.7      3.220      6.412
REMARK  Name = 
REMARK  4 active torsions:
REMARK  status: ('A' for Active; 'I' for Inactive)
REMARK    1  A    between atoms: C_5  and  C_6
REMARK    2  A    between atoms: C_11  and  C_12
REMARK    3  A    between atoms: C_12  and  O_13
REMARK    4  A    between atoms: O_13  and  C_14
REMARK                            x       y       z     vdW  Elec       q    Type
REMARK                         _______ _______ _______ _____ _____    ______ ____
ROOT
ATOM      1  C   UNL     1       1.080   4.528  -5.971  0.00  0.00    +0.029 C 
ATOM      2  C   UNL     1       0.482   5.977  -6.645  0.00  0.00    +0.065 C 
ATOM      3  C   UNL     1       0.474   5.399  -8.161  0.00  0.00    +0.093 C 
ATOM      4  N   UNL     1       1.712   5.989  -8.668  0.00  0.00    -0.218 NA
ATOM      5  C   UNL     1       2.662   5.682  -7.600  0.00  0.00    +0.089 C 
ATOM      6  C   UNL     1       2.307   4.367  -7.032  0.00  0.00    +0.023 C 
ENDROOT
BRANCH   1  11
ATOM      7  F   UNL     1       3.407   5.099  -1.190  0.00  0.00    -0.204 F 
ATOM      8  C   UNL     1       2.924   5.200  -2.189  0.00  0.00    +0.140 A 
ATOM      9  C   UNL     1       3.726   5.300  -3.318  0.00  0.00    +0.029 A 
ATOM     10  C   UNL     1       3.182   5.017  -4.566  0.00  0.00    -0.002 A 
ATOM     11  C   UNL     1       1.901   5.293  -4.833  0.00  0.00    -0.022 A 
ATOM     12  C   UNL     1       1.079   5.501  -3.725  0.00  0.00    -0.002 A 
ATOM     13  C   UNL     1       1.568   5.396  -2.428  0.00  0.00    +0.029 A 
ENDBRANCH   1  11
BRANCH   2  14
ATOM     14  C   UNL     1      -1.080   5.584  -6.431  0.00  0.00    +0.207 C 
BRANCH  14  15
ATOM     15  O   UNL     1      -1.703   6.505  -5.676  0.00  0.00    -0.475 OA
BRANCH  15  16
ATOM     16  C   UNL     1      -2.413   6.547  -4.527  0.00  0.00    +0.142 A 
ATOM     17  C   UNL     1      -2.090   7.571  -3.638  0.00  0.00    +0.077 A 
ATOM     18  C   UNL     1      -1.990   7.352  -2.267  0.00  0.00    +0.179 A 
ATOM     19  O   UNL     1      -1.688   8.165  -1.171  0.00  0.00    -0.435 OA
ATOM     20  C   UNL     1      -1.063   7.344  -0.196  0.00  0.00    +0.429 C 
ATOM     21  O   UNL     1      -1.435   6.025  -0.582  0.00  0.00    -0.435 OA
ATOM     22  C   UNL     1      -2.168   6.076  -1.750  0.00  0.00    +0.177 A 
ATOM     23  C   UNL     1      -2.667   5.091  -2.595  0.00  0.00    +0.043 A 
ATOM     24  C   UNL     1      -3.017   5.470  -3.887  0.00  0.00    +0.040 A 
ENDBRANCH  15  16
ENDBRANCH  14  15
ENDBRANCH   2  14
TORSDOF 4
ENDMDL
MODEL 7
REMARK VINA RESULT:      -7.7      2.297      3.905
REMARK  Name = 
REMARK  4 active torsions:
REMARK  status: ('A' for Active; 'I' for Inactive)
REMARK    1  A    between atoms: C_5  and  C_6
REMARK    2  A    between atoms: C_11  and  C_12
REMARK    3  A    between atoms: C_12  and  O_13
REMARK    4  A    between atoms: O_13  and  C_14
REMARK                            x       y       z     vdW  Elec       q    Type
REMARK                         _______ _______ _______ _____ _____    ______ ____
ROOT
ATOM      1  C   UNL     1       1.433   5.060  -4.344  0.00  0.00    +0.029 C 
ATOM      2  C   UNL     1       2.345   6.494  -4.187  0.00  0.00    +0.065 C 
ATOM      3  C   UNL     1       3.101   5.996  -2.841  0.00  0.00    +0.093 C 
ATOM      4  N   UNL     1       2.317   6.703  -1.829  0.00  0.00    -0.218 NA
ATOM      5  C   UNL     1       0.945   6.412  -2.242  0.00  0.00    +0.089 C 
ATOM      6  C   UNL     1       0.911   5.046  -2.801  0.00  0.00    +0.023 C 
ENDROOT
BRANCH   1  11
ATOM      7  F   UNL     1      -3.329   5.454  -6.746  0.00  0.00    -0.204 F 
ATOM      8  C   UNL     1      -2.309   5.579  -6.316  0.00  0.00    +0.140 A 
ATOM      9  C   UNL     1      -2.175   6.122  -5.045  0.00  0.00    +0.029 A 
ATOM     10  C   UNL     1      -0.996   5.914  -4.337  0.00  0.00    -0.002 A 
ATOM     11  C   UNL     1       0.177   5.824  -4.972  0.00  0.00    -0.022 A 
ATOM     12  C   UNL     1       0.111   5.566  -6.342  0.00  0.00    -0.002 A 
ATOM     13  C   UNL     1      -1.107   5.386  -6.988  0.00  0.00    +0.029 A 
ENDBRANCH   1  11
BRANCH   2  14
ATOM     14  C   UNL     1       3.565   5.974  -5.127  0.00  0.00    +0.207 C 
BRANCH  14  15
ATOM     15  O   UNL     1       3.586   6.646  -6.291  0.00  0.00    -0.475 OA
BRANCH  15  16
ATOM     16  C   UNL     1       3.576   6.363  -7.613  0.00  0.00    +0.142 A 
ATOM     17  C   UNL     1       2.657   7.068  -8.389  0.00  0.00    +0.077 A 
ATOM     18  C   UNL     1       1.902   6.449  -9.381  0.00  0.00    +0.179 A 
ATOM     19  O   UNL     1       0.933   6.891 -10.285  0.00  0.00    -0.435 OA
ATOM     20  C   UNL     1       0.056   5.801 -10.530  0.00  0.00    +0.429 C 
ATOM     21  O   UNL     1       0.809   4.667 -10.115  0.00  0.00    -0.435 OA
ATOM     22  C   UNL     1       2.018   5.081  -9.594  0.00  0.00    +0.177 A 
ATOM     23  C   UNL     1       3.053   4.405  -8.959  0.00  0.00    +0.043 A 
ATOM     24  C   UNL     1       3.946   5.160  -8.205  0.00  0.00    +0.040 A 
ENDBRANCH  15  16
ENDBRANCH  14  15
ENDBRANCH   2  14
TORSDOF 4
ENDMDL
MODEL 8
REMARK VINA RESULT:      -7.6      2.886      5.441
REMARK  Name = 
REMARK  4 active torsions:
REMARK  status: ('A' for Active; 'I' for Inactive)
REMARK    1  A    between atoms: C_5  and  C_6
REMARK    2  A    between atoms: C_11  and  C_12
REMARK    3  A    between atoms: C_12  and  O_13
REMARK    4  A    between atoms: O_13  and  C_14
REMARK                            x       y       z     vdW  Elec       q    Type
REMARK                         _______ _______ _______ _____ _____    ______ ____
ROOT
ATOM      1  C   UNL     1       1.798   6.726  -7.824  0.00  0.00    +0.029 C 
ATOM      2  C   UNL     1       2.896   5.434  -8.013  0.00  0.00    +0.065 C 
ATOM      3  C   UNL     1       3.422   5.946  -9.460  0.00  0.00    +0.093 C 
ATOM      4  N   UNL     1       2.652   5.068 -10.340  0.00  0.00    -0.218 NA
ATOM      5  C   UNL     1       1.303   5.182  -9.788  0.00  0.00    +0.089 C 
ATOM      6  C   UNL     1       1.120   6.562  -9.298  0.00  0.00    +0.023 C 
ENDROOT
BRANCH   1  11
ATOM      7  F   UNL     1      -2.499   5.814  -4.776  0.00  0.00    -0.204 F 
ATOM      8  C   UNL     1      -1.541   5.804  -5.343  0.00  0.00    +0.140 A 
ATOM      9  C   UNL     1      -1.518   5.250  -6.616  0.00  0.00    +0.029 A 
ATOM     10  C   UNL     1      -0.484   5.583  -7.484  0.00  0.00    -0.002 A 
ATOM     11  C   UNL     1       0.746   5.831  -7.021  0.00  0.00    -0.022 A 
ATOM     12  C   UNL     1       0.838   6.113  -5.658  0.00  0.00    -0.002 A 
ATOM     13  C   UNL     1      -0.291   6.159  -4.848  0.00  0.00    +0.029 A 
ENDBRANCH   1  11
BRANCH   2  14
ATOM     14  C   UNL     1       4.114   6.187  -7.245  0.00  0.00    +0.207 C 
BRANCH  14  15
ATOM     15  O   UNL     1       4.370   5.594  -6.066  0.00  0.00    -0.475 OA
BRANCH  15  16
ATOM     16  C   UNL     1       4.520   5.957  -4.773  0.00  0.00    +0.142 A 
ATOM     17  C   UNL     1       4.174   5.002  -3.818  0.00  0.00    +0.077 A 
ATOM     18  C   UNL     1       3.456   5.332  -2.672  0.00  0.00    +0.179 A 
ATOM     19  O   UNL     1       2.981   4.604  -1.578  0.00  0.00    -0.435 OA
ATOM     20  C   UNL     1       1.799   5.246  -1.125  0.00  0.00    +0.429 C 
ATOM     21  O   UNL     1       1.893   6.552  -1.684  0.00  0.00    -0.435 OA
ATOM     22  C   UNL     1       3.023   6.636  -2.472  0.00  0.00    +0.177 A 
ATOM     23  C   UNL     1       3.514   7.626  -3.316  0.00  0.00    +0.043 A 
ATOM     24  C   UNL     1       4.461   7.250  -4.263  0.00  0.00    +0.040 A 
ENDBRANCH  15  16
ENDBRANCH  14  15
ENDBRANCH   2  14
TORSDOF 4
ENDMDL
MODEL 9
REMARK VINA RESULT:      -7.6      3.020      5.287
REMARK  Name = 
REMARK  4 active torsions:
REMARK  status: ('A' for Active; 'I' for Inactive)
REMARK    1  A    between atoms: C_5  and  C_6
REMARK    2  A    between atoms: C_11  and  C_12
REMARK    3  A    between atoms: C_12  and  O_13
REMARK    4  A    between atoms: O_13  and  C_14
REMARK                            x       y       z     vdW  Elec       q    Type
REMARK                         _______ _______ _______ _____ _____    ______ ____
ROOT
ATOM      1  C   UNL     1       1.965   6.739  -7.339  0.00  0.00    +0.029 C 
ATOM      2  C   UNL     1       3.112   5.701  -6.618  0.00  0.00    +0.065 C 
ATOM      3  C   UNL     1       4.088   5.699  -7.915  0.00  0.00    +0.093 C 
ATOM      4  N   UNL     1       3.710   4.422  -8.519  0.00  0.00    -0.218 NA
ATOM      5  C   UNL     1       2.249   4.490  -8.500  0.00  0.00    +0.089 C 
ATOM      6  C   UNL     1       1.851   5.893  -8.727  0.00  0.00    +0.023 C 
ENDROOT
BRANCH   1  11
ATOM      7  F   UNL     1      -3.009   6.424  -5.402  0.00  0.00    -0.204 F 
ATOM      8  C   UNL     1      -1.930   6.331  -5.660  0.00  0.00    +0.140 A 
ATOM      9  C   UNL     1      -1.544   5.399  -6.614  0.00  0.00    +0.029 A 
ATOM     10  C   UNL     1      -0.310   5.537  -7.240  0.00  0.00    -0.002 A 
ATOM     11  C   UNL     1       0.737   6.048  -6.584  0.00  0.00    -0.022 A 
ATOM     12  C   UNL     1       0.438   6.766  -5.425  0.00  0.00    -0.002 A 
ATOM     13  C   UNL     1      -0.873   6.955  -5.005  0.00  0.00    +0.029 A 
ENDBRANCH   1  11
BRANCH   2  14
ATOM     14  C   UNL     1       3.954   6.904  -5.922  0.00  0.00    +0.207 C 
BRANCH  14  15
ATOM     15  O   UNL     1       4.226   6.612  -4.638  0.00  0.00    -0.475 OA
BRANCH  15  16
ATOM     16  C   UNL     1       3.549   6.240  -3.529  0.00  0.00    +0.142 A 
ATOM     17  C   UNL     1       3.213   7.259  -2.640  0.00  0.00    +0.077 A 
ATOM     18  C   UNL     1       3.345   7.109  -1.262  0.00  0.00    +0.179 A 
ATOM     19  O   UNL     1       3.095   7.936  -0.164  0.00  0.00    -0.435 OA
ATOM     20  C   UNL     1       4.016   7.575   0.855  0.00  0.00    +0.429 C 
ATOM     21  O   UNL     1       4.447   6.274   0.470  0.00  0.00    -0.435 OA
ATOM     22  C   UNL     1       3.867   5.934  -0.736  0.00  0.00    +0.177 A 
ATOM     23  C   UNL     1       4.033   4.851  -1.591  0.00  0.00    +0.043 A 
ATOM     24  C   UNL     1       3.600   4.998  -2.905  0.00  0.00    +0.040 A 
ENDBRANCH  15  16
ENDBRANCH  14  15
ENDBRANCH   2  14
TORSDOF 4
ENDMDL
