MODEL 1
REMARK VINA RESULT:      -5.4      0.000      0.000
REMARK  Name = 
REMARK  1 active torsions:
REMARK  status: ('A' for Active; 'I' for Inactive)
REMARK    1  A    between atoms: C_8  and  N_9
REMARK                            x       y       z     vdW  Elec       q    Type
REMARK                         _______ _______ _______ _____ _____    ______ ____
ROOT
ATOM      1  C   UNL     1       1.354   5.403  -4.410  0.00  0.00    +0.131 C 
ATOM      2  N   UNL     1       0.116   5.387  -5.173  0.00  0.00    -0.323 N 
ATOM      3  C   UNL     1      -1.089   5.651  -4.447  0.00  0.00    +0.083 A 
ATOM      4  C   UNL     1      -1.235   5.384  -3.164  0.00  0.00    +0.162 C 
ATOM      5  C   UNL     1      -2.316   5.886  -5.213  0.00  0.00    +0.019 A 
ATOM      6  C   UNL     1      -2.251   5.806  -6.537  0.00  0.00    +0.003 A 
ATOM      7  C   UNL     1      -1.075   5.275  -7.200  0.00  0.00    +0.019 A 
ATOM      8  C   UNL     1       0.094   5.105  -6.579  0.00  0.00    +0.076 A 
ENDROOT
BRANCH   4   9
ATOM      9  N   UNL     1      -2.485   4.955  -2.607  0.00  0.00    -0.026 NA
ATOM     10  O   UNL     1      -2.576   5.093  -1.359  0.00  0.00    -0.143 OA
ENDBRANCH   4   9
TORSDOF 1
ENDMDL
MODEL 2
REMARK VINA RESULT:      -4.9      8.635     10.300
REMARK  Name = 
REMARK  1 active torsions:
REMARK  status: ('A' for Active; 'I' for Inactive)
REMARK    1  A    between atoms: C_8  and  N_9
REMARK                            x       y       z     vdW  Elec       q    Type
REMARK                         _______ _______ _______ _____ _____    ______ ____
ROOT
ATOM      1  C   UNL     1       3.379   5.749 -11.425  0.00  0.00    +0.131 C 
ATOM      2  N   UNL     1       4.508   5.536 -10.533  0.00  0.00    -0.323 N 
ATOM      3  C   UNL     1       5.813   5.649 -11.110  0.00  0.00    +0.083 A 
ATOM      4  C   UNL     1       6.067   5.401 -12.380  0.00  0.00    +0.162 C 
ATOM      5  C   UNL     1       6.964   5.686 -10.204  0.00  0.00    +0.019 A 
ATOM      6  C   UNL     1       6.738   5.577  -8.900  0.00  0.00    +0.003 A 
ATOM      7  C   UNL     1       5.431   5.199  -8.394  0.00  0.00    +0.019 A 
ATOM      8  C   UNL     1       4.329   5.213  -9.147  0.00  0.00    +0.076 A 
ENDROOT
BRANCH   4   9
ATOM      9  N   UNL     1       7.302   4.817 -12.815  0.00  0.00    -0.026 NA
ATOM     10  O   UNL     1       7.552   4.974 -14.039  0.00  0.00    -0.143 OA
ENDBRANCH   4   9
TORSDOF 1
ENDMDL
MODEL 3
REMARK VINA RESULT:      -4.7      7.967      9.169
REMARK  Name = 
REMARK  1 active torsions:
REMARK  status: ('A' for Active; 'I' for Inactive)
REMARK    1  A    between atoms: C_8  and  N_9
REMARK                            x       y       z     vdW  Elec       q    Type
REMARK                         _______ _______ _______ _____ _____    ______ ____
ROOT
ATOM      1  C   UNL     1       5.185   4.979  -8.364  0.00  0.00    +0.131 C 
ATOM      2  N   UNL     1       5.815   5.799  -9.388  0.00  0.00    -0.323 N 
ATOM      3  C   UNL     1       4.939   6.500 -10.277  0.00  0.00    +0.083 A 
ATOM      4  C   UNL     1       3.728   6.078 -10.584  0.00  0.00    +0.162 C 
ATOM      5  C   UNL     1       5.522   7.518 -11.155  0.00  0.00    +0.019 A 
ATOM      6  C   UNL     1       6.835   7.711 -11.104  0.00  0.00    +0.003 A 
ATOM      7  C   UNL     1       7.701   6.794 -10.385  0.00  0.00    +0.019 A 
ATOM      8  C   UNL     1       7.240   5.891  -9.517  0.00  0.00    +0.076 A 
ENDROOT
BRANCH   4   9
ATOM      9  N   UNL     1       3.153   6.275 -11.883  0.00  0.00    -0.026 NA
ATOM     10  O   UNL     1       1.910   6.474 -11.880  0.00  0.00    -0.143 OA
ENDBRANCH   4   9
TORSDOF 1
ENDMDL
MODEL 4
REMARK VINA RESULT:      -4.6      2.899      3.848
REMARK  Name = 
REMARK  1 active torsions:
REMARK  status: ('A' for Active; 'I' for Inactive)
REMARK    1  A    between atoms: C_8  and  N_9
REMARK                            x       y       z     vdW  Elec       q    Type
REMARK                         _______ _______ _______ _____ _____    ______ ____
ROOT
ATOM      1  C   UNL     1       0.567   5.445  -3.349  0.00  0.00    +0.131 C 
ATOM      2  N   UNL     1      -0.346   5.723  -4.447  0.00  0.00    -0.323 N 
ATOM      3  C   UNL     1      -0.078   5.061  -5.688  0.00  0.00    +0.083 A 
ATOM      4  C   UNL     1       1.129   4.687  -6.064  0.00  0.00    +0.162 C 
ATOM      5  C   UNL     1      -1.103   5.121  -6.733  0.00  0.00    +0.019 A 
ATOM      6  C   UNL     1      -2.208   5.815  -6.487  0.00  0.00    +0.003 A 
ATOM      7  C   UNL     1      -2.308   6.679  -5.326  0.00  0.00    +0.019 A 
ATOM      8  C   UNL     1      -1.451   6.626  -4.305  0.00  0.00    +0.076 A 
ENDROOT
BRANCH   4   9
ATOM      9  N   UNL     1       1.549   4.712  -7.435  0.00  0.00    -0.026 NA
ATOM     10  O   UNL     1       2.437   3.870  -7.725  0.00  0.00    -0.143 OA
ENDBRANCH   4   9
TORSDOF 1
ENDMDL
MODEL 5
REMARK VINA RESULT:      -4.5      7.176      8.668
REMARK  Name = 
REMARK  1 active torsions:
REMARK  status: ('A' for Active; 'I' for Inactive)
REMARK    1  A    between atoms: C_8  and  N_9
REMARK                            x       y       z     vdW  Elec       q    Type
REMARK                         _______ _______ _______ _____ _____    ______ ____
ROOT
ATOM      1  C   UNL     1       3.613   6.354 -11.359  0.00  0.00    +0.131 C 
ATOM      2  N   UNL     1       4.964   6.550 -10.856  0.00  0.00    -0.323 N 
ATOM      3  C   UNL     1       5.335   5.791  -9.700  0.00  0.00    +0.083 A 
ATOM      4  C   UNL     1       4.469   5.381  -8.794  0.00  0.00    +0.162 C 
ATOM      5  C   UNL     1       6.748   5.773  -9.314  0.00  0.00    +0.019 A 
ATOM      6  C   UNL     1       7.603   6.490 -10.035  0.00  0.00    +0.003 A 
ATOM      7  C   UNL     1       7.135   7.444 -11.023  0.00  0.00    +0.019 A 
ATOM      8  C   UNL     1       5.878   7.467 -11.472  0.00  0.00    +0.076 A 
ENDROOT
BRANCH   4   9
ATOM      9  N   UNL     1       4.798   5.295  -7.401  0.00  0.00    -0.026 NA
ATOM     10  O   UNL     1       4.020   5.927  -6.640  0.00  0.00    -0.143 OA
ENDBRANCH   4   9
TORSDOF 1
ENDMDL
MODEL 6
REMARK VINA RESULT:      -4.5      4.030      5.701
REMARK  Name = 
REMARK  1 active torsions:
REMARK  status: ('A' for Active; 'I' for Inactive)
REMARK    1  A    between atoms: C_8  and  N_9
REMARK                            x       y       z     vdW  Elec       q    Type
REMARK                         _______ _______ _______ _____ _____    ______ ____
ROOT
ATOM      1  C   UNL     1       0.854   4.981  -4.919  0.00  0.00    +0.131 C 
ATOM      2  N   UNL     1       2.242   5.394  -5.049  0.00  0.00    -0.323 N 
ATOM      3  C   UNL     1       2.480   6.663  -5.668  0.00  0.00    +0.083 A 
ATOM      4  C   UNL     1       1.666   7.199  -6.557  0.00  0.00    +0.162 C 
ATOM      5  C   UNL     1       3.833   7.221  -5.595  0.00  0.00    +0.019 A 
ATOM      6  C   UNL     1       4.773   6.504  -4.990  0.00  0.00    +0.003 A 
ATOM      7  C   UNL     1       4.540   5.120  -4.620  0.00  0.00    +0.019 A 
ATOM      8  C   UNL     1       3.325   4.570  -4.595  0.00  0.00    +0.076 A 
ENDROOT
BRANCH   4   9
ATOM      9  N   UNL     1       2.141   7.991  -7.653  0.00  0.00    -0.026 NA
ATOM     10  O   UNL     1       1.786   7.579  -8.788  0.00  0.00    -0.143 OA
ENDBRANCH   4   9
TORSDOF 1
ENDMDL
MODEL 7
REMARK VINA RESULT:      -4.4      5.976      7.439
REMARK  Name = 
REMARK  1 active torsions:
REMARK  status: ('A' for Active; 'I' for Inactive)
REMARK    1  A    between atoms: C_8  and  N_9
REMARK                            x       y       z     vdW  Elec       q    Type
REMARK                         _______ _______ _______ _____ _____    ______ ____
ROOT
ATOM      1  C   UNL     1       3.193   6.238 -11.869  0.00  0.00    +0.131 C 
ATOM      2  N   UNL     1       4.067   6.086 -10.716  0.00  0.00    -0.323 N 
ATOM      3  C   UNL     1       3.433   6.009  -9.435  0.00  0.00    +0.083 A 
ATOM      4  C   UNL     1       2.270   6.571  -9.167  0.00  0.00    +0.162 C 
ATOM      5  C   UNL     1       4.251   5.612  -8.286  0.00  0.00    +0.019 A 
ATOM      6  C   UNL     1       5.543   5.378  -8.489  0.00  0.00    +0.003 A 
ATOM      7  C   UNL     1       6.181   5.729  -9.744  0.00  0.00    +0.019 A 
ATOM      8  C   UNL     1       5.494   6.030 -10.848  0.00  0.00    +0.076 A 
ENDROOT
BRANCH   4   9
ATOM      9  N   UNL     1       1.966   7.129  -7.882  0.00  0.00    -0.026 NA
ATOM     10  O   UNL     1       2.123   8.375  -7.803  0.00  0.00    -0.143 OA
ENDBRANCH   4   9
TORSDOF 1
ENDMDL
MODEL 8
REMARK VINA RESULT:      -4.4      9.392     10.930
REMARK  Name = 
REMARK  1 active torsions:
REMARK  status: ('A' for Active; 'I' for Inactive)
REMARK    1  A    between atoms: C_8  and  N_9
REMARK                            x       y       z     vdW  Elec       q    Type
REMARK                         _______ _______ _______ _____ _____    ______ ____
ROOT
ATOM      1  C   UNL     1       5.150   6.272  -9.924  0.00  0.00    +0.131 C 
ATOM      2  N   UNL     1       6.198   5.933 -10.874  0.00  0.00    -0.323 N 
ATOM      3  C   UNL     1       5.799   5.762 -12.238  0.00  0.00    +0.083 A 
ATOM      4  C   UNL     1       4.591   5.370 -12.595  0.00  0.00    +0.162 C 
ATOM      5  C   UNL     1       6.849   5.664 -13.255  0.00  0.00    +0.019 A 
ATOM      6  C   UNL     1       8.114   5.704 -12.853  0.00  0.00    +0.003 A 
ATOM      7  C   UNL     1       8.458   5.610 -11.447  0.00  0.00    +0.019 A 
ATOM      8  C   UNL     1       7.563   5.761 -10.469  0.00  0.00    +0.076 A 
ENDROOT
BRANCH   4   9
ATOM      9  N   UNL     1       4.361   4.539 -13.741  0.00  0.00    -0.026 NA
ATOM     10  O   UNL     1       3.231   4.685 -14.275  0.00  0.00    -0.143 OA
ENDBRANCH   4   9
TORSDOF 1
ENDMDL
MODEL 9
REMARK VINA RESULT:      -4.4      2.759      3.802
REMARK  Name = 
REMARK  1 active torsions:
REMARK  status: ('A' for Active; 'I' for Inactive)
REMARK    1  A    between atoms: C_8  and  N_9
REMARK                            x       y       z     vdW  Elec       q    Type
REMARK                         _______ _______ _______ _____ _____    ______ ____
ROOT
ATOM      1  C   UNL     1      -0.096   5.825  -2.989  0.00  0.00    +0.131 C 
ATOM      2  N   UNL     1      -0.584   5.769  -4.358  0.00  0.00    -0.323 N 
ATOM      3  C   UNL     1       0.400   5.597  -5.384  0.00  0.00    +0.083 A 
ATOM      4  C   UNL     1       1.649   6.006  -5.266  0.00  0.00    +0.162 C 
ATOM      5  C   UNL     1      -0.066   5.291  -6.739  0.00  0.00    +0.019 A 
ATOM      6  C   UNL     1      -1.376   5.223  -6.949  0.00  0.00    +0.003 A 
ATOM      7  C   UNL     1      -2.322   5.666  -5.942  0.00  0.00    +0.019 A 
ATOM      8  C   UNL     1      -1.977   5.893  -4.673  0.00  0.00    +0.076 A 
ENDROOT
BRANCH   4   9
ATOM      9  N   UNL     1       2.401   6.506  -6.380  0.00  0.00    -0.026 NA
ATOM     10  O   UNL     1       3.217   7.420  -6.091  0.00  0.00    -0.143 OA
ENDBRANCH   4   9
TORSDOF 1
ENDMDL
