MODEL 1
REMARK VINA RESULT:      -8.5      0.000      0.000
REMARK  Name = 
REMARK  4 active torsions:
REMARK  status: ('A' for Active; 'I' for Inactive)
REMARK    1  A    between atoms: C_3  and  C_4
REMARK    2  A    between atoms: C_4  and  C_5
REMARK    3  A    between atoms: C_16  and  C_17
REMARK    4  A    between atoms: C_20  and  S_21
REMARK                            x       y       z     vdW  Elec       q    Type
REMARK                         _______ _______ _______ _____ _____    ______ ____
ROOT
ATOM      1  C   UNL     1      -0.919   5.449  -6.132  0.00  0.00    +0.031 C 
ATOM      2  C   UNL     1       0.269   5.971  -5.560  0.00  0.00    -0.025 C 
ATOM      3  C   UNL     1       1.416   6.485  -6.319  0.00  0.00    -0.004 C 
ATOM      4  C   UNL     1       1.642   6.360  -7.609  0.00  0.00    -0.000 C 
ATOM      5  C   UNL     1       2.458   6.751  -5.321  0.00  0.00    -0.000 A 
ATOM      6  C   UNL     1       1.875   6.550  -4.090  0.00  0.00    -0.002 A 
ATOM      7  C   UNL     1       2.534   6.902  -2.941  0.00  0.00    +0.029 A 
ATOM      8  C   UNL     1       3.742   7.577  -3.054  0.00  0.00    +0.140 A 
ATOM      9  C   UNL     1       4.403   7.521  -4.254  0.00  0.00    +0.030 A 
ATOM     10  F   UNL     1       4.194   8.313  -2.001  0.00  0.00    -0.204 F 
ATOM     11  C   UNL     1       3.763   7.211  -5.448  0.00  0.00    +0.002 A 
ATOM     12  C   UNL     1       0.628   5.830  -4.285  0.00  0.00    -0.015 C 
ENDROOT
BRANCH   4  13
ATOM     13  C   UNL     1       2.990   6.277  -8.185  0.00  0.00    +0.000 A 
ATOM     14  C   UNL     1       3.267   7.142  -9.237  0.00  0.00    +0.001 A 
ATOM     15  C   UNL     1       4.307   6.853 -10.113  0.00  0.00    +0.009 A 
ATOM     16  C   UNL     1       5.117   5.738  -9.928  0.00  0.00    +0.056 A 
ATOM     17  C   UNL     1       4.731   4.881  -8.927  0.00  0.00    +0.009 A 
ATOM     18  C   UNL     1       3.486   4.988  -8.344  0.00  0.00    +0.001 A 
BRANCH  16  19
ATOM     19  S   UNL     1       6.853   5.859 -10.433  0.00  0.00    +0.066 S 
ATOM     20  O   UNL     1       6.779   5.170 -11.828  0.00  0.00    -0.251 OA
ATOM     21  C   UNL     1       6.953   7.619 -10.964  0.00  0.00    +0.111 C 
ENDBRANCH  16  19
ENDBRANCH   4  13
BRANCH  12  22
ATOM     22  C   UNL     1      -0.056   4.946  -3.292  0.00  0.00    +0.140 C 
BRANCH  22  23
ATOM     23  C   UNL     1      -1.281   5.680  -2.844  0.00  0.00    +0.369 C 
ATOM     24  O   UNL     1      -1.044   6.800  -2.041  0.00  0.00    -0.245 OA
ATOM     25  O   UNL     1      -2.233   4.937  -2.453  0.00  0.00    -0.245 OA
ENDBRANCH  22  23
ENDBRANCH  12  22
TORSDOF 4
ENDMDL
MODEL 2
REMARK VINA RESULT:      -8.4      3.307      7.491
REMARK  Name = 
REMARK  4 active torsions:
REMARK  status: ('A' for Active; 'I' for Inactive)
REMARK    1  A    between atoms: C_3  and  C_4
REMARK    2  A    between atoms: C_4  and  C_5
REMARK    3  A    between atoms: C_16  and  C_17
REMARK    4  A    between atoms: C_20  and  S_21
REMARK                            x       y       z     vdW  Elec       q    Type
REMARK                         _______ _______ _______ _____ _____    ______ ____
ROOT
ATOM      1  C   UNL     1       0.857   6.241 -10.083  0.00  0.00    +0.031 C 
ATOM      2  C   UNL     1       1.500   5.933  -8.857  0.00  0.00    -0.025 C 
ATOM      3  C   UNL     1       0.819   5.495  -7.633  0.00  0.00    -0.004 C 
ATOM      4  C   UNL     1      -0.473   5.517  -7.385  0.00  0.00    -0.000 C 
ATOM      5  C   UNL     1       1.857   5.463  -6.597  0.00  0.00    -0.000 A 
ATOM      6  C   UNL     1       3.050   5.712  -7.237  0.00  0.00    -0.002 A 
ATOM      7  C   UNL     1       4.241   5.562  -6.575  0.00  0.00    +0.029 A 
ATOM      8  C   UNL     1       4.219   5.037  -5.290  0.00  0.00    +0.140 A 
ATOM      9  C   UNL     1       3.031   5.055  -4.604  0.00  0.00    +0.030 A 
ATOM     10  F   UNL     1       5.350   4.472  -4.782  0.00  0.00    -0.204 F 
ATOM     11  C   UNL     1       1.801   5.161  -5.242  0.00  0.00    +0.002 A 
ATOM     12  C   UNL     1       2.760   6.246  -8.557  0.00  0.00    -0.015 C 
ENDROOT
BRANCH   4  13
ATOM     13  C   UNL     1      -1.031   5.711  -6.041  0.00  0.00    +0.000 A 
ATOM     14  C   UNL     1      -2.229   5.062  -5.769  0.00  0.00    +0.001 A 
ATOM     15  C   UNL     1      -3.041   5.514  -4.735  0.00  0.00    +0.009 A 
ATOM     16  C   UNL     1      -2.653   6.576  -3.925  0.00  0.00    +0.056 A 
ATOM     17  C   UNL     1      -1.506   7.228  -4.307  0.00  0.00    +0.009 A 
ATOM     18  C   UNL     1      -0.946   7.009  -5.548  0.00  0.00    +0.001 A 
BRANCH  16  19
ATOM     19  S   UNL     1      -3.181   6.558  -2.193  0.00  0.00    +0.066 S 
ATOM     20  O   UNL     1      -2.759   5.113  -1.795  0.00  0.00    -0.251 OA
ATOM     21  C   UNL     1      -1.824   7.508  -1.391  0.00  0.00    +0.111 C 
ENDBRANCH  16  19
ENDBRANCH   4  13
BRANCH  12  22
ATOM     22  C   UNL     1       3.645   7.131  -9.375  0.00  0.00    +0.140 C 
BRANCH  22  23
ATOM     23  C   UNL     1       4.441   6.229 -10.265  0.00  0.00    +0.369 C 
ATOM     24  O   UNL     1       5.714   5.897  -9.792  0.00  0.00    -0.245 OA
ATOM     25  O   UNL     1       4.393   6.522 -11.499  0.00  0.00    -0.245 OA
ENDBRANCH  22  23
ENDBRANCH  12  22
TORSDOF 4
ENDMDL
MODEL 3
REMARK VINA RESULT:      -8.4      3.877      6.855
REMARK  Name = 
REMARK  4 active torsions:
REMARK  status: ('A' for Active; 'I' for Inactive)
REMARK    1  A    between atoms: C_3  and  C_4
REMARK    2  A    between atoms: C_4  and  C_5
REMARK    3  A    between atoms: C_16  and  C_17
REMARK    4  A    between atoms: C_20  and  S_21
REMARK                            x       y       z     vdW  Elec       q    Type
REMARK                         _______ _______ _______ _____ _____    ______ ____
ROOT
ATOM      1  C   UNL     1       3.426   6.368  -9.594  0.00  0.00    +0.031 C 
ATOM      2  C   UNL     1       2.319   6.225  -8.720  0.00  0.00    -0.025 C 
ATOM      3  C   UNL     1       2.315   6.583  -7.297  0.00  0.00    -0.004 C 
ATOM      4  C   UNL     1       3.353   6.882  -6.545  0.00  0.00    -0.000 C 
ATOM      5  C   UNL     1       1.029   6.106  -6.776  0.00  0.00    -0.000 A 
ATOM      6  C   UNL     1       0.312   5.662  -7.864  0.00  0.00    -0.002 A 
ATOM      7  C   UNL     1      -1.011   5.328  -7.737  0.00  0.00    +0.029 A 
ATOM      8  C   UNL     1      -1.638   5.566  -6.522  0.00  0.00    +0.140 A 
ATOM      9  C   UNL     1      -0.851   5.750  -5.414  0.00  0.00    +0.030 A 
ATOM     10  F   UNL     1      -2.996   5.669  -6.482  0.00  0.00    -0.204 F 
ATOM     11  C   UNL     1       0.483   6.131  -5.499  0.00  0.00    +0.002 A 
ATOM     12  C   UNL     1       1.225   5.511  -8.984  0.00  0.00    -0.015 C 
ENDROOT
BRANCH   4  13
ATOM     13  C   UNL     1       3.415   6.587  -5.107  0.00  0.00    +0.000 A 
ATOM     14  C   UNL     1       3.804   7.633  -4.279  0.00  0.00    +0.001 A 
ATOM     15  C   UNL     1       4.311   7.361  -3.014  0.00  0.00    +0.009 A 
ATOM     16  C   UNL     1       4.389   6.058  -2.533  0.00  0.00    +0.056 A 
ATOM     17  C   UNL     1       4.076   5.071  -3.436  0.00  0.00    +0.009 A 
ATOM     18  C   UNL     1       3.962   5.351  -4.780  0.00  0.00    +0.001 A 
BRANCH  16  19
ATOM     19  S   UNL     1       4.171   5.796  -0.754  0.00  0.00    +0.066 S 
ATOM     20  O   UNL     1       5.099   6.917  -0.198  0.00  0.00    -0.251 OA
ATOM     21  C   UNL     1       2.532   6.586  -0.470  0.00  0.00    +0.111 C 
ENDBRANCH  16  19
ENDBRANCH   4  13
BRANCH  12  22
ATOM     22  C   UNL     1       1.059   4.594 -10.153  0.00  0.00    +0.140 C 
BRANCH  22  23
ATOM     23  C   UNL     1       0.674   5.456 -11.316  0.00  0.00    +0.369 C 
ATOM     24  O   UNL     1      -0.420   6.298 -11.096  0.00  0.00    -0.245 OA
ATOM     25  O   UNL     1       0.671   4.863 -12.439  0.00  0.00    -0.245 OA
ENDBRANCH  22  23
ENDBRANCH  12  22
TORSDOF 4
ENDMDL
MODEL 4
REMARK VINA RESULT:      -8.2      4.060      7.456
REMARK  Name = 
REMARK  4 active torsions:
REMARK  status: ('A' for Active; 'I' for Inactive)
REMARK    1  A    between atoms: C_3  and  C_4
REMARK    2  A    between atoms: C_4  and  C_5
REMARK    3  A    between atoms: C_16  and  C_17
REMARK    4  A    between atoms: C_20  and  S_21
REMARK                            x       y       z     vdW  Elec       q    Type
REMARK                         _______ _______ _______ _____ _____    ______ ____
ROOT
ATOM      1  C   UNL     1       0.305   4.999 -10.504  0.00  0.00    +0.031 C 
ATOM      2  C   UNL     1       1.714   5.135 -10.429  0.00  0.00    -0.025 C 
ATOM      3  C   UNL     1       2.514   4.965  -9.210  0.00  0.00    -0.004 C 
ATOM      4  C   UNL     1       2.078   4.877  -7.972  0.00  0.00    -0.000 C 
ATOM      5  C   UNL     1       3.877   5.366  -9.578  0.00  0.00    -0.000 A 
ATOM      6  C   UNL     1       3.862   5.588 -10.936  0.00  0.00    -0.002 A 
ATOM      7  C   UNL     1       5.031   5.793 -11.622  0.00  0.00    +0.029 A 
ATOM      8  C   UNL     1       6.231   5.648 -10.938  0.00  0.00    +0.140 A 
ATOM      9  C   UNL     1       6.203   5.693  -9.568  0.00  0.00    +0.030 A 
ATOM     10  F   UNL     1       7.372   5.408 -11.641  0.00  0.00    -0.204 F 
ATOM     11  C   UNL     1       5.048   5.447  -8.834  0.00  0.00    +0.002 A 
ATOM     12  C   UNL     1       2.479   5.689 -11.369  0.00  0.00    -0.015 C 
ENDROOT
BRANCH   4  13
ATOM     13  C   UNL     1       2.841   5.359  -6.814  0.00  0.00    +0.000 A 
ATOM     14  C   UNL     1       2.934   4.493  -5.731  0.00  0.00    +0.001 A 
ATOM     15  C   UNL     1       3.233   4.993  -4.469  0.00  0.00    +0.009 A 
ATOM     16  C   UNL     1       3.496   6.345  -4.273  0.00  0.00    +0.056 A 
ATOM     17  C   UNL     1       3.296   7.154  -5.365  0.00  0.00    +0.009 A 
ATOM     18  C   UNL     1       2.628   6.691  -6.477  0.00  0.00    +0.001 A 
BRANCH  16  19
ATOM     19  S   UNL     1       4.681   6.799  -2.981  0.00  0.00    +0.066 S 
ATOM     20  O   UNL     1       5.777   7.488  -3.847  0.00  0.00    -0.251 OA
ATOM     21  C   UNL     1       3.876   8.288  -2.259  0.00  0.00    +0.111 C 
ENDBRANCH  16  19
ENDBRANCH   4  13
BRANCH  12  22
ATOM     22  C   UNL     1       1.971   6.425 -12.567  0.00  0.00    +0.140 C 
BRANCH  22  23
ATOM     23  C   UNL     1       2.027   5.462 -13.712  0.00  0.00    +0.369 C 
ATOM     24  O   UNL     1       2.980   5.757 -14.691  0.00  0.00    -0.245 OA
ATOM     25  O   UNL     1       0.895   5.104 -14.162  0.00  0.00    -0.245 OA
ENDBRANCH  22  23
ENDBRANCH  12  22
TORSDOF 4
ENDMDL
MODEL 5
REMARK VINA RESULT:      -8.1      3.918      8.665
REMARK  Name = 
REMARK  4 active torsions:
REMARK  status: ('A' for Active; 'I' for Inactive)
REMARK    1  A    between atoms: C_3  and  C_4
REMARK    2  A    between atoms: C_4  and  C_5
REMARK    3  A    between atoms: C_16  and  C_17
REMARK    4  A    between atoms: C_20  and  S_21
REMARK                            x       y       z     vdW  Elec       q    Type
REMARK                         _______ _______ _______ _____ _____    ______ ____
ROOT
ATOM      1  C   UNL     1       5.802   5.749 -10.171  0.00  0.00    +0.031 C 
ATOM      2  C   UNL     1       4.486   6.044 -10.609  0.00  0.00    -0.025 C 
ATOM      3  C   UNL     1       3.384   6.473  -9.741  0.00  0.00    -0.004 C 
ATOM      4  C   UNL     1       3.347   6.454  -8.425  0.00  0.00    -0.000 C 
ATOM      5  C   UNL     1       2.193   6.492 -10.599  0.00  0.00    -0.000 A 
ATOM      6  C   UNL     1       2.636   6.245 -11.879  0.00  0.00    -0.002 A 
ATOM      7  C   UNL     1       1.789   6.384 -12.948  0.00  0.00    +0.029 A 
ATOM      8  C   UNL     1       0.519   6.897 -12.720  0.00  0.00    +0.140 A 
ATOM      9  C   UNL     1       0.034   6.877 -11.438  0.00  0.00    +0.030 A 
ATOM     10  F   UNL     1      -0.169   7.453 -13.756  0.00  0.00    -0.204 F 
ATOM     11  C   UNL     1       0.862   6.781 -10.326  0.00  0.00    +0.002 A 
ATOM     12  C   UNL     1       3.990   5.724 -11.804  0.00  0.00    -0.015 C 
ENDROOT
BRANCH   4  13
ATOM     13  C   UNL     1       2.112   6.250  -7.658  0.00  0.00    +0.000 A 
ATOM     14  C   UNL     1       1.726   7.289  -6.820  0.00  0.00    +0.001 A 
ATOM     15  C   UNL     1       0.864   7.036  -5.759  0.00  0.00    +0.009 A 
ATOM     16  C   UNL     1       0.331   5.769  -5.548  0.00  0.00    +0.056 A 
ATOM     17  C   UNL     1       0.826   4.774  -6.355  0.00  0.00    +0.009 A 
ATOM     18  C   UNL     1       1.954   4.977  -7.120  0.00  0.00    +0.001 A 
BRANCH  16  19
ATOM     19  S   UNL     1      -1.334   5.656  -4.843  0.00  0.00    +0.066 S 
ATOM     20  O   UNL     1      -1.518   7.120  -4.343  0.00  0.00    -0.251 OA
ATOM     21  C   UNL     1      -2.374   5.716  -6.360  0.00  0.00    +0.111 C 
ENDBRANCH  16  19
ENDBRANCH   4  13
BRANCH  12  22
ATOM     22  C   UNL     1       4.663   4.842 -12.806  0.00  0.00    +0.140 C 
BRANCH  22  23
ATOM     23  C   UNL     1       5.532   5.734 -13.638  0.00  0.00    +0.369 C 
ATOM     24  O   UNL     1       4.887   6.367 -14.705  0.00  0.00    -0.245 OA
ATOM     25  O   UNL     1       6.674   5.254 -13.917  0.00  0.00    -0.245 OA
ENDBRANCH  22  23
ENDBRANCH  12  22
TORSDOF 4
ENDMDL
MODEL 6
REMARK VINA RESULT:      -8.1      3.247      4.345
REMARK  Name = 
REMARK  4 active torsions:
REMARK  status: ('A' for Active; 'I' for Inactive)
REMARK    1  A    between atoms: C_3  and  C_4
REMARK    2  A    between atoms: C_4  and  C_5
REMARK    3  A    between atoms: C_16  and  C_17
REMARK    4  A    between atoms: C_20  and  S_21
REMARK                            x       y       z     vdW  Elec       q    Type
REMARK                         _______ _______ _______ _____ _____    ______ ____
ROOT
ATOM      1  C   UNL     1       3.839   5.046  -3.589  0.00  0.00    +0.031 C 
ATOM      2  C   UNL     1       2.472   5.147  -3.952  0.00  0.00    -0.025 C 
ATOM      3  C   UNL     1       1.938   4.919  -5.300  0.00  0.00    -0.004 C 
ATOM      4  C   UNL     1       2.618   4.801  -6.421  0.00  0.00    -0.000 C 
ATOM      5  C   UNL     1       0.523   5.300  -5.230  0.00  0.00    -0.000 A 
ATOM      6  C   UNL     1       0.259   5.567  -3.906  0.00  0.00    -0.002 A 
ATOM      7  C   UNL     1      -1.028   5.768  -3.479  0.00  0.00    +0.029 A 
ATOM      8  C   UNL     1      -2.061   5.573  -4.384  0.00  0.00    +0.140 A 
ATOM      9  C   UNL     1      -1.757   5.573  -5.722  0.00  0.00    +0.030 A 
ATOM     10  F   UNL     1      -3.318   5.330  -3.918  0.00  0.00    -0.204 F 
ATOM     11  C   UNL     1      -0.474   5.331  -6.197  0.00  0.00    +0.002 A 
ATOM     12  C   UNL     1       1.524   5.714  -3.207  0.00  0.00    -0.015 C 
ENDROOT
BRANCH   4  13
ATOM     13  C   UNL     1       2.097   5.227  -7.726  0.00  0.00    +0.000 A 
ATOM     14  C   UNL     1       2.223   4.316  -8.768  0.00  0.00    +0.001 A 
ATOM     15  C   UNL     1       2.178   4.762 -10.084  0.00  0.00    +0.009 A 
ATOM     16  C   UNL     1       1.956   6.101 -10.385  0.00  0.00    +0.056 A 
ATOM     17  C   UNL     1       1.934   6.956  -9.311  0.00  0.00    +0.009 A 
ATOM     18  C   UNL     1       2.370   6.546  -8.070  0.00  0.00    +0.001 A 
BRANCH  16  19
ATOM     19  S   UNL     1       1.048   6.489 -11.904  0.00  0.00    +0.066 S 
ATOM     20  O   UNL     1       0.558   5.065 -12.300  0.00  0.00    -0.251 OA
ATOM     21  C   UNL     1      -0.518   7.176 -11.224  0.00  0.00    +0.111 C 
ENDBRANCH  16  19
ENDBRANCH   4  13
BRANCH  12  22
ATOM     22  C   UNL     1       1.768   6.500  -1.959  0.00  0.00    +0.140 C 
BRANCH  22  23
ATOM     23  C   UNL     1       1.248   5.670  -0.827  0.00  0.00    +0.369 C 
ATOM     24  O   UNL     1       0.996   6.370   0.358  0.00  0.00    -0.245 OA
ATOM     25  O   UNL     1       1.835   4.556  -0.671  0.00  0.00    -0.245 OA
ENDBRANCH  22  23
ENDBRANCH  12  22
TORSDOF 4
ENDMDL
MODEL 7
REMARK VINA RESULT:      -7.9      3.788      8.491
REMARK  Name = 
REMARK  4 active torsions:
REMARK  status: ('A' for Active; 'I' for Inactive)
REMARK    1  A    between atoms: C_3  and  C_4
REMARK    2  A    between atoms: C_4  and  C_5
REMARK    3  A    between atoms: C_16  and  C_17
REMARK    4  A    between atoms: C_20  and  S_21
REMARK                            x       y       z     vdW  Elec       q    Type
REMARK                         _______ _______ _______ _____ _____    ______ ____
ROOT
ATOM      1  C   UNL     1       6.178   5.843 -10.569  0.00  0.00    +0.031 C 
ATOM      2  C   UNL     1       4.796   6.107 -10.752  0.00  0.00    -0.025 C 
ATOM      3  C   UNL     1       3.857   6.463  -9.683  0.00  0.00    -0.004 C 
ATOM      4  C   UNL     1       4.058   6.394  -8.384  0.00  0.00    -0.000 C 
ATOM      5  C   UNL     1       2.531   6.470 -10.312  0.00  0.00    -0.000 A 
ATOM      6  C   UNL     1       2.742   6.287 -11.660  0.00  0.00    -0.002 A 
ATOM      7  C   UNL     1       1.713   6.435 -12.553  0.00  0.00    +0.029 A 
ATOM      8  C   UNL     1       0.491   6.894 -12.080  0.00  0.00    +0.140 A 
ATOM      9  C   UNL     1       0.246   6.808 -10.734  0.00  0.00    +0.030 A 
ATOM     10  F   UNL     1      -0.389   7.462 -12.951  0.00  0.00    -0.204 F 
ATOM     11  C   UNL     1       1.263   6.702  -9.794  0.00  0.00    +0.002 A 
ATOM     12  C   UNL     1       4.102   5.813 -11.851  0.00  0.00    -0.015 C 
ENDROOT
BRANCH   4  13
ATOM     13  C   UNL     1       2.988   6.117  -7.418  0.00  0.00    +0.000 A 
ATOM     14  C   UNL     1       2.816   7.050  -6.402  0.00  0.00    +0.001 A 
ATOM     15  C   UNL     1       2.166   6.682  -5.230  0.00  0.00    +0.009 A 
ATOM     16  C   UNL     1       1.633   5.408  -5.069  0.00  0.00    +0.056 A 
ATOM     17  C   UNL     1       1.919   4.513  -6.071  0.00  0.00    +0.009 A 
ATOM     18  C   UNL     1       2.885   4.790  -7.014  0.00  0.00    +0.001 A 
BRANCH  16  19
ATOM     19  S   UNL     1       0.133   5.237  -4.068  0.00  0.00    +0.066 S 
ATOM     20  O   UNL     1       0.726   5.475  -2.647  0.00  0.00    -0.251 OA
ATOM     21  C   UNL     1      -0.673   6.869  -4.342  0.00  0.00    +0.111 C 
ENDBRANCH  16  19
ENDBRANCH   4  13
BRANCH  12  22
ATOM     22  C   UNL     1       4.609   4.994 -12.995  0.00  0.00    +0.140 C 
BRANCH  22  23
ATOM     23  C   UNL     1       5.040   5.963 -14.052  0.00  0.00    +0.369 C 
ATOM     24  O   UNL     1       4.110   6.182 -15.073  0.00  0.00    -0.245 OA
ATOM     25  O   UNL     1       6.238   5.823 -14.445  0.00  0.00    -0.245 OA
ENDBRANCH  22  23
ENDBRANCH  12  22
TORSDOF 4
ENDMDL
MODEL 8
REMARK VINA RESULT:      -7.8      4.095      9.419
REMARK  Name = 
REMARK  4 active torsions:
REMARK  status: ('A' for Active; 'I' for Inactive)
REMARK    1  A    between atoms: C_3  and  C_4
REMARK    2  A    between atoms: C_4  and  C_5
REMARK    3  A    between atoms: C_16  and  C_17
REMARK    4  A    between atoms: C_20  and  S_21
REMARK                            x       y       z     vdW  Elec       q    Type
REMARK                         _______ _______ _______ _____ _____    ______ ____
ROOT
ATOM      1  C   UNL     1       3.367   5.970 -14.492  0.00  0.00    +0.031 C 
ATOM      2  C   UNL     1       4.565   5.912 -13.735  0.00  0.00    -0.025 C 
ATOM      3  C   UNL     1       4.663   5.460 -12.343  0.00  0.00    -0.004 C 
ATOM      4  C   UNL     1       3.675   5.243 -11.501  0.00  0.00    -0.000 C 
ATOM      5  C   UNL     1       6.046   5.735 -11.937  0.00  0.00    -0.000 A 
ATOM      6  C   UNL     1       6.703   6.160 -13.069  0.00  0.00    -0.002 A 
ATOM      7  C   UNL     1       8.065   6.316 -13.067  0.00  0.00    +0.029 A 
ATOM      8  C   UNL     1       8.773   5.918 -11.941  0.00  0.00    +0.140 A 
ATOM      9  C   UNL     1       8.082   5.759 -10.767  0.00  0.00    +0.030 A 
ATOM     10  F   UNL     1      10.102   5.644 -12.053  0.00  0.00    -0.204 F 
ATOM     11  C   UNL     1       6.708   5.554 -10.729  0.00  0.00    +0.002 A 
ATOM     12  C   UNL     1       5.712   6.500 -14.075  0.00  0.00    -0.015 C 
ENDROOT
BRANCH   4  13
ATOM     13  C   UNL     1       3.794   5.443 -10.051  0.00  0.00    +0.000 A 
ATOM     14  C   UNL     1       3.549   4.333  -9.252  0.00  0.00    +0.001 A 
ATOM     15  C   UNL     1       3.206   4.506  -7.916  0.00  0.00    +0.009 A 
ATOM     16  C   UNL     1       3.156   5.771  -7.342  0.00  0.00    +0.056 A 
ATOM     17  C   UNL     1       3.318   6.824  -8.209  0.00  0.00    +0.009 A 
ATOM     18  C   UNL     1       3.261   6.634  -9.573  0.00  0.00    +0.001 A 
BRANCH  16  19
ATOM     19  S   UNL     1       3.599   5.928  -5.593  0.00  0.00    +0.066 S 
ATOM     20  O   UNL     1       3.567   7.478  -5.442  0.00  0.00    -0.251 OA
ATOM     21  C   UNL     1       2.005   5.506  -4.776  0.00  0.00    +0.111 C 
ENDBRANCH  16  19
ENDBRANCH   4  13
BRANCH  12  22
ATOM     22  C   UNL     1       5.880   7.467 -15.203  0.00  0.00    +0.140 C 
BRANCH  22  23
ATOM     23  C   UNL     1       6.506   6.702 -16.327  0.00  0.00    +0.369 C 
ATOM     24  O   UNL     1       7.855   6.988 -16.564  0.00  0.00    -0.245 OA
ATOM     25  O   UNL     1       5.791   6.613 -17.372  0.00  0.00    -0.245 OA
ENDBRANCH  22  23
ENDBRANCH  12  22
TORSDOF 4
ENDMDL
MODEL 9
REMARK VINA RESULT:      -7.7      4.056      9.220
REMARK  Name = 
REMARK  4 active torsions:
REMARK  status: ('A' for Active; 'I' for Inactive)
REMARK    1  A    between atoms: C_3  and  C_4
REMARK    2  A    between atoms: C_4  and  C_5
REMARK    3  A    between atoms: C_16  and  C_17
REMARK    4  A    between atoms: C_20  and  S_21
REMARK                            x       y       z     vdW  Elec       q    Type
REMARK                         _______ _______ _______ _____ _____    ______ ____
ROOT
ATOM      1  C   UNL     1       7.112   7.300 -11.325  0.00  0.00    +0.031 C 
ATOM      2  C   UNL     1       5.831   6.883 -11.766  0.00  0.00    -0.025 C 
ATOM      3  C   UNL     1       4.617   6.871 -10.941  0.00  0.00    -0.004 C 
ATOM      4  C   UNL     1       4.535   7.025  -9.637  0.00  0.00    -0.000 C 
ATOM      5  C   UNL     1       3.594   6.211 -11.760  0.00  0.00    -0.000 A 
ATOM      6  C   UNL     1       4.157   6.017 -13.001  0.00  0.00    -0.002 A 
ATOM      7  C   UNL     1       3.391   5.593 -14.055  0.00  0.00    +0.029 A 
ATOM      8  C   UNL     1       2.019   5.484 -13.872  0.00  0.00    +0.140 A 
ATOM      9  C   UNL     1       1.541   5.425 -12.587  0.00  0.00    +0.030 A 
ATOM     10  F   UNL     1       1.199   5.502 -14.959  0.00  0.00    -0.204 F 
ATOM     11  C   UNL     1       2.269   5.885 -11.497  0.00  0.00    +0.002 A 
ATOM     12  C   UNL     1       5.593   6.202 -12.886  0.00  0.00    -0.015 C 
ENDROOT
BRANCH   4  13
ATOM     13  C   UNL     1       3.502   6.383  -8.815  0.00  0.00    +0.000 A 
ATOM     14  C   UNL     1       2.658   7.231  -8.108  0.00  0.00    +0.001 A 
ATOM     15  C   UNL     1       1.968   6.754  -7.000  0.00  0.00    +0.009 A 
ATOM     16  C   UNL     1       2.063   5.423  -6.610  0.00  0.00    +0.056 A 
ATOM     17  C   UNL     1       2.983   4.666  -7.293  0.00  0.00    +0.009 A 
ATOM     18  C   UNL     1       3.921   5.259  -8.110  0.00  0.00    +0.001 A 
BRANCH  16  19
ATOM     19  S   UNL     1       0.608   4.657  -5.849  0.00  0.00    +0.066 S 
ATOM     20  O   UNL     1       0.627   5.359  -4.458  0.00  0.00    -0.251 OA
ATOM     21  C   UNL     1      -0.757   5.598  -6.650  0.00  0.00    +0.111 C 
ENDBRANCH  16  19
ENDBRANCH   4  13
BRANCH  12  22
ATOM     22  C   UNL     1       6.643   5.601 -13.766  0.00  0.00    +0.140 C 
BRANCH  22  23
ATOM     23  C   UNL     1       6.919   6.605 -14.842  0.00  0.00    +0.369 C 
ATOM     24  O   UNL     1       6.239   7.819 -14.712  0.00  0.00    -0.245 OA
ATOM     25  O   UNL     1       6.940   6.130 -16.019  0.00  0.00    -0.245 OA
ENDBRANCH  22  23
ENDBRANCH  12  22
TORSDOF 4
ENDMDL
