MODEL 1
REMARK VINA RESULT:      -6.8      0.000      0.000
REMARK  Name = 
REMARK  4 active torsions:
REMARK  status: ('A' for Active; 'I' for Inactive)
REMARK    1  A    between atoms: O_2  and  C_3
REMARK    2  A    between atoms: C_3  and  C_5
REMARK    3  A    between atoms: C_5  and  C_6
REMARK    4  A    between atoms: C_5  and  C_12
REMARK                            x       y       z     vdW  Elec       q    Type
REMARK                         _______ _______ _______ _____ _____    ______ ____
ROOT
ATOM      1  C   UNL     1       4.163   6.440  -9.785  0.00  0.00    +0.137 C 
ENDROOT
BRANCH   1   2
ATOM      2  C   UNL     1       4.205   4.894  -9.001  0.00  0.00    +0.087 C 
ATOM      3  N   UNL     1       2.628   4.817  -9.019  0.00  0.00    -0.219 NA
ATOM      4  C   UNL     1       2.448   3.651  -8.153  0.00  0.00    +0.089 C 
ATOM      5  C   UNL     1       2.370   4.238  -6.747  0.00  0.00    +0.019 C 
ATOM      6  C   UNL     1       3.049   5.601  -6.817  0.00  0.00    +0.003 C 
ATOM      7  C   UNL     1       4.318   5.557  -7.506  0.00  0.00    +0.018 C 
ENDBRANCH   1   2
BRANCH   1   8
ATOM      8  C   UNL     1       5.691   6.374 -10.277  0.00  0.00    -0.011 A 
ATOM      9  C   UNL     1       6.144   7.294 -11.147  0.00  0.00    -0.004 A 
ATOM     10  C   UNL     1       7.430   7.090 -11.643  0.00  0.00    -0.000 A 
ATOM     11  C   UNL     1       8.143   5.972 -11.222  0.00  0.00    -0.000 A 
ATOM     12  C   UNL     1       7.819   5.484  -9.960  0.00  0.00    -0.000 A 
ATOM     13  C   UNL     1       6.566   5.759  -9.426  0.00  0.00    -0.004 A 
ENDBRANCH   1   8
BRANCH   1  14
ATOM     14  C   UNL     1       3.629   5.790 -11.161  0.00  0.00    +0.322 C 
ATOM     15  O   UNL     1       4.480   5.153 -11.812  0.00  0.00    -0.250 OA
BRANCH  14  17
ATOM     16  C   UNL     1       1.475   6.066 -12.226  0.00  0.00    +0.256 C 
ATOM     17  O   UNL     1       2.696   6.575 -11.818  0.00  0.00    -0.444 OA
ENDBRANCH  14  17
ENDBRANCH   1  14
TORSDOF 4
ENDMDL
MODEL 2
REMARK VINA RESULT:      -6.7      5.978      8.408
REMARK  Name = 
REMARK  4 active torsions:
REMARK  status: ('A' for Active; 'I' for Inactive)
REMARK    1  A    between atoms: O_2  and  C_3
REMARK    2  A    between atoms: C_3  and  C_5
REMARK    3  A    between atoms: C_5  and  C_6
REMARK    4  A    between atoms: C_5  and  C_12
REMARK                            x       y       z     vdW  Elec       q    Type
REMARK                         _______ _______ _______ _____ _____    ______ ____
ROOT
ATOM      1  C   UNL     1       0.774   6.465  -3.655  0.00  0.00    +0.137 C 
ENDROOT
BRANCH   1   2
ATOM      2  C   UNL     1       1.710   5.435  -4.689  0.00  0.00    +0.087 C 
ATOM      3  N   UNL     1       2.874   5.387  -3.624  0.00  0.00    -0.219 NA
ATOM      4  C   UNL     1       3.900   4.737  -4.439  0.00  0.00    +0.089 C 
ATOM      5  C   UNL     1       4.621   5.893  -5.126  0.00  0.00    +0.019 C 
ATOM      6  C   UNL     1       3.649   7.067  -5.113  0.00  0.00    +0.003 C 
ATOM      7  C   UNL     1       2.319   6.695  -5.541  0.00  0.00    +0.018 C 
ENDBRANCH   1   2
BRANCH   1   8
ATOM      8  C   UNL     1      -0.519   6.460  -4.609  0.00  0.00    -0.011 A 
ATOM      9  C   UNL     1      -1.336   7.529  -4.619  0.00  0.00    -0.004 A 
ATOM     10  C   UNL     1      -2.512   7.397  -5.353  0.00  0.00    -0.000 A 
ATOM     11  C   UNL     1      -2.764   6.197  -6.009  0.00  0.00    -0.000 A 
ATOM     12  C   UNL     1      -1.643   5.464  -6.389  0.00  0.00    -0.000 A 
ATOM     13  C   UNL     1      -0.445   5.657  -5.712  0.00  0.00    -0.004 A 
ENDBRANCH   1   8
BRANCH   1  14
ATOM     14  C   UNL     1       0.225   5.209  -2.805  0.00  0.00    +0.322 C 
ATOM     15  O   UNL     1      -1.000   4.999  -2.900  0.00  0.00    -0.250 OA
BRANCH  14  17
ATOM     16  C   UNL     1       0.843   6.018  -0.611  0.00  0.00    +0.256 C 
ATOM     17  O   UNL     1       0.868   5.040  -1.590  0.00  0.00    -0.444 OA
ENDBRANCH  14  17
ENDBRANCH   1  14
TORSDOF 4
ENDMDL
MODEL 3
REMARK VINA RESULT:      -6.6      4.422      7.562
REMARK  Name = 
REMARK  4 active torsions:
REMARK  status: ('A' for Active; 'I' for Inactive)
REMARK    1  A    between atoms: O_2  and  C_3
REMARK    2  A    between atoms: C_3  and  C_5
REMARK    3  A    between atoms: C_5  and  C_6
REMARK    4  A    between atoms: C_5  and  C_12
REMARK                            x       y       z     vdW  Elec       q    Type
REMARK                         _______ _______ _______ _____ _____    ______ ____
ROOT
ATOM      1  C   UNL     1       0.360   5.093  -5.323  0.00  0.00    +0.137 C 
ENDROOT
BRANCH   1   2
ATOM      2  C   UNL     1       1.569   6.316  -5.541  0.00  0.00    +0.087 C 
ATOM      3  N   UNL     1       2.611   5.231  -6.019  0.00  0.00    -0.219 NA
ATOM      4  C   UNL     1       3.817   6.061  -6.024  0.00  0.00    +0.089 C 
ATOM      5  C   UNL     1       4.372   5.924  -4.609  0.00  0.00    +0.019 C 
ATOM      6  C   UNL     1       3.200   5.494  -3.734  0.00  0.00    +0.003 C 
ATOM      7  C   UNL     1       2.012   6.285  -3.964  0.00  0.00    +0.018 C 
ENDBRANCH   1   2
BRANCH   1   8
ATOM      8  C   UNL     1      -0.660   6.061  -4.547  0.00  0.00    -0.011 A 
ATOM      9  C   UNL     1      -1.138   7.153  -5.172  0.00  0.00    -0.004 A 
ATOM     10  C   UNL     1      -1.897   8.024  -4.394  0.00  0.00    -0.000 A 
ATOM     11  C   UNL     1      -2.103   7.720  -3.052  0.00  0.00    -0.000 A 
ATOM     12  C   UNL     1      -2.075   6.369  -2.723  0.00  0.00    -0.000 A 
ATOM     13  C   UNL     1      -1.389   5.483  -3.546  0.00  0.00    -0.004 A 
ENDBRANCH   1   8
BRANCH   1  14
ATOM     14  C   UNL     1      -0.315   5.425  -6.749  0.00  0.00    +0.322 C 
ATOM     15  O   UNL     1      -1.463   4.968  -6.912  0.00  0.00    -0.250 OA
BRANCH  14  17
ATOM     16  C   UNL     1       0.177   5.614  -9.109  0.00  0.00    +0.256 C 
ATOM     17  O   UNL     1       0.586   5.431  -7.801  0.00  0.00    -0.444 OA
ENDBRANCH  14  17
ENDBRANCH   1  14
TORSDOF 4
ENDMDL
MODEL 4
REMARK VINA RESULT:      -6.6      3.966      5.945
REMARK  Name = 
REMARK  4 active torsions:
REMARK  status: ('A' for Active; 'I' for Inactive)
REMARK    1  A    between atoms: O_2  and  C_3
REMARK    2  A    between atoms: C_3  and  C_5
REMARK    3  A    between atoms: C_5  and  C_6
REMARK    4  A    between atoms: C_5  and  C_12
REMARK                            x       y       z     vdW  Elec       q    Type
REMARK                         _______ _______ _______ _____ _____    ______ ____
ROOT
ATOM      1  C   UNL     1       1.436   4.614  -5.623  0.00  0.00    +0.137 C 
ENDROOT
BRANCH   1   2
ATOM      2  C   UNL     1       0.566   6.111  -5.704  0.00  0.00    +0.087 C 
ATOM      3  N   UNL     1      -0.503   5.571  -4.675  0.00  0.00    -0.219 NA
ATOM      4  C   UNL     1      -1.495   6.640  -4.797  0.00  0.00    +0.089 C 
ATOM      5  C   UNL     1      -2.405   6.179  -5.933  0.00  0.00    +0.019 C 
ATOM      6  C   UNL     1      -1.590   5.183  -6.750  0.00  0.00    +0.003 C 
ATOM      7  C   UNL     1      -0.259   5.661  -7.047  0.00  0.00    +0.018 C 
ENDBRANCH   1   2
BRANCH   1   8
ATOM      8  C   UNL     1       2.328   4.915  -6.924  0.00  0.00    -0.011 A 
ATOM      9  C   UNL     1       3.206   5.935  -6.900  0.00  0.00    -0.004 A 
ATOM     10  C   UNL     1       3.837   6.231  -8.105  0.00  0.00    -0.000 A 
ATOM     11  C   UNL     1       3.522   5.478  -9.231  0.00  0.00    -0.000 A 
ATOM     12  C   UNL     1       3.099   4.175  -8.993  0.00  0.00    -0.000 A 
ATOM     13  C   UNL     1       2.547   3.855  -7.758  0.00  0.00    -0.004 A 
ENDBRANCH   1   8
BRANCH   1  14
ATOM     14  C   UNL     1       2.546   5.247  -4.640  0.00  0.00    +0.322 C 
ATOM     15  O   UNL     1       3.581   4.566  -4.500  0.00  0.00    -0.250 OA
BRANCH  14  17
ATOM     16  C   UNL     1       2.782   6.732  -2.746  0.00  0.00    +0.256 C 
ATOM     17  O   UNL     1       2.007   5.923  -3.558  0.00  0.00    -0.444 OA
ENDBRANCH  14  17
ENDBRANCH   1  14
TORSDOF 4
ENDMDL
MODEL 5
REMARK VINA RESULT:      -6.6      4.095      5.877
REMARK  Name = 
REMARK  4 active torsions:
REMARK  status: ('A' for Active; 'I' for Inactive)
REMARK    1  A    between atoms: O_2  and  C_3
REMARK    2  A    between atoms: C_3  and  C_5
REMARK    3  A    between atoms: C_5  and  C_6
REMARK    4  A    between atoms: C_5  and  C_12
REMARK                            x       y       z     vdW  Elec       q    Type
REMARK                         _______ _______ _______ _____ _____    ______ ____
ROOT
ATOM      1  C   UNL     1       2.460   6.468  -6.109  0.00  0.00    +0.137 C 
ENDROOT
BRANCH   1   2
ATOM      2  C   UNL     1       1.177   5.450  -5.541  0.00  0.00    +0.087 C 
ATOM      3  N   UNL     1       0.271   5.873  -6.763  0.00  0.00    -0.219 NA
ATOM      4  C   UNL     1      -0.994   5.284  -6.323  0.00  0.00    +0.089 C 
ATOM      5  C   UNL     1      -1.652   6.385  -5.496  0.00  0.00    +0.019 C 
ATOM      6  C   UNL     1      -0.526   7.311  -5.050  0.00  0.00    +0.003 C 
ATOM      7  C   UNL     1       0.607   6.592  -4.513  0.00  0.00    +0.018 C 
ENDBRANCH   1   2
BRANCH   1   8
ATOM      8  C   UNL     1       3.309   6.371  -4.748  0.00  0.00    -0.011 A 
ATOM      9  C   UNL     1       3.693   5.165  -4.294  0.00  0.00    -0.004 A 
ATOM     10  C   UNL     1       4.295   5.143  -3.039  0.00  0.00    -0.000 A 
ATOM     11  C   UNL     1       4.450   6.340  -2.347  0.00  0.00    -0.000 A 
ATOM     12  C   UNL     1       4.559   7.485  -3.130  0.00  0.00    -0.000 A 
ATOM     13  C   UNL     1       4.035   7.480  -4.417  0.00  0.00    -0.004 A 
ENDBRANCH   1   8
BRANCH   1  14
ATOM     14  C   UNL     1       3.243   5.216  -6.757  0.00  0.00    +0.322 C 
ATOM     15  O   UNL     1       4.370   5.477  -7.221  0.00  0.00    -0.250 OA
BRANCH  14  17
ATOM     16  C   UNL     1       2.731   3.808  -8.655  0.00  0.00    +0.256 C 
ATOM     17  O   UNL     1       2.412   4.321  -7.410  0.00  0.00    -0.444 OA
ENDBRANCH  14  17
ENDBRANCH   1  14
TORSDOF 4
ENDMDL
MODEL 6
REMARK VINA RESULT:      -6.5      4.599      7.802
REMARK  Name = 
REMARK  4 active torsions:
REMARK  status: ('A' for Active; 'I' for Inactive)
REMARK    1  A    between atoms: O_2  and  C_3
REMARK    2  A    between atoms: C_3  and  C_5
REMARK    3  A    between atoms: C_5  and  C_6
REMARK    4  A    between atoms: C_5  and  C_12
REMARK                            x       y       z     vdW  Elec       q    Type
REMARK                         _______ _______ _______ _____ _____    ______ ____
ROOT
ATOM      1  C   UNL     1       1.262   6.589  -5.633  0.00  0.00    +0.137 C 
ENDROOT
BRANCH   1   2
ATOM      2  C   UNL     1       1.154   5.028  -6.378  0.00  0.00    +0.087 C 
ATOM      3  N   UNL     1       2.426   5.336  -7.260  0.00  0.00    -0.219 NA
ATOM      4  C   UNL     1       2.356   4.190  -8.167  0.00  0.00    +0.089 C 
ATOM      5  C   UNL     1       1.481   4.677  -9.319  0.00  0.00    +0.019 C 
ATOM      6  C   UNL     1       0.660   5.836  -8.767  0.00  0.00    +0.003 C 
ATOM      7  C   UNL     1       0.060   5.535  -7.487  0.00  0.00    +0.018 C 
ENDBRANCH   1   2
BRANCH   1   8
ATOM      8  C   UNL     1      -0.176   6.491  -4.925  0.00  0.00    -0.011 A 
ATOM      9  C   UNL     1      -0.369   5.591  -3.944  0.00  0.00    -0.004 A 
ATOM     10  C   UNL     1      -1.675   5.458  -3.479  0.00  0.00    -0.000 A 
ATOM     11  C   UNL     1      -2.674   6.241  -4.048  0.00  0.00    -0.000 A 
ATOM     12  C   UNL     1      -2.264   7.462  -4.575  0.00  0.00    -0.000 A 
ATOM     13  C   UNL     1      -0.939   7.625  -4.961  0.00  0.00    -0.004 A 
ENDBRANCH   1   8
BRANCH   1  14
ATOM     14  C   UNL     1       2.008   5.982  -4.338  0.00  0.00    +0.322 C 
ATOM     15  O   UNL     1       2.247   6.802  -3.430  0.00  0.00    -0.250 OA
BRANCH  14  17
ATOM     16  C   UNL     1       4.104   4.849  -3.927  0.00  0.00    +0.256 C 
ATOM     17  O   UNL     1       2.928   4.993  -4.642  0.00  0.00    -0.444 OA
ENDBRANCH  14  17
ENDBRANCH   1  14
TORSDOF 4
ENDMDL
MODEL 7
REMARK VINA RESULT:      -6.5      3.863      7.062
REMARK  Name = 
REMARK  4 active torsions:
REMARK  status: ('A' for Active; 'I' for Inactive)
REMARK    1  A    between atoms: O_2  and  C_3
REMARK    2  A    between atoms: C_3  and  C_5
REMARK    3  A    between atoms: C_5  and  C_6
REMARK    4  A    between atoms: C_5  and  C_12
REMARK                            x       y       z     vdW  Elec       q    Type
REMARK                         _______ _______ _______ _____ _____    ______ ____
ROOT
ATOM      1  C   UNL     1       1.698   6.472  -6.392  0.00  0.00    +0.137 C 
ENDROOT
BRANCH   1   2
ATOM      2  C   UNL     1       1.659   5.292  -7.662  0.00  0.00    +0.087 C 
ATOM      3  N   UNL     1       3.221   5.091  -7.553  0.00  0.00    -0.219 NA
ATOM      4  C   UNL     1       3.429   4.278  -8.752  0.00  0.00    +0.089 C 
ATOM      5  C   UNL     1       3.671   5.300  -9.860  0.00  0.00    +0.019 C 
ATOM      6  C   UNL     1       3.054   6.606  -9.374  0.00  0.00    +0.003 C 
ATOM      7  C   UNL     1       1.723   6.429  -8.840  0.00  0.00    +0.018 C 
ENDBRANCH   1   2
BRANCH   1   8
ATOM      8  C   UNL     1       0.133   6.345  -6.054  0.00  0.00    -0.011 A 
ATOM      9  C   UNL     1      -0.439   7.240  -5.228  0.00  0.00    -0.004 A 
ATOM     10  C   UNL     1      -1.758   6.985  -4.863  0.00  0.00    -0.000 A 
ATOM     11  C   UNL     1      -2.384   5.845  -5.357  0.00  0.00    -0.000 A 
ATOM     12  C   UNL     1      -1.919   5.379  -6.583  0.00  0.00    -0.000 A 
ATOM     13  C   UNL     1      -0.631   5.705  -6.990  0.00  0.00    -0.004 A 
ENDBRANCH   1   8
BRANCH   1  14
ATOM     14  C   UNL     1       2.087   5.358  -5.292  0.00  0.00    +0.322 C 
ATOM     15  O   UNL     1       1.138   4.659  -4.886  0.00  0.00    -0.250 OA
BRANCH  14  17
ATOM     16  C   UNL     1       3.311   7.108  -4.159  0.00  0.00    +0.256 C 
ATOM     17  O   UNL     1       3.074   5.769  -4.412  0.00  0.00    -0.444 OA
ENDBRANCH  14  17
ENDBRANCH   1  14
TORSDOF 4
ENDMDL
MODEL 8
REMARK VINA RESULT:      -6.5      1.598      4.455
REMARK  Name = 
REMARK  4 active torsions:
REMARK  status: ('A' for Active; 'I' for Inactive)
REMARK    1  A    between atoms: O_2  and  C_3
REMARK    2  A    between atoms: C_3  and  C_5
REMARK    3  A    between atoms: C_5  and  C_6
REMARK    4  A    between atoms: C_5  and  C_12
REMARK                            x       y       z     vdW  Elec       q    Type
REMARK                         _______ _______ _______ _____ _____    ______ ____
ROOT
ATOM      1  C   UNL     1       4.029   5.269 -10.287  0.00  0.00    +0.137 C 
ENDROOT
BRANCH   1   2
ATOM      2  C   UNL     1       4.858   6.693 -10.825  0.00  0.00    +0.087 C 
ATOM      3  N   UNL     1       5.408   5.922 -12.088  0.00  0.00    -0.219 NA
ATOM      4  C   UNL     1       6.365   6.922 -12.565  0.00  0.00    +0.089 C 
ATOM      5  C   UNL     1       7.660   6.580 -11.833  0.00  0.00    +0.019 C 
ATOM      6  C   UNL     1       7.252   5.786 -10.598  0.00  0.00    +0.003 C 
ATOM      7  C   UNL     1       6.161   6.400  -9.875  0.00  0.00    +0.018 C 
ENDBRANCH   1   2
BRANCH   1   8
ATOM      8  C   UNL     1       3.623   5.890  -8.862  0.00  0.00    -0.011 A 
ATOM      9  C   UNL     1       2.741   6.905  -8.812  0.00  0.00    -0.004 A 
ATOM     10  C   UNL     1       2.547   7.490  -7.564  0.00  0.00    -0.000 A 
ATOM     11  C   UNL     1       3.266   7.006  -6.476  0.00  0.00    -0.000 A 
ATOM     12  C   UNL     1       3.646   5.669  -6.544  0.00  0.00    -0.000 A 
ATOM     13  C   UNL     1       3.756   5.057  -7.787  0.00  0.00    -0.004 A 
ENDBRANCH   1   8
BRANCH   1  14
ATOM     14  C   UNL     1       2.645   5.752 -10.960  0.00  0.00    +0.322 C 
ATOM     15  O   UNL     1       1.630   5.129 -10.591  0.00  0.00    -0.250 OA
BRANCH  14  17
ATOM     16  C   UNL     1       1.683   6.483 -13.054  0.00  0.00    +0.256 C 
ATOM     17  O   UNL     1       2.779   6.143 -12.281  0.00  0.00    -0.444 OA
ENDBRANCH  14  17
ENDBRANCH   1  14
TORSDOF 4
ENDMDL
MODEL 9
REMARK VINA RESULT:      -6.5      6.044      7.644
REMARK  Name = 
REMARK  4 active torsions:
REMARK  status: ('A' for Active; 'I' for Inactive)
REMARK    1  A    between atoms: O_2  and  C_3
REMARK    2  A    between atoms: C_3  and  C_5
REMARK    3  A    between atoms: C_5  and  C_6
REMARK    4  A    between atoms: C_5  and  C_12
REMARK                            x       y       z     vdW  Elec       q    Type
REMARK                         _______ _______ _______ _____ _____    ______ ____
ROOT
ATOM      1  C   UNL     1       0.891   4.992  -3.986  0.00  0.00    +0.137 C 
ENDROOT
BRANCH   1   2
ATOM      2  C   UNL     1      -0.101   6.353  -4.398  0.00  0.00    +0.087 C 
ATOM      3  N   UNL     1      -1.404   5.473  -4.261  0.00  0.00    -0.219 NA
ATOM      4  C   UNL     1      -2.373   6.413  -4.825  0.00  0.00    +0.089 C 
ATOM      5  C   UNL     1      -2.365   6.109  -6.320  0.00  0.00    +0.019 C 
ATOM      6  C   UNL     1      -1.033   5.425  -6.606  0.00  0.00    +0.003 C 
ATOM      7  C   UNL     1       0.088   6.115  -6.008  0.00  0.00    +0.018 C 
ENDBRANCH   1   2
BRANCH   1   8
ATOM      8  C   UNL     1       2.276   5.776  -4.200  0.00  0.00    -0.011 A 
ATOM      9  C   UNL     1       2.567   6.829  -3.415  0.00  0.00    -0.004 A 
ATOM     10  C   UNL     1       3.710   7.550  -3.752  0.00  0.00    -0.000 A 
ATOM     11  C   UNL     1       4.456   7.150  -4.855  0.00  0.00    -0.000 A 
ATOM     12  C   UNL     1       4.390   5.798  -5.176  0.00  0.00    -0.000 A 
ATOM     13  C   UNL     1       3.290   5.055  -4.766  0.00  0.00    -0.004 A 
ENDBRANCH   1   8
BRANCH   1  14
ATOM     14  C   UNL     1       0.852   5.367  -2.418  0.00  0.00    +0.322 C 
ATOM     15  O   UNL     1       1.906   5.139  -1.792  0.00  0.00    -0.250 OA
BRANCH  14  17
ATOM     16  C   UNL     1      -0.837   5.909  -0.775  0.00  0.00    +0.256 C 
ATOM     17  O   UNL     1      -0.376   5.132  -1.822  0.00  0.00    -0.444 OA
ENDBRANCH  14  17
ENDBRANCH   1  14
TORSDOF 4
ENDMDL
