MODEL 1
REMARK VINA RESULT:      -5.2      0.000      0.000
REMARK  Name = 
REMARK  2 active torsions:
REMARK  status: ('A' for Active; 'I' for Inactive)
REMARK    1  A    between atoms: C_4  and  C_5
REMARK    2  A    between atoms: C_5  and  C_7
REMARK                            x       y       z     vdW  Elec       q    Type
REMARK                         _______ _______ _______ _____ _____    ______ ____
ROOT
ATOM      1  O   UNL     1       3.021   4.630 -14.433  0.00  0.00    -0.241 OA
ATOM      2  C   UNL     1       3.720   5.072 -13.700  0.00  0.00    +0.384 C 
ATOM      3  C   UNL     1       3.350   5.779 -12.468  0.00  0.00    +0.308 C 
ATOM      4  O   UNL     1       2.097   5.906 -11.859  0.00  0.00    -0.276 OA
ATOM      5  C   UNL     1       4.416   6.258 -11.864  0.00  0.00    +0.261 C 
ATOM      6  O   UNL     1       4.592   7.021 -10.743  0.00  0.00    -0.284 OA
ATOM      7  C   UNL     1       5.607   6.108 -12.948  0.00  0.00    +0.266 C 
ATOM      8  O   UNL     1       5.042   4.764 -13.450  0.00  0.00    -0.436 OA
ENDROOT
BRANCH   7   9
ATOM      9  C   UNL     1       6.645   5.354 -11.769  0.00  0.00    +0.232 C 
ATOM     10  O   UNL     1       7.504   4.652 -12.809  0.00  0.00    -0.216 OA
BRANCH   9  11
ATOM     11  C   UNL     1       7.678   6.641 -11.741  0.00  0.00    +0.219 C 
ATOM     12  O   UNL     1       7.885   6.968 -10.436  0.00  0.00    -0.217 OA
ENDBRANCH   9  11
ENDBRANCH   7   9
TORSDOF 2
ENDMDL
MODEL 2
REMARK VINA RESULT:      -5.2      9.913     11.754
REMARK  Name = 
REMARK  2 active torsions:
REMARK  status: ('A' for Active; 'I' for Inactive)
REMARK    1  A    between atoms: C_4  and  C_5
REMARK    2  A    between atoms: C_5  and  C_7
REMARK                            x       y       z     vdW  Elec       q    Type
REMARK                         _______ _______ _______ _____ _____    ______ ____
ROOT
ATOM      1  O   UNL     1       1.769   4.443  -0.640  0.00  0.00    -0.241 OA
ATOM      2  C   UNL     1       1.137   4.927  -1.408  0.00  0.00    +0.384 C 
ATOM      3  C   UNL     1       1.605   5.524  -2.664  0.00  0.00    +0.308 C 
ATOM      4  O   UNL     1       2.872   5.474  -3.254  0.00  0.00    -0.276 OA
ATOM      5  C   UNL     1       0.611   6.094  -3.311  0.00  0.00    +0.261 C 
ATOM      6  O   UNL     1       0.541   6.816  -4.470  0.00  0.00    -0.284 OA
ATOM      7  C   UNL     1      -0.604   6.138  -2.244  0.00  0.00    +0.266 C 
ATOM      8  O   UNL     1      -0.208   4.763  -1.668  0.00  0.00    -0.436 OA
ENDROOT
BRANCH   7   9
ATOM      9  C   UNL     1      -1.708   5.453  -3.406  0.00  0.00    +0.232 C 
ATOM     10  O   UNL     1      -2.627   4.858  -2.351  0.00  0.00    -0.216 OA
BRANCH   9  11
ATOM     11  C   UNL     1      -2.618   6.828  -3.467  0.00  0.00    +0.219 C 
ATOM     12  O   UNL     1      -2.735   7.179  -4.777  0.00  0.00    -0.217 OA
ENDBRANCH   9  11
ENDBRANCH   7   9
TORSDOF 2
ENDMDL
MODEL 3
REMARK VINA RESULT:      -5.0      1.184      4.613
REMARK  Name = 
REMARK  2 active torsions:
REMARK  status: ('A' for Active; 'I' for Inactive)
REMARK    1  A    between atoms: C_4  and  C_5
REMARK    2  A    between atoms: C_5  and  C_7
REMARK                            x       y       z     vdW  Elec       q    Type
REMARK                         _______ _______ _______ _____ _____    ______ ____
ROOT
ATOM      1  O   UNL     1       8.045   6.696 -10.575  0.00  0.00    -0.241 OA
ATOM      2  C   UNL     1       7.072   6.377 -10.991  0.00  0.00    +0.384 C 
ATOM      3  C   UNL     1       6.869   5.411 -12.078  0.00  0.00    +0.308 C 
ATOM      4  O   UNL     1       7.794   4.567 -12.700  0.00  0.00    -0.276 OA
ATOM      5  C   UNL     1       5.594   5.322 -12.393  0.00  0.00    +0.261 C 
ATOM      6  O   UNL     1       4.916   4.623 -13.353  0.00  0.00    -0.284 OA
ATOM      7  C   UNL     1       4.894   6.568 -11.638  0.00  0.00    +0.266 C 
ATOM      8  O   UNL     1       5.819   6.406 -10.415  0.00  0.00    -0.436 OA
ENDROOT
BRANCH   7   9
ATOM      9  C   UNL     1       3.659   5.531 -10.978  0.00  0.00    +0.232 C 
ATOM     10  O   UNL     1       3.356   6.450  -9.805  0.00  0.00    -0.216 OA
BRANCH   9  11
ATOM     11  C   UNL     1       2.472   6.241 -11.879  0.00  0.00    +0.219 C 
ATOM     12  O   UNL     1       1.352   5.480 -11.748  0.00  0.00    -0.217 OA
ENDBRANCH   9  11
ENDBRANCH   7   9
TORSDOF 2
ENDMDL
MODEL 4
REMARK VINA RESULT:      -4.9      1.216      2.963
REMARK  Name = 
REMARK  2 active torsions:
REMARK  status: ('A' for Active; 'I' for Inactive)
REMARK    1  A    between atoms: C_4  and  C_5
REMARK    2  A    between atoms: C_5  and  C_7
REMARK                            x       y       z     vdW  Elec       q    Type
REMARK                         _______ _______ _______ _____ _____    ______ ____
ROOT
ATOM      1  O   UNL     1       3.026   6.884  -9.291  0.00  0.00    -0.241 OA
ATOM      2  C   UNL     1       3.763   6.525 -10.032  0.00  0.00    +0.384 C 
ATOM      3  C   UNL     1       3.459   5.845 -11.298  0.00  0.00    +0.308 C 
ATOM      4  O   UNL     1       2.226   5.655 -11.929  0.00  0.00    -0.276 OA
ATOM      5  C   UNL     1       4.564   5.470 -11.905  0.00  0.00    +0.261 C 
ATOM      6  O   UNL     1       4.808   4.769 -13.053  0.00  0.00    -0.284 OA
ATOM      7  C   UNL     1       5.729   5.659 -10.798  0.00  0.00    +0.266 C 
ATOM      8  O   UNL     1       5.062   6.938 -10.249  0.00  0.00    -0.436 OA
ENDROOT
BRANCH   7   9
ATOM      9  C   UNL     1       6.723   6.535 -11.930  0.00  0.00    +0.232 C 
ATOM     10  O   UNL     1       7.381   7.392 -10.860  0.00  0.00    -0.216 OA
BRANCH   9  11
ATOM     11  C   UNL     1       7.942   5.427 -11.834  0.00  0.00    +0.219 C 
ATOM     12  O   UNL     1       7.982   4.762 -13.021  0.00  0.00    -0.217 OA
ENDBRANCH   9  11
ENDBRANCH   7   9
TORSDOF 2
ENDMDL
MODEL 5
REMARK VINA RESULT:      -4.8      9.247     11.058
REMARK  Name = 
REMARK  2 active torsions:
REMARK  status: ('A' for Active; 'I' for Inactive)
REMARK    1  A    between atoms: C_4  and  C_5
REMARK    2  A    between atoms: C_5  and  C_7
REMARK                            x       y       z     vdW  Elec       q    Type
REMARK                         _______ _______ _______ _____ _____    ______ ____
ROOT
ATOM      1  O   UNL     1       3.044   6.817  -4.698  0.00  0.00    -0.241 OA
ATOM      2  C   UNL     1       2.140   6.440  -4.187  0.00  0.00    +0.384 C 
ATOM      3  C   UNL     1       2.108   5.678  -2.933  0.00  0.00    +0.308 C 
ATOM      4  O   UNL     1       3.142   5.409  -2.030  0.00  0.00    -0.276 OA
ATOM      5  C   UNL     1       0.880   5.305  -2.642  0.00  0.00    +0.261 C 
ATOM      6  O   UNL     1       0.347   4.546  -1.637  0.00  0.00    -0.284 OA
ATOM      7  C   UNL     1       0.031   5.597  -3.987  0.00  0.00    +0.266 C 
ATOM      8  O   UNL     1       0.836   6.882  -4.270  0.00  0.00    -0.436 OA
ENDROOT
BRANCH   7   9
ATOM      9  C   UNL     1      -1.198   6.437  -3.081  0.00  0.00    +0.232 C 
ATOM     10  O   UNL     1      -1.625   7.308  -4.253  0.00  0.00    -0.216 OA
BRANCH   9  11
ATOM     11  C   UNL     1      -2.350   5.316  -3.456  0.00  0.00    +0.219 C 
ATOM     12  O   UNL     1      -2.850   4.840  -2.283  0.00  0.00    -0.217 OA
ENDBRANCH   9  11
ENDBRANCH   7   9
TORSDOF 2
ENDMDL
MODEL 6
REMARK VINA RESULT:      -4.8      9.028     10.169
REMARK  Name = 
REMARK  2 active torsions:
REMARK  status: ('A' for Active; 'I' for Inactive)
REMARK    1  A    between atoms: C_4  and  C_5
REMARK    2  A    between atoms: C_5  and  C_7
REMARK                            x       y       z     vdW  Elec       q    Type
REMARK                         _______ _______ _______ _____ _____    ______ ____
ROOT
ATOM      1  O   UNL     1      -2.731   6.751  -4.823  0.00  0.00    -0.241 OA
ATOM      2  C   UNL     1      -1.793   6.384  -4.368  0.00  0.00    +0.384 C 
ATOM      3  C   UNL     1      -1.685   5.488  -3.210  0.00  0.00    +0.308 C 
ATOM      4  O   UNL     1      -2.686   4.773  -2.544  0.00  0.00    -0.276 OA
ATOM      5  C   UNL     1      -0.426   5.316  -2.866  0.00  0.00    +0.261 C 
ATOM      6  O   UNL     1       0.180   4.636  -1.846  0.00  0.00    -0.284 OA
ATOM      7  C   UNL     1       0.386   6.440  -3.698  0.00  0.00    +0.266 C 
ATOM      8  O   UNL     1      -0.535   6.264  -4.923  0.00  0.00    -0.436 OA
ENDROOT
BRANCH   7   9
ATOM      9  C   UNL     1       1.536   5.256  -4.259  0.00  0.00    +0.232 C 
ATOM     10  O   UNL     1       1.895   6.036  -5.515  0.00  0.00    -0.216 OA
BRANCH   9  11
ATOM     11  C   UNL     1       2.779   5.959  -3.432  0.00  0.00    +0.219 C 
ATOM     12  O   UNL     1       3.576   4.958  -2.968  0.00  0.00    -0.217 OA
ENDBRANCH   9  11
ENDBRANCH   7   9
TORSDOF 2
ENDMDL
MODEL 7
REMARK VINA RESULT:      -4.8      5.671      7.677
REMARK  Name = 
REMARK  2 active torsions:
REMARK  status: ('A' for Active; 'I' for Inactive)
REMARK    1  A    between atoms: C_4  and  C_5
REMARK    2  A    between atoms: C_5  and  C_7
REMARK                            x       y       z     vdW  Elec       q    Type
REMARK                         _______ _______ _______ _____ _____    ______ ____
ROOT
ATOM      1  O   UNL     1       5.076   7.455  -4.300  0.00  0.00    -0.241 OA
ATOM      2  C   UNL     1       4.352   6.985  -4.991  0.00  0.00    +0.384 C 
ATOM      3  C   UNL     1       3.676   5.697  -4.792  0.00  0.00    +0.308 C 
ATOM      4  O   UNL     1       3.644   4.876  -3.660  0.00  0.00    -0.276 OA
ATOM      5  C   UNL     1       2.947   5.384  -5.842  0.00  0.00    +0.261 C 
ATOM      6  O   UNL     1       2.192   4.290  -6.162  0.00  0.00    -0.284 OA
ATOM      7  C   UNL     1       3.403   6.430  -6.988  0.00  0.00    +0.266 C 
ATOM      8  O   UNL     1       3.554   7.565  -5.955  0.00  0.00    -0.436 OA
ENDROOT
BRANCH   7   9
ATOM      9  C   UNL     1       1.744   6.830  -7.344  0.00  0.00    +0.232 C 
ATOM     10  O   UNL     1       2.061   8.257  -7.762  0.00  0.00    -0.216 OA
BRANCH   9  11
ATOM     11  C   UNL     1       1.874   6.312  -8.905  0.00  0.00    +0.219 C 
ATOM     12  O   UNL     1       1.085   7.118  -9.668  0.00  0.00    -0.217 OA
ENDBRANCH   9  11
ENDBRANCH   7   9
TORSDOF 2
ENDMDL
MODEL 8
REMARK VINA RESULT:      -4.7      8.978     10.739
REMARK  Name = 
REMARK  2 active torsions:
REMARK  status: ('A' for Active; 'I' for Inactive)
REMARK    1  A    between atoms: C_4  and  C_5
REMARK    2  A    between atoms: C_5  and  C_7
REMARK                            x       y       z     vdW  Elec       q    Type
REMARK                         _______ _______ _______ _____ _____    ______ ____
ROOT
ATOM      1  O   UNL     1       1.919   4.832  -5.333  0.00  0.00    -0.241 OA
ATOM      2  C   UNL     1       0.906   5.168  -5.044  0.00  0.00    +0.384 C 
ATOM      3  C   UNL     1      -0.196   5.485  -5.960  0.00  0.00    +0.308 C 
ATOM      4  O   UNL     1      -0.291   5.280  -7.340  0.00  0.00    -0.276 OA
ATOM      5  C   UNL     1      -1.238   5.940  -5.298  0.00  0.00    +0.261 C 
ATOM      6  O   UNL     1      -2.460   6.415  -5.690  0.00  0.00    -0.284 OA
ATOM      7  C   UNL     1      -0.685   6.234  -3.807  0.00  0.00    +0.266 C 
ATOM      8  O   UNL     1       0.230   4.993  -3.854  0.00  0.00    -0.436 OA
ENDROOT
BRANCH   7   9
ATOM      9  C   UNL     1      -2.014   5.359  -3.095  0.00  0.00    +0.232 C 
ATOM     10  O   UNL     1      -1.255   5.021  -1.821  0.00  0.00    -0.216 OA
BRANCH   9  11
ATOM     11  C   UNL     1      -2.636   6.720  -2.398  0.00  0.00    +0.219 C 
ATOM     12  O   UNL     1      -3.992   6.629  -2.468  0.00  0.00    -0.217 OA
ENDBRANCH   9  11
ENDBRANCH   7   9
TORSDOF 2
ENDMDL
MODEL 9
REMARK VINA RESULT:      -4.7      9.856     11.062
REMARK  Name = 
REMARK  2 active torsions:
REMARK  status: ('A' for Active; 'I' for Inactive)
REMARK    1  A    between atoms: C_4  and  C_5
REMARK    2  A    between atoms: C_5  and  C_7
REMARK                            x       y       z     vdW  Elec       q    Type
REMARK                         _______ _______ _______ _____ _____    ______ ____
ROOT
ATOM      1  O   UNL     1      -2.816   4.901  -2.314  0.00  0.00    -0.241 OA
ATOM      2  C   UNL     1      -1.776   5.222  -2.508  0.00  0.00    +0.384 C 
ATOM      3  C   UNL     1      -1.337   6.148  -3.559  0.00  0.00    +0.308 C 
ATOM      4  O   UNL     1      -2.103   6.949  -4.413  0.00  0.00    -0.276 OA
ATOM      5  C   UNL     1      -0.026   6.249  -3.577  0.00  0.00    +0.261 C 
ATOM      6  O   UNL     1       0.849   6.922  -4.384  0.00  0.00    -0.284 OA
ATOM      7  C   UNL     1       0.494   5.046  -2.629  0.00  0.00    +0.266 C 
ATOM      8  O   UNL     1      -0.689   5.240  -1.658  0.00  0.00    -0.436 OA
ENDROOT
BRANCH   7   9
ATOM      9  C   UNL     1       1.534   6.132  -1.747  0.00  0.00    +0.232 C 
ATOM     10  O   UNL     1       1.537   5.284  -0.485  0.00  0.00    -0.216 OA
BRANCH   9  11
ATOM     11  C   UNL     1       2.902   5.385  -2.288  0.00  0.00    +0.219 C 
ATOM     12  O   UNL     1       3.811   6.357  -2.573  0.00  0.00    -0.217 OA
ENDBRANCH   9  11
ENDBRANCH   7   9
TORSDOF 2
ENDMDL
