MODEL 1
REMARK VINA RESULT:      -8.5      0.000      0.000
REMARK  Name = 
REMARK  7 active torsions:
REMARK  status: ('A' for Active; 'I' for Inactive)
REMARK    1  A    between atoms: C_2  and  N_4
REMARK    2  A    between atoms: N_4  and  C_6
REMARK    3  A    between atoms: N_4  and  C_25
REMARK    4  A    between atoms: C_6  and  C_7
REMARK    5  A    between atoms: C_7  and  O_8
REMARK    6  A    between atoms: O_8  and  C_9
REMARK    7  A    between atoms: C_9  and  C_11
REMARK                            x       y       z     vdW  Elec       q    Type
REMARK                         _______ _______ _______ _____ _____    ______ ____
ROOT
ATOM      1  C   UNL     1       2.368   6.005  -8.338  0.00  0.00    +0.149 C 
ATOM      2  C   UNL     1       1.508   5.941  -9.546  0.00  0.00    +0.027 A 
ATOM      3  C   UNL     1       1.987   6.316 -10.795  0.00  0.00    +0.142 A 
ATOM      4  C   UNL     1       1.229   6.002 -11.915  0.00  0.00    +0.037 A 
ATOM      5  C   UNL     1       0.297   4.974 -11.901  0.00  0.00    +0.003 A 
ATOM      6  C   UNL     1      -0.032   4.447 -10.658  0.00  0.00    -0.000 A 
ATOM      7  O   UNL     1       3.279   6.831 -10.886  0.00  0.00    -0.454 OA
ATOM      8  C   UNL     1       4.250   6.581  -9.911  0.00  0.00    +0.142 A 
ATOM      9  C   UNL     1       5.598   6.483 -10.235  0.00  0.00    +0.037 A 
ATOM     10  C   UNL     1       6.489   5.736  -9.492  0.00  0.00    +0.003 A 
ATOM     11  C   UNL     1       5.945   4.996  -8.451  0.00  0.00    -0.000 A 
ATOM     12  C   UNL     1       4.726   5.398  -7.921  0.00  0.00    -0.000 A 
ATOM     13  C   UNL     1       0.424   5.073  -9.514  0.00  0.00    -0.000 A 
ATOM     14  C   UNL     1       3.814   6.098  -8.689  0.00  0.00    +0.027 A 
ENDROOT
BRANCH   1  15
ATOM     15  C   UNL     1       1.993   7.140  -7.442  0.00  0.00    +0.325 C 
ATOM     16  O   UNL     1       2.213   8.296  -7.915  0.00  0.00    -0.249 OA
BRANCH  15  17
ATOM     17  O   UNL     1       1.025   7.051  -6.465  0.00  0.00    -0.442 OA
BRANCH  17  18
ATOM     18  C   UNL     1       1.311   6.949  -5.072  0.00  0.00    +0.269 C 
BRANCH  18  19
ATOM     19  C   UNL     1       2.546   6.136  -4.796  0.00  0.00    +0.156 C 
BRANCH  19  20
ATOM     20  N   UNL     1       3.171   6.450  -3.540  0.00  0.00    +0.296 N 
ATOM     21  C   UNL     1       2.151   6.364  -2.506  0.00  0.00    +0.170 C 
BRANCH  20  23
ATOM     22  C   UNL     1       5.150   7.773  -4.177  0.00  0.00    +0.061 C 
ATOM     23  C   UNL     1       3.806   7.742  -3.510  0.00  0.00    +0.059 C 
ATOM     24  C   UNL     1       3.806   8.373  -2.148  0.00  0.00    +0.061 C 
ENDBRANCH  20  23
BRANCH  20  25
ATOM     25  C   UNL     1       4.229   5.464  -3.330  0.00  0.00    +0.059 C 
ATOM     26  C   UNL     1       4.241   4.415  -4.421  0.00  0.00    +0.061 C 
ATOM     27  C   UNL     1       4.005   4.830  -1.968  0.00  0.00    +0.061 C 
ENDBRANCH  20  25
ENDBRANCH  19  20
ENDBRANCH  18  19
ENDBRANCH  17  18
ENDBRANCH  15  17
ENDBRANCH   1  15
TORSDOF 7
ENDMDL
MODEL 2
REMARK VINA RESULT:      -8.4      2.362      7.453
REMARK  Name = 
REMARK  7 active torsions:
REMARK  status: ('A' for Active; 'I' for Inactive)
REMARK    1  A    between atoms: C_2  and  N_4
REMARK    2  A    between atoms: N_4  and  C_6
REMARK    3  A    between atoms: N_4  and  C_25
REMARK    4  A    between atoms: C_6  and  C_7
REMARK    5  A    between atoms: C_7  and  O_8
REMARK    6  A    between atoms: O_8  and  C_9
REMARK    7  A    between atoms: C_9  and  C_11
REMARK                            x       y       z     vdW  Elec       q    Type
REMARK                         _______ _______ _______ _____ _____    ______ ____
ROOT
ATOM      1  C   UNL     1       2.109   6.171  -7.157  0.00  0.00    +0.149 C 
ATOM      2  C   UNL     1       2.997   6.261  -5.972  0.00  0.00    +0.027 A 
ATOM      3  C   UNL     1       2.534   6.752  -4.756  0.00  0.00    +0.142 A 
ATOM      4  C   UNL     1       3.326   6.580  -3.629  0.00  0.00    +0.037 A 
ATOM      5  C   UNL     1       4.290   5.584  -3.559  0.00  0.00    +0.003 A 
ATOM      6  C   UNL     1       4.609   4.938  -4.748  0.00  0.00    -0.000 A 
ATOM      7  O   UNL     1       1.229   7.235  -4.688  0.00  0.00    -0.454 OA
ATOM      8  C   UNL     1       0.245   6.855  -5.606  0.00  0.00    +0.142 A 
ATOM      9  C   UNL     1      -1.091   6.752  -5.240  0.00  0.00    +0.037 A 
ATOM     10  C   UNL     1      -1.975   5.906  -5.877  0.00  0.00    +0.003 A 
ATOM     11  C   UNL     1      -1.431   5.076  -6.848  0.00  0.00    -0.000 A 
ATOM     12  C   UNL     1      -0.238   5.455  -7.448  0.00  0.00    -0.000 A 
ATOM     13  C   UNL     1       4.107   5.426  -5.939  0.00  0.00    -0.000 A 
ATOM     14  C   UNL     1       0.669   6.258  -6.781  0.00  0.00    +0.027 A 
ENDROOT
BRANCH   1  15
ATOM     15  C   UNL     1       2.428   7.216  -8.177  0.00  0.00    +0.325 C 
ATOM     16  O   UNL     1       2.158   8.406  -7.832  0.00  0.00    -0.249 OA
BRANCH  15  17
ATOM     17  O   UNL     1       3.394   7.062  -9.147  0.00  0.00    -0.442 OA
BRANCH  17  18
ATOM     18  C   UNL     1       3.176   6.386 -10.383  0.00  0.00    +0.269 C 
BRANCH  18  19
ATOM     19  C   UNL     1       1.733   6.022 -10.593  0.00  0.00    +0.156 C 
BRANCH  19  20
ATOM     20  N   UNL     1       1.302   6.145 -11.960  0.00  0.00    +0.296 N 
ATOM     21  C   UNL     1       2.470   5.962 -12.808  0.00  0.00    +0.170 C 
BRANCH  20  23
ATOM     22  C   UNL     1      -0.673   7.571 -11.586  0.00  0.00    +0.061 C 
ATOM     23  C   UNL     1       0.658   7.398 -12.258  0.00  0.00    +0.059 C 
ATOM     24  C   UNL     1       0.627   7.716 -13.725  0.00  0.00    +0.061 C 
ENDBRANCH  20  23
BRANCH  20  25
ATOM     25  C   UNL     1       0.305   5.102 -12.191  0.00  0.00    +0.059 C 
ATOM     26  C   UNL     1       0.141   4.207 -10.981  0.00  0.00    +0.061 C 
ATOM     27  C   UNL     1       0.747   4.301 -13.403  0.00  0.00    +0.061 C 
ENDBRANCH  20  25
ENDBRANCH  19  20
ENDBRANCH  18  19
ENDBRANCH  17  18
ENDBRANCH  15  17
ENDBRANCH   1  15
TORSDOF 7
ENDMDL
MODEL 3
REMARK VINA RESULT:      -8.4      2.424      7.071
REMARK  Name = 
REMARK  7 active torsions:
REMARK  status: ('A' for Active; 'I' for Inactive)
REMARK    1  A    between atoms: C_2  and  N_4
REMARK    2  A    between atoms: N_4  and  C_6
REMARK    3  A    between atoms: N_4  and  C_25
REMARK    4  A    between atoms: C_6  and  C_7
REMARK    5  A    between atoms: C_7  and  O_8
REMARK    6  A    between atoms: O_8  and  C_9
REMARK    7  A    between atoms: C_9  and  C_11
REMARK                            x       y       z     vdW  Elec       q    Type
REMARK                         _______ _______ _______ _____ _____    ______ ____
ROOT
ATOM      1  C   UNL     1       2.180   6.184  -7.144  0.00  0.00    +0.149 C 
ATOM      2  C   UNL     1       3.046   6.251  -5.941  0.00  0.00    +0.027 A 
ATOM      3  C   UNL     1       2.560   6.719  -4.726  0.00  0.00    +0.142 A 
ATOM      4  C   UNL     1       3.331   6.526  -3.588  0.00  0.00    +0.037 A 
ATOM      5  C   UNL     1       4.294   5.529  -3.518  0.00  0.00    +0.003 A 
ATOM      6  C   UNL     1       4.635   4.906  -4.713  0.00  0.00    -0.000 A 
ATOM      7  O   UNL     1       1.254   7.201  -4.672  0.00  0.00    -0.454 OA
ATOM      8  C   UNL     1       0.287   6.839  -5.616  0.00  0.00    +0.142 A 
ATOM      9  C   UNL     1      -1.056   6.729  -5.276  0.00  0.00    +0.037 A 
ATOM     10  C   UNL     1      -1.927   5.894  -5.946  0.00  0.00    +0.003 A 
ATOM     11  C   UNL     1      -1.364   5.083  -6.922  0.00  0.00    -0.000 A 
ATOM     12  C   UNL     1      -0.160   5.473  -7.492  0.00  0.00    -0.000 A 
ATOM     13  C   UNL     1       4.155   5.416  -5.904  0.00  0.00    -0.000 A 
ATOM     14  C   UNL     1       0.733   6.264  -6.794  0.00  0.00    +0.027 A 
ENDROOT
BRANCH   1  15
ATOM     15  C   UNL     1       2.517   7.247  -8.138  0.00  0.00    +0.325 C 
ATOM     16  O   UNL     1       2.100   8.409  -7.848  0.00  0.00    -0.249 OA
BRANCH  15  17
ATOM     17  O   UNL     1       3.601   7.179  -8.988  0.00  0.00    -0.442 OA
BRANCH  17  18
ATOM     18  C   UNL     1       3.610   6.433 -10.202  0.00  0.00    +0.269 C 
BRANCH  18  19
ATOM     19  C   UNL     1       4.793   5.510 -10.301  0.00  0.00    +0.156 C 
BRANCH  19  20
ATOM     20  N   UNL     1       5.840   6.008 -11.152  0.00  0.00    +0.296 N 
ATOM     21  C   UNL     1       5.485   7.364 -11.542  0.00  0.00    +0.170 C 
BRANCH  20  23
ATOM     22  C   UNL     1       7.465   5.340 -12.880  0.00  0.00    +0.061 C 
ATOM     23  C   UNL     1       6.080   5.199 -12.319  0.00  0.00    +0.059 C 
ATOM     24  C   UNL     1       5.004   5.321 -13.358  0.00  0.00    +0.061 C 
ENDBRANCH  20  23
BRANCH  20  25
ATOM     25  C   UNL     1       7.075   5.983 -10.370  0.00  0.00    +0.059 C 
ATOM     26  C   UNL     1       6.851   5.402  -8.990  0.00  0.00    +0.061 C 
ATOM     27  C   UNL     1       7.594   7.407 -10.282  0.00  0.00    +0.061 C 
ENDBRANCH  20  25
ENDBRANCH  19  20
ENDBRANCH  18  19
ENDBRANCH  17  18
ENDBRANCH  15  17
ENDBRANCH   1  15
TORSDOF 7
ENDMDL
MODEL 4
REMARK VINA RESULT:      -8.3      0.557      1.804
REMARK  Name = 
REMARK  7 active torsions:
REMARK  status: ('A' for Active; 'I' for Inactive)
REMARK    1  A    between atoms: C_2  and  N_4
REMARK    2  A    between atoms: N_4  and  C_6
REMARK    3  A    between atoms: N_4  and  C_25
REMARK    4  A    between atoms: C_6  and  C_7
REMARK    5  A    between atoms: C_7  and  O_8
REMARK    6  A    between atoms: O_8  and  C_9
REMARK    7  A    between atoms: C_9  and  C_11
REMARK                            x       y       z     vdW  Elec       q    Type
REMARK                         _______ _______ _______ _____ _____    ______ ____
ROOT
ATOM      1  C   UNL     1       2.487   6.055  -8.324  0.00  0.00    +0.149 C 
ATOM      2  C   UNL     1       1.616   5.994  -9.523  0.00  0.00    +0.027 A 
ATOM      3  C   UNL     1       2.093   6.338 -10.783  0.00  0.00    +0.142 A 
ATOM      4  C   UNL     1       1.318   6.025 -11.891  0.00  0.00    +0.037 A 
ATOM      5  C   UNL     1       0.362   5.021 -11.854  0.00  0.00    +0.003 A 
ATOM      6  C   UNL     1       0.030   4.521 -10.600  0.00  0.00    -0.000 A 
ATOM      7  O   UNL     1       3.397   6.819 -10.892  0.00  0.00    -0.454 OA
ATOM      8  C   UNL     1       4.369   6.561  -9.921  0.00  0.00    +0.142 A 
ATOM      9  C   UNL     1       5.711   6.424 -10.254  0.00  0.00    +0.037 A 
ATOM     10  C   UNL     1       6.591   5.667  -9.506  0.00  0.00    +0.003 A 
ATOM     11  C   UNL     1       6.037   4.957  -8.450  0.00  0.00    -0.000 A 
ATOM     12  C   UNL     1       4.833   5.397  -7.917  0.00  0.00    -0.000 A 
ATOM     13  C   UNL     1       0.511   5.153  -9.470  0.00  0.00    -0.000 A 
ATOM     14  C   UNL     1       3.932   6.107  -8.688  0.00  0.00    +0.027 A 
ENDROOT
BRANCH   1  15
ATOM     15  C   UNL     1       2.148   7.212  -7.442  0.00  0.00    +0.325 C 
ATOM     16  O   UNL     1       2.099   8.338  -8.025  0.00  0.00    -0.249 OA
BRANCH  15  17
ATOM     17  O   UNL     1       1.424   7.094  -6.275  0.00  0.00    -0.442 OA
BRANCH  17  18
ATOM     18  C   UNL     1       1.737   6.167  -5.239  0.00  0.00    +0.269 C 
BRANCH  18  19
ATOM     19  C   UNL     1       2.200   6.846  -3.980  0.00  0.00    +0.156 C 
BRANCH  19  20
ATOM     20  N   UNL     1       3.252   6.140  -3.300  0.00  0.00    +0.296 N 
ATOM     21  C   UNL     1       3.657   5.028  -4.147  0.00  0.00    +0.170 C 
BRANCH  20  23
ATOM     22  C   UNL     1       3.803   4.604  -1.453  0.00  0.00    +0.061 C 
ATOM     23  C   UNL     1       2.886   5.664  -1.991  0.00  0.00    +0.059 C 
ATOM     24  C   UNL     1       1.434   5.305  -1.874  0.00  0.00    +0.061 C 
ENDBRANCH  20  23
BRANCH  20  25
ATOM     25  C   UNL     1       4.347   7.088  -3.104  0.00  0.00    +0.059 C 
ATOM     26  C   UNL     1       3.906   8.293  -2.301  0.00  0.00    +0.061 C 
ATOM     27  C   UNL     1       4.849   7.504  -4.475  0.00  0.00    +0.061 C 
ENDBRANCH  20  25
ENDBRANCH  19  20
ENDBRANCH  18  19
ENDBRANCH  17  18
ENDBRANCH  15  17
ENDBRANCH   1  15
TORSDOF 7
ENDMDL
MODEL 5
REMARK VINA RESULT:      -8.0      2.267      3.374
REMARK  Name = 
REMARK  7 active torsions:
REMARK  status: ('A' for Active; 'I' for Inactive)
REMARK    1  A    between atoms: C_2  and  N_4
REMARK    2  A    between atoms: N_4  and  C_6
REMARK    3  A    between atoms: N_4  and  C_25
REMARK    4  A    between atoms: C_6  and  C_7
REMARK    5  A    between atoms: C_7  and  O_8
REMARK    6  A    between atoms: O_8  and  C_9
REMARK    7  A    between atoms: C_9  and  C_11
REMARK                            x       y       z     vdW  Elec       q    Type
REMARK                         _______ _______ _______ _____ _____    ______ ____
ROOT
ATOM      1  C   UNL     1       2.937   6.021  -8.528  0.00  0.00    +0.149 C 
ATOM      2  C   UNL     1       1.963   5.954  -9.645  0.00  0.00    +0.027 A 
ATOM      3  C   UNL     1       2.302   6.373 -10.926  0.00  0.00    +0.142 A 
ATOM      4  C   UNL     1       1.446   6.058 -11.973  0.00  0.00    +0.037 A 
ATOM      5  C   UNL     1       0.554   4.998 -11.892  0.00  0.00    +0.003 A 
ATOM      6  C   UNL     1       0.368   4.432 -10.637  0.00  0.00    -0.000 A 
ATOM      7  O   UNL     1       3.561   6.935 -11.131  0.00  0.00    -0.454 OA
ATOM      8  C   UNL     1       4.632   6.697 -10.265  0.00  0.00    +0.142 A 
ATOM      9  C   UNL     1       5.943   6.654 -10.723  0.00  0.00    +0.037 A 
ATOM     10  C   UNL     1       6.929   5.922 -10.092  0.00  0.00    +0.003 A 
ATOM     11  C   UNL     1       6.516   5.140  -9.022  0.00  0.00    -0.000 A 
ATOM     12  C   UNL     1       5.344   5.487  -8.363  0.00  0.00    -0.000 A 
ATOM     13  C   UNL     1       0.917   5.048  -9.528  0.00  0.00    -0.000 A 
ATOM     14  C   UNL     1       4.337   6.172  -9.018  0.00  0.00    +0.027 A 
ENDROOT
BRANCH   1  15
ATOM     15  C   UNL     1       2.618   7.121  -7.570  0.00  0.00    +0.325 C 
ATOM     16  O   UNL     1       2.146   8.175  -8.096  0.00  0.00    -0.249 OA
BRANCH  15  17
ATOM     17  O   UNL     1       2.314   6.911  -6.242  0.00  0.00    -0.442 OA
BRANCH  17  18
ATOM     18  C   UNL     1       1.046   7.206  -5.662  0.00  0.00    +0.269 C 
BRANCH  18  19
ATOM     19  C   UNL     1       0.297   5.967  -5.254  0.00  0.00    +0.156 C 
BRANCH  19  20
ATOM     20  N   UNL     1      -0.985   6.239  -4.663  0.00  0.00    +0.296 N 
ATOM     21  C   UNL     1      -1.126   7.684  -4.561  0.00  0.00    +0.170 C 
BRANCH  20  23
ATOM     22  C   UNL     1      -2.077   6.406  -2.460  0.00  0.00    +0.061 C 
ATOM     23  C   UNL     1      -1.178   5.626  -3.375  0.00  0.00    +0.059 C 
ATOM     24  C   UNL     1       0.104   5.198  -2.723  0.00  0.00    +0.061 C 
ENDBRANCH  20  23
BRANCH  20  25
ATOM     25  C   UNL     1      -1.996   5.666  -5.550  0.00  0.00    +0.059 C 
ATOM     26  C   UNL     1      -1.373   5.060  -6.790  0.00  0.00    +0.061 C 
ATOM     27  C   UNL     1      -2.970   6.772  -5.917  0.00  0.00    +0.061 C 
ENDBRANCH  20  25
ENDBRANCH  19  20
ENDBRANCH  18  19
ENDBRANCH  17  18
ENDBRANCH  15  17
ENDBRANCH   1  15
TORSDOF 7
ENDMDL
MODEL 6
REMARK VINA RESULT:      -7.9      2.318      4.657
REMARK  Name = 
REMARK  7 active torsions:
REMARK  status: ('A' for Active; 'I' for Inactive)
REMARK    1  A    between atoms: C_2  and  N_4
REMARK    2  A    between atoms: N_4  and  C_6
REMARK    3  A    between atoms: N_4  and  C_25
REMARK    4  A    between atoms: C_6  and  C_7
REMARK    5  A    between atoms: C_7  and  O_8
REMARK    6  A    between atoms: O_8  and  C_9
REMARK    7  A    between atoms: C_9  and  C_11
REMARK                            x       y       z     vdW  Elec       q    Type
REMARK                         _______ _______ _______ _____ _____    ______ ____
ROOT
ATOM      1  C   UNL     1       3.638   5.949 -10.205  0.00  0.00    +0.149 C 
ATOM      2  C   UNL     1       4.820   6.161 -11.076  0.00  0.00    +0.027 A 
ATOM      3  C   UNL     1       4.761   5.928 -12.445  0.00  0.00    +0.142 A 
ATOM      4  C   UNL     1       5.809   6.377 -13.237  0.00  0.00    +0.037 A 
ATOM      5  C   UNL     1       6.646   7.405 -12.828  0.00  0.00    +0.003 A 
ATOM      6  C   UNL     1       6.557   7.789 -11.495  0.00  0.00    -0.000 A 
ATOM      7  O   UNL     1       3.583   5.414 -12.982  0.00  0.00    -0.454 OA
ATOM      8  C   UNL     1       2.351   5.540 -12.332  0.00  0.00    +0.142 A 
ATOM      9  C   UNL     1       1.163   5.661 -13.041  0.00  0.00    +0.037 A 
ATOM     10  C   UNL     1       0.055   6.308 -12.533  0.00  0.00    +0.003 A 
ATOM     11  C   UNL     1       0.223   6.928 -11.303  0.00  0.00    -0.000 A 
ATOM     12  C   UNL     1       1.240   6.480 -10.470  0.00  0.00    -0.000 A 
ATOM     13  C   UNL     1       5.803   7.031 -10.620  0.00  0.00    -0.000 A 
ATOM     14  C   UNL     1       2.373   5.883 -10.990  0.00  0.00    +0.027 A 
ENDROOT
BRANCH   1  15
ATOM     15  C   UNL     1       3.773   4.722  -9.363  0.00  0.00    +0.325 C 
ATOM     16  O   UNL     1       4.822   4.669  -8.652  0.00  0.00    -0.249 OA
BRANCH  15  17
ATOM     17  O   UNL     1       2.700   3.975  -8.929  0.00  0.00    -0.442 OA
BRANCH  17  18
ATOM     18  C   UNL     1       2.249   3.946  -7.577  0.00  0.00    +0.269 C 
BRANCH  18  19
ATOM     19  C   UNL     1       1.512   5.198  -7.189  0.00  0.00    +0.156 C 
BRANCH  19  20
ATOM     20  N   UNL     1       1.815   5.654  -5.859  0.00  0.00    +0.296 N 
ATOM     21  C   UNL     1       2.676   4.659  -5.236  0.00  0.00    +0.170 C 
BRANCH  20  23
ATOM     22  C   UNL     1       0.747   5.298  -3.667  0.00  0.00    +0.061 C 
ATOM     23  C   UNL     1       0.653   5.891  -5.043  0.00  0.00    +0.059 C 
ATOM     24  C   UNL     1      -0.637   5.572  -5.739  0.00  0.00    +0.061 C 
ENDBRANCH  20  23
BRANCH  20  25
ATOM     25  C   UNL     1       2.496   6.940  -5.993  0.00  0.00    +0.059 C 
ATOM     26  C   UNL     1       2.194   7.597  -7.323  0.00  0.00    +0.061 C 
ATOM     27  C   UNL     1       3.987   6.692  -5.836  0.00  0.00    +0.061 C 
ENDBRANCH  20  25
ENDBRANCH  19  20
ENDBRANCH  18  19
ENDBRANCH  17  18
ENDBRANCH  15  17
ENDBRANCH   1  15
TORSDOF 7
ENDMDL
MODEL 7
REMARK VINA RESULT:      -7.8      1.836      4.184
REMARK  Name = 
REMARK  7 active torsions:
REMARK  status: ('A' for Active; 'I' for Inactive)
REMARK    1  A    between atoms: C_2  and  N_4
REMARK    2  A    between atoms: N_4  and  C_6
REMARK    3  A    between atoms: N_4  and  C_25
REMARK    4  A    between atoms: C_6  and  C_7
REMARK    5  A    between atoms: C_7  and  O_8
REMARK    6  A    between atoms: O_8  and  C_9
REMARK    7  A    between atoms: C_9  and  C_11
REMARK                            x       y       z     vdW  Elec       q    Type
REMARK                         _______ _______ _______ _____ _____    ______ ____
ROOT
ATOM      1  C   UNL     1       3.777   6.219  -9.658  0.00  0.00    +0.149 C 
ATOM      2  C   UNL     1       4.851   6.316 -10.677  0.00  0.00    +0.027 A 
ATOM      3  C   UNL     1       4.652   5.882 -11.982  0.00  0.00    +0.142 A 
ATOM      4  C   UNL     1       5.592   6.224 -12.944  0.00  0.00    +0.037 A 
ATOM      5  C   UNL     1       6.435   7.315 -12.785  0.00  0.00    +0.003 A 
ATOM      6  C   UNL     1       6.480   7.891 -11.521  0.00  0.00    -0.000 A 
ATOM      7  O   UNL     1       3.438   5.276 -12.304  0.00  0.00    -0.454 OA
ATOM      8  C   UNL     1       2.281   5.478 -11.545  0.00  0.00    +0.142 A 
ATOM      9  C   UNL     1       1.020   5.474 -12.127  0.00  0.00    +0.037 A 
ATOM     10  C   UNL     1      -0.046   6.172 -11.598  0.00  0.00    +0.003 A 
ATOM     11  C   UNL     1       0.234   6.971 -10.498  0.00  0.00    -0.000 A 
ATOM     12  C   UNL     1       1.349   6.667  -9.728  0.00  0.00    -0.000 A 
ATOM     13  C   UNL     1       5.849   7.259 -10.467  0.00  0.00    -0.000 A 
ATOM     14  C   UNL     1       2.437   6.017 -10.279  0.00  0.00    +0.027 A 
ENDROOT
BRANCH   1  15
ATOM     15  C   UNL     1       4.042   5.133  -8.667  0.00  0.00    +0.325 C 
ATOM     16  O   UNL     1       3.812   3.956  -9.081  0.00  0.00    -0.249 OA
BRANCH  15  17
ATOM     17  O   UNL     1       4.940   5.252  -7.628  0.00  0.00    -0.442 OA
BRANCH  17  18
ATOM     18  C   UNL     1       4.629   5.861  -6.377  0.00  0.00    +0.269 C 
BRANCH  18  19
ATOM     19  C   UNL     1       3.702   5.020  -5.543  0.00  0.00    +0.156 C 
BRANCH  19  20
ATOM     20  N   UNL     1       2.648   5.775  -4.920  0.00  0.00    +0.296 N 
ATOM     21  C   UNL     1       2.457   6.990  -5.696  0.00  0.00    +0.170 C 
BRANCH  20  23
ATOM     22  C   UNL     1       3.366   7.507  -3.321  0.00  0.00    +0.061 C 
ATOM     23  C   UNL     1       2.898   6.097  -3.539  0.00  0.00    +0.059 C 
ATOM     24  C   UNL     1       3.741   5.077  -2.833  0.00  0.00    +0.061 C 
ENDBRANCH  20  23
BRANCH  20  25
ATOM     25  C   UNL     1       1.452   4.935  -4.939  0.00  0.00    +0.059 C 
ATOM     26  C   UNL     1       1.335   4.156  -6.232  0.00  0.00    +0.061 C 
ATOM     27  C   UNL     1       0.249   5.841  -4.740  0.00  0.00    +0.061 C 
ENDBRANCH  20  25
ENDBRANCH  19  20
ENDBRANCH  18  19
ENDBRANCH  17  18
ENDBRANCH  15  17
ENDBRANCH   1  15
TORSDOF 7
ENDMDL
MODEL 8
REMARK VINA RESULT:      -7.7      2.477      6.726
REMARK  Name = 
REMARK  7 active torsions:
REMARK  status: ('A' for Active; 'I' for Inactive)
REMARK    1  A    between atoms: C_2  and  N_4
REMARK    2  A    between atoms: N_4  and  C_6
REMARK    3  A    between atoms: N_4  and  C_25
REMARK    4  A    between atoms: C_6  and  C_7
REMARK    5  A    between atoms: C_7  and  O_8
REMARK    6  A    between atoms: O_8  and  C_9
REMARK    7  A    between atoms: C_9  and  C_11
REMARK                            x       y       z     vdW  Elec       q    Type
REMARK                         _______ _______ _______ _____ _____    ______ ____
ROOT
ATOM      1  C   UNL     1       1.965   5.671  -5.468  0.00  0.00    +0.149 C 
ATOM      2  C   UNL     1       0.714   5.594  -4.674  0.00  0.00    +0.027 A 
ATOM      3  C   UNL     1       0.741   5.520  -3.286  0.00  0.00    +0.142 A 
ATOM      4  C   UNL     1      -0.447   5.702  -2.591  0.00  0.00    +0.037 A 
ATOM      5  C   UNL     1      -1.520   6.384  -3.146  0.00  0.00    +0.003 A 
ATOM      6  C   UNL     1      -1.455   6.650  -4.509  0.00  0.00    -0.000 A 
ATOM      7  O   UNL     1       1.978   5.441  -2.648  0.00  0.00    -0.454 OA
ATOM      8  C   UNL     1       3.159   5.873  -3.259  0.00  0.00    +0.142 A 
ATOM      9  C   UNL     1       4.203   6.416  -2.520  0.00  0.00    +0.037 A 
ATOM     10  C   UNL     1       5.102   7.318  -3.053  0.00  0.00    +0.003 A 
ATOM     11  C   UNL     1       4.845   7.739  -4.350  0.00  0.00    -0.000 A 
ATOM     12  C   UNL     1       4.070   6.927  -5.168  0.00  0.00    -0.000 A 
ATOM     13  C   UNL     1      -0.448   6.077  -5.262  0.00  0.00    -0.000 A 
ATOM     14  C   UNL     1       3.133   6.066  -4.630  0.00  0.00    +0.027 A 
ENDROOT
BRANCH   1  15
ATOM     15  C   UNL     1       2.262   4.387  -6.172  0.00  0.00    +0.325 C 
ATOM     16  O   UNL     1       1.314   3.543  -6.179  0.00  0.00    -0.249 OA
BRANCH  15  17
ATOM     17  O   UNL     1       3.194   4.270  -7.181  0.00  0.00    -0.442 OA
BRANCH  17  18
ATOM     18  C   UNL     1       2.861   3.997  -8.540  0.00  0.00    +0.269 C 
BRANCH  18  19
ATOM     19  C   UNL     1       3.006   5.206  -9.422  0.00  0.00    +0.156 C 
BRANCH  19  20
ATOM     20  N   UNL     1       1.837   5.486 -10.211  0.00  0.00    +0.296 N 
ATOM     21  C   UNL     1       1.046   4.266 -10.276  0.00  0.00    +0.170 C 
BRANCH  20  23
ATOM     22  C   UNL     1       1.206   5.423 -12.592  0.00  0.00    +0.061 C 
ATOM     23  C   UNL     1       2.127   5.964 -11.538  0.00  0.00    +0.059 C 
ATOM     24  C   UNL     1       3.578   5.853 -11.905  0.00  0.00    +0.061 C 
ENDBRANCH  20  23
BRANCH  20  25
ATOM     25  C   UNL     1       1.110   6.558  -9.535  0.00  0.00    +0.059 C 
ATOM     26  C   UNL     1       2.003   7.324  -8.581  0.00  0.00    +0.061 C 
ATOM     27  C   UNL     1      -0.059   5.930  -8.797  0.00  0.00    +0.061 C 
ENDBRANCH  20  25
ENDBRANCH  19  20
ENDBRANCH  18  19
ENDBRANCH  17  18
ENDBRANCH  15  17
ENDBRANCH   1  15
TORSDOF 7
ENDMDL
MODEL 9
REMARK VINA RESULT:      -7.7      2.433      4.679
REMARK  Name = 
REMARK  7 active torsions:
REMARK  status: ('A' for Active; 'I' for Inactive)
REMARK    1  A    between atoms: C_2  and  N_4
REMARK    2  A    between atoms: N_4  and  C_6
REMARK    3  A    between atoms: N_4  and  C_25
REMARK    4  A    between atoms: C_6  and  C_7
REMARK    5  A    between atoms: C_7  and  O_8
REMARK    6  A    between atoms: O_8  and  C_9
REMARK    7  A    between atoms: C_9  and  C_11
REMARK                            x       y       z     vdW  Elec       q    Type
REMARK                         _______ _______ _______ _____ _____    ______ ____
ROOT
ATOM      1  C   UNL     1       1.248   6.513  -6.644  0.00  0.00    +0.149 C 
ATOM      2  C   UNL     1       1.085   6.066  -8.050  0.00  0.00    +0.027 A 
ATOM      3  C   UNL     1      -0.041   5.361  -8.458  0.00  0.00    +0.142 A 
ATOM      4  C   UNL     1      -0.256   5.191  -9.819  0.00  0.00    +0.037 A 
ATOM      5  C   UNL     1       0.307   6.042 -10.760  0.00  0.00    +0.003 A 
ATOM      6  C   UNL     1       1.296   6.907 -10.307  0.00  0.00    -0.000 A 
ATOM      7  O   UNL     1      -0.990   5.009  -7.500  0.00  0.00    -0.454 OA
ATOM      8  C   UNL     1      -1.103   5.685  -6.282  0.00  0.00    +0.142 A 
ATOM      9  C   UNL     1      -2.329   5.836  -5.645  0.00  0.00    +0.037 A 
ATOM     10  C   UNL     1      -2.603   6.890  -4.798  0.00  0.00    +0.003 A 
ATOM     11  C   UNL     1      -1.616   7.860  -4.693  0.00  0.00    -0.000 A 
ATOM     12  C   UNL     1      -0.310   7.509  -5.006  0.00  0.00    -0.000 A 
ATOM     13  C   UNL     1       1.793   6.756  -9.026  0.00  0.00    -0.000 A 
ATOM     14  C   UNL     1      -0.042   6.488  -5.898  0.00  0.00    +0.027 A 
ENDROOT
BRANCH   1  15
ATOM     15  C   UNL     1       2.268   5.702  -5.913  0.00  0.00    +0.325 C 
ATOM     16  O   UNL     1       2.172   4.447  -6.068  0.00  0.00    -0.249 OA
BRANCH  15  17
ATOM     17  O   UNL     1       3.510   6.182  -5.557  0.00  0.00    -0.442 OA
BRANCH  17  18
ATOM     18  C   UNL     1       4.069   6.046  -4.253  0.00  0.00    +0.269 C 
BRANCH  18  19
ATOM     19  C   UNL     1       3.084   5.493  -3.260  0.00  0.00    +0.156 C 
BRANCH  19  20
ATOM     20  N   UNL     1       2.911   6.324  -2.099  0.00  0.00    +0.296 N 
ATOM     21  C   UNL     1       3.486   7.626  -2.399  0.00  0.00    +0.170 C 
BRANCH  20  23
ATOM     22  C   UNL     1       4.542   6.665  -0.285  0.00  0.00    +0.061 C 
ATOM     23  C   UNL     1       3.496   5.783  -0.900  0.00  0.00    +0.059 C 
ATOM     24  C   UNL     1       3.935   4.355  -1.045  0.00  0.00    +0.061 C 
ENDBRANCH  20  23
BRANCH  20  25
ATOM     25  C   UNL     1       1.473   6.419  -1.852  0.00  0.00    +0.059 C 
ATOM     26  C   UNL     1       1.166   6.512  -0.372  0.00  0.00    +0.061 C 
ATOM     27  C   UNL     1       0.817   5.195  -2.466  0.00  0.00    +0.061 C 
ENDBRANCH  20  25
ENDBRANCH  19  20
ENDBRANCH  18  19
ENDBRANCH  17  18
ENDBRANCH  15  17
ENDBRANCH   1  15
TORSDOF 7
ENDMDL
