MODEL 1
REMARK VINA RESULT:      -6.0      0.000      0.000
REMARK  Name = 
REMARK  10 active torsions:
REMARK  status: ('A' for Active; 'I' for Inactive)
REMARK    1  A    between atoms: N_2  and  C_3
REMARK    2  A    between atoms: C_3  and  N_8
REMARK    3  A    between atoms: C_4  and  N_5
REMARK    4  A    between atoms: N_8  and  C_9
REMARK    5  A    between atoms: C_9  and  C_10
REMARK    6  A    between atoms: C_10  and  S_11
REMARK    7  A    between atoms: S_11  and  C_12
REMARK    8  A    between atoms: C_12  and  C_13
REMARK    9  A    between atoms: C_16  and  C_17
REMARK   10  A    between atoms: C_17  and  N_18
REMARK                            x       y       z     vdW  Elec       q    Type
REMARK                         _______ _______ _______ _____ _____    ______ ____
ROOT
ATOM      1  S   UNL     1       2.061   4.608  -7.677  0.00  0.00    -0.128 S 
ENDROOT
BRANCH   1   2
ATOM      2  C   UNL     1       0.521   5.568  -7.854  0.00  0.00    +0.122 C 
BRANCH   2   3
ATOM      3  C   UNL     1      -0.285   5.383  -6.608  0.00  0.00    +0.133 A 
ATOM      4  O   UNL     1       0.061   5.826  -5.435  0.00  0.00    -0.460 OA
ATOM      5  C   UNL     1      -0.944   5.770  -4.583  0.00  0.00    +0.139 A 
ATOM      6  C   UNL     1      -2.087   5.836  -5.370  0.00  0.00    +0.037 A 
ATOM      7  C   UNL     1      -1.673   5.435  -6.634  0.00  0.00    +0.037 A 
BRANCH   5   8
ATOM      8  C   UNL     1      -0.819   6.352  -3.210  0.00  0.00    +0.138 C 
BRANCH   8   9
ATOM      9  N   UNL     1      -0.949   5.318  -2.207  0.00  0.00    -0.264 NA
ATOM     10  C   UNL     1       0.332   5.108  -1.536  0.00  0.00    +0.090 C 
ATOM     11  C   UNL     1      -1.907   5.642  -1.180  0.00  0.00    +0.090 C 
ENDBRANCH   8   9
ENDBRANCH   5   8
ENDBRANCH   2   3
ENDBRANCH   1   2
BRANCH   1  12
ATOM     12  C   UNL     1       2.893   4.576  -9.293  0.00  0.00    +0.113 C 
BRANCH  12  13
ATOM     13  C   UNL     1       4.373   4.724  -9.029  0.00  0.00    +0.263 C 
BRANCH  13  14
ATOM     14  N   UNL     1       4.759   6.030  -9.507  0.00  0.00    -0.027 NA
BRANCH  14  15
ATOM     15  C   UNL     1       5.649   6.262 -10.578  0.00  0.00    +0.424 C 
ATOM     16  C   UNL     1       6.405   5.346 -11.143  0.00  0.00    +0.447 C 
BRANCH  16  17
ATOM     17  N   UNL     1       6.525   5.196 -12.563  0.00  0.00    +0.096 N 
ATOM     18  O   UNL     1       5.382   4.753 -13.205  0.00  0.00    -0.576 OA
ATOM     19  O   UNL     1       7.621   4.889 -13.066  0.00  0.00    +0.042 OA
ENDBRANCH  16  17
BRANCH  15  21
ATOM     20  C   UNL     1       6.595   8.393 -11.327  0.00  0.00    +0.306 C 
ATOM     21  N   UNL     1       5.470   7.477 -11.315  0.00  0.00    -0.023 NA
ENDBRANCH  15  21
ENDBRANCH  14  15
ENDBRANCH  13  14
ENDBRANCH  12  13
ENDBRANCH   1  12
TORSDOF 10
ENDMDL
MODEL 2
REMARK VINA RESULT:      -5.8      5.148      6.551
REMARK  Name = 
REMARK  10 active torsions:
REMARK  status: ('A' for Active; 'I' for Inactive)
REMARK    1  A    between atoms: N_2  and  C_3
REMARK    2  A    between atoms: C_3  and  N_8
REMARK    3  A    between atoms: C_4  and  N_5
REMARK    4  A    between atoms: N_8  and  C_9
REMARK    5  A    between atoms: C_9  and  C_10
REMARK    6  A    between atoms: C_10  and  S_11
REMARK    7  A    between atoms: S_11  and  C_12
REMARK    8  A    between atoms: C_12  and  C_13
REMARK    9  A    between atoms: C_16  and  C_17
REMARK   10  A    between atoms: C_17  and  N_18
REMARK                            x       y       z     vdW  Elec       q    Type
REMARK                         _______ _______ _______ _____ _____    ______ ____
ROOT
ATOM      1  S   UNL     1       2.033   6.460  -6.940  0.00  0.00    -0.128 S 
ENDROOT
BRANCH   1   2
ATOM      2  C   UNL     1       0.636   5.380  -7.397  0.00  0.00    +0.122 C 
BRANCH   2   3
ATOM      3  C   UNL     1      -0.456   5.589  -6.398  0.00  0.00    +0.133 A 
ATOM      4  O   UNL     1      -0.476   6.547  -5.519  0.00  0.00    -0.460 OA
ATOM      5  C   UNL     1      -1.664   6.663  -4.960  0.00  0.00    +0.139 A 
ATOM      6  C   UNL     1      -2.556   6.162  -5.901  0.00  0.00    +0.037 A 
ATOM      7  C   UNL     1      -1.785   5.351  -6.724  0.00  0.00    +0.037 A 
BRANCH   5   8
ATOM      8  C   UNL     1      -1.963   7.786  -4.017  0.00  0.00    +0.138 C 
BRANCH   8   9
ATOM      9  N   UNL     1      -2.003   7.306  -2.652  0.00  0.00    -0.264 NA
ATOM     10  C   UNL     1      -3.227   6.540  -2.427  0.00  0.00    +0.090 C 
ATOM     11  C   UNL     1      -0.902   6.435  -2.325  0.00  0.00    +0.090 C 
ENDBRANCH   8   9
ENDBRANCH   5   8
ENDBRANCH   2   3
ENDBRANCH   1   2
BRANCH   1  12
ATOM     12  C   UNL     1       3.265   5.447  -6.068  0.00  0.00    +0.113 C 
BRANCH  12  13
ATOM     13  C   UNL     1       2.754   5.250  -4.660  0.00  0.00    +0.263 C 
BRANCH  13  14
ATOM     14  N   UNL     1       2.690   6.556  -4.047  0.00  0.00    -0.027 NA
BRANCH  14  15
ATOM     15  C   UNL     1       3.223   6.874  -2.779  0.00  0.00    +0.424 C 
ATOM     16  C   UNL     1       2.939   6.244  -1.661  0.00  0.00    +0.447 C 
BRANCH  16  17
ATOM     17  N   UNL     1       3.937   5.829  -0.720  0.00  0.00    +0.096 N 
ATOM     18  O   UNL     1       4.322   4.502  -0.819  0.00  0.00    -0.576 OA
ATOM     19  O   UNL     1       3.991   6.358   0.405  0.00  0.00    +0.042 OA
ENDBRANCH  16  17
BRANCH  15  21
ATOM     20  C   UNL     1       5.044   7.921  -4.038  0.00  0.00    +0.306 C 
ATOM     21  N   UNL     1       4.394   7.700  -2.760  0.00  0.00    -0.023 NA
ENDBRANCH  15  21
ENDBRANCH  14  15
ENDBRANCH  13  14
ENDBRANCH  12  13
ENDBRANCH   1  12
TORSDOF 10
ENDMDL
MODEL 3
REMARK VINA RESULT:      -5.8      2.463      9.890
REMARK  Name = 
REMARK  10 active torsions:
REMARK  status: ('A' for Active; 'I' for Inactive)
REMARK    1  A    between atoms: N_2  and  C_3
REMARK    2  A    between atoms: C_3  and  N_8
REMARK    3  A    between atoms: C_4  and  N_5
REMARK    4  A    between atoms: N_8  and  C_9
REMARK    5  A    between atoms: C_9  and  C_10
REMARK    6  A    between atoms: C_10  and  S_11
REMARK    7  A    between atoms: S_11  and  C_12
REMARK    8  A    between atoms: C_12  and  C_13
REMARK    9  A    between atoms: C_16  and  C_17
REMARK   10  A    between atoms: C_17  and  N_18
REMARK                            x       y       z     vdW  Elec       q    Type
REMARK                         _______ _______ _______ _____ _____    ______ ____
ROOT
ATOM      1  S   UNL     1       3.431   6.525  -6.510  0.00  0.00    -0.128 S 
ENDROOT
BRANCH   1   2
ATOM      2  C   UNL     1       3.006   6.371  -8.277  0.00  0.00    +0.122 C 
BRANCH   2   3
ATOM      3  C   UNL     1       4.216   5.874  -9.002  0.00  0.00    +0.133 A 
ATOM      4  O   UNL     1       4.745   6.458 -10.037  0.00  0.00    -0.460 OA
ATOM      5  C   UNL     1       5.943   5.975 -10.303  0.00  0.00    +0.139 A 
ATOM      6  C   UNL     1       6.414   5.492  -9.088  0.00  0.00    +0.037 A 
ATOM      7  C   UNL     1       5.275   5.289  -8.320  0.00  0.00    +0.037 A 
BRANCH   5   8
ATOM      8  C   UNL     1       6.799   6.588 -11.366  0.00  0.00    +0.138 C 
BRANCH   8   9
ATOM      9  N   UNL     1       7.511   5.563 -12.098  0.00  0.00    -0.264 NA
ATOM     10  C   UNL     1       7.043   5.520 -13.481  0.00  0.00    +0.090 C 
ATOM     11  C   UNL     1       8.934   5.788 -12.148  0.00  0.00    +0.090 C 
ENDBRANCH   8   9
ENDBRANCH   5   8
ENDBRANCH   2   3
ENDBRANCH   1   2
BRANCH   1  12
ATOM     12  C   UNL     1       2.457   5.298  -5.589  0.00  0.00    +0.113 C 
BRANCH  12  13
ATOM     13  C   UNL     1       2.360   5.793  -4.165  0.00  0.00    +0.263 C 
BRANCH  13  14
ATOM     14  N   UNL     1       1.136   6.551  -4.063  0.00  0.00    -0.027 NA
BRANCH  14  15
ATOM     15  C   UNL     1      -0.160   5.995  -4.136  0.00  0.00    +0.424 C 
ATOM     16  C   UNL     1      -0.759   5.346  -3.163  0.00  0.00    +0.447 C 
BRANCH  16  17
ATOM     17  N   UNL     1      -2.115   5.593  -2.774  0.00  0.00    +0.096 N 
ATOM     18  O   UNL     1      -2.284   6.595  -1.834  0.00  0.00    -0.576 OA
ATOM     19  O   UNL     1      -2.943   4.663  -2.775  0.00  0.00    +0.042 OA
ENDBRANCH  16  17
BRANCH  15  21
ATOM     20  C   UNL     1      -1.290   5.503  -6.253  0.00  0.00    +0.306 C 
ATOM     21  N   UNL     1      -1.002   6.458  -5.199  0.00  0.00    -0.023 NA
ENDBRANCH  15  21
ENDBRANCH  14  15
ENDBRANCH  13  14
ENDBRANCH  12  13
ENDBRANCH   1  12
TORSDOF 10
ENDMDL
MODEL 4
REMARK VINA RESULT:      -5.8      2.230     10.139
REMARK  Name = 
REMARK  10 active torsions:
REMARK  status: ('A' for Active; 'I' for Inactive)
REMARK    1  A    between atoms: N_2  and  C_3
REMARK    2  A    between atoms: C_3  and  N_8
REMARK    3  A    between atoms: C_4  and  N_5
REMARK    4  A    between atoms: N_8  and  C_9
REMARK    5  A    between atoms: C_9  and  C_10
REMARK    6  A    between atoms: C_10  and  S_11
REMARK    7  A    between atoms: S_11  and  C_12
REMARK    8  A    between atoms: C_12  and  C_13
REMARK    9  A    between atoms: C_16  and  C_17
REMARK   10  A    between atoms: C_17  and  N_18
REMARK                            x       y       z     vdW  Elec       q    Type
REMARK                         _______ _______ _______ _____ _____    ______ ____
ROOT
ATOM      1  S   UNL     1       2.660   5.180  -6.963  0.00  0.00    -0.128 S 
ENDROOT
BRANCH   1   2
ATOM      2  C   UNL     1       2.676   4.309  -8.565  0.00  0.00    +0.122 C 
BRANCH   2   3
ATOM      3  C   UNL     1       4.014   4.526  -9.196  0.00  0.00    +0.133 A 
ATOM      4  O   UNL     1       4.195   5.029 -10.382  0.00  0.00    -0.460 OA
ATOM      5  C   UNL     1       5.456   5.364 -10.576  0.00  0.00    +0.139 A 
ATOM      6  C   UNL     1       5.962   5.612  -9.305  0.00  0.00    +0.037 A 
ATOM      7  C   UNL     1       5.107   4.936  -8.444  0.00  0.00    +0.037 A 
BRANCH   5   8
ATOM      8  C   UNL     1       5.876   6.087 -11.816  0.00  0.00    +0.138 C 
BRANCH   8   9
ATOM      9  N   UNL     1       6.765   5.264 -12.607  0.00  0.00    -0.264 NA
ATOM     10  C   UNL     1       6.530   5.499 -14.030  0.00  0.00    +0.090 C 
ATOM     11  C   UNL     1       8.158   5.541 -12.365  0.00  0.00    +0.090 C 
ENDBRANCH   8   9
ENDBRANCH   5   8
ENDBRANCH   2   3
ENDBRANCH   1   2
BRANCH   1  12
ATOM     12  C   UNL     1       0.927   5.439  -6.481  0.00  0.00    +0.113 C 
BRANCH  12  13
ATOM     13  C   UNL     1       0.739   4.772  -5.138  0.00  0.00    +0.263 C 
BRANCH  13  14
ATOM     14  N   UNL     1       0.740   5.818  -4.143  0.00  0.00    -0.027 NA
BRANCH  14  15
ATOM     15  C   UNL     1      -0.103   5.848  -3.010  0.00  0.00    +0.424 C 
ATOM     16  C   UNL     1      -1.243   6.498  -2.935  0.00  0.00    +0.447 C 
BRANCH  16  17
ATOM     17  N   UNL     1      -2.442   5.918  -2.405  0.00  0.00    +0.096 N 
ATOM     18  O   UNL     1      -2.806   4.706  -2.966  0.00  0.00    -0.576 OA
ATOM     19  O   UNL     1      -3.354   6.652  -1.983  0.00  0.00    +0.042 OA
ENDBRANCH  16  17
BRANCH  15  21
ATOM     20  C   UNL     1       1.376   4.925  -1.290  0.00  0.00    +0.306 C 
ATOM     21  N   UNL     1       0.120   4.844  -2.013  0.00  0.00    -0.023 NA
ENDBRANCH  15  21
ENDBRANCH  14  15
ENDBRANCH  13  14
ENDBRANCH  12  13
ENDBRANCH   1  12
TORSDOF 10
ENDMDL
MODEL 5
REMARK VINA RESULT:      -5.8      4.074      8.949
REMARK  Name = 
REMARK  10 active torsions:
REMARK  status: ('A' for Active; 'I' for Inactive)
REMARK    1  A    between atoms: N_2  and  C_3
REMARK    2  A    between atoms: C_3  and  N_8
REMARK    3  A    between atoms: C_4  and  N_5
REMARK    4  A    between atoms: N_8  and  C_9
REMARK    5  A    between atoms: C_9  and  C_10
REMARK    6  A    between atoms: C_10  and  S_11
REMARK    7  A    between atoms: S_11  and  C_12
REMARK    8  A    between atoms: C_12  and  C_13
REMARK    9  A    between atoms: C_16  and  C_17
REMARK   10  A    between atoms: C_17  and  N_18
REMARK                            x       y       z     vdW  Elec       q    Type
REMARK                         _______ _______ _______ _____ _____    ______ ____
ROOT
ATOM      1  S   UNL     1       3.857   7.553  -2.873  0.00  0.00    -0.128 S 
ENDROOT
BRANCH   1   2
ATOM      2  C   UNL     1       4.749   7.675  -4.458  0.00  0.00    +0.122 C 
BRANCH   2   3
ATOM      3  C   UNL     1       3.960   6.936  -5.491  0.00  0.00    +0.133 A 
ATOM      4  O   UNL     1       3.180   7.501  -6.365  0.00  0.00    -0.460 OA
ATOM      5  C   UNL     1       2.831   6.657  -7.316  0.00  0.00    +0.139 A 
ATOM      6  C   UNL     1       3.857   5.721  -7.361  0.00  0.00    +0.037 A 
ATOM      7  C   UNL     1       4.474   5.809  -6.120  0.00  0.00    +0.037 A 
BRANCH   5   8
ATOM      8  C   UNL     1       2.048   7.121  -8.504  0.00  0.00    +0.138 C 
BRANCH   8   9
ATOM      9  N   UNL     1       1.726   6.005  -9.367  0.00  0.00    -0.264 NA
ATOM     10  C   UNL     1       0.280   5.792  -9.391  0.00  0.00    +0.090 C 
ATOM     11  C   UNL     1       2.138   6.207 -10.732  0.00  0.00    +0.090 C 
ENDBRANCH   8   9
ENDBRANCH   5   8
ENDBRANCH   2   3
ENDBRANCH   1   2
BRANCH   1  12
ATOM     12  C   UNL     1       3.986   5.837  -2.286  0.00  0.00    +0.113 C 
BRANCH  12  13
ATOM     13  C   UNL     1       2.871   5.628  -1.289  0.00  0.00    +0.263 C 
BRANCH  13  14
ATOM     14  N   UNL     1       1.739   6.396  -1.753  0.00  0.00    -0.027 NA
BRANCH  14  15
ATOM     15  C   UNL     1       0.549   5.840  -2.269  0.00  0.00    +0.424 C 
ATOM     16  C   UNL     1      -0.474   5.441  -1.546  0.00  0.00    +0.447 C 
BRANCH  16  17
ATOM     17  N   UNL     1      -1.832   5.774  -1.859  0.00  0.00    +0.096 N 
ATOM     18  O   UNL     1      -2.326   6.893  -1.211  0.00  0.00    -0.576 OA
ATOM     19  O   UNL     1      -2.642   4.875  -2.150  0.00  0.00    +0.042 OA
ENDBRANCH  16  17
BRANCH  15  21
ATOM     20  C   UNL     1       0.929   5.094  -4.571  0.00  0.00    +0.306 C 
ATOM     21  N   UNL     1       0.298   6.036  -3.666  0.00  0.00    -0.023 NA
ENDBRANCH  15  21
ENDBRANCH  14  15
ENDBRANCH  13  14
ENDBRANCH  12  13
ENDBRANCH   1  12
TORSDOF 10
ENDMDL
MODEL 6
REMARK VINA RESULT:      -5.7      2.759      3.359
REMARK  Name = 
REMARK  10 active torsions:
REMARK  status: ('A' for Active; 'I' for Inactive)
REMARK    1  A    between atoms: N_2  and  C_3
REMARK    2  A    between atoms: C_3  and  N_8
REMARK    3  A    between atoms: C_4  and  N_5
REMARK    4  A    between atoms: N_8  and  C_9
REMARK    5  A    between atoms: C_9  and  C_10
REMARK    6  A    between atoms: C_10  and  S_11
REMARK    7  A    between atoms: S_11  and  C_12
REMARK    8  A    between atoms: C_12  and  C_13
REMARK    9  A    between atoms: C_16  and  C_17
REMARK   10  A    between atoms: C_17  and  N_18
REMARK                            x       y       z     vdW  Elec       q    Type
REMARK                         _______ _______ _______ _____ _____    ______ ____
ROOT
ATOM      1  S   UNL     1       2.686   5.814  -7.474  0.00  0.00    -0.128 S 
ENDROOT
BRANCH   1   2
ATOM      2  C   UNL     1       4.172   5.801  -6.416  0.00  0.00    +0.122 C 
BRANCH   2   3
ATOM      3  C   UNL     1       3.889   6.640  -5.211  0.00  0.00    +0.133 A 
ATOM      4  O   UNL     1       3.211   6.238  -4.177  0.00  0.00    -0.460 OA
ATOM      5  C   UNL     1       3.347   7.066  -3.160  0.00  0.00    +0.139 A 
ATOM      6  C   UNL     1       4.575   7.685  -3.362  0.00  0.00    +0.037 A 
ATOM      7  C   UNL     1       4.831   7.533  -4.718  0.00  0.00    +0.037 A 
BRANCH   5   8
ATOM      8  C   UNL     1       2.769   6.738  -1.819  0.00  0.00    +0.138 C 
BRANCH   8   9
ATOM      9  N   UNL     1       2.373   5.347  -1.764  0.00  0.00    -0.264 NA
ATOM     10  C   UNL     1       3.424   4.553  -1.130  0.00  0.00    +0.090 C 
ATOM     11  C   UNL     1       1.171   5.129  -1.000  0.00  0.00    +0.090 C 
ENDBRANCH   8   9
ENDBRANCH   5   8
ENDBRANCH   2   3
ENDBRANCH   1   2
BRANCH   1  12
ATOM     12  C   UNL     1       3.083   4.926  -9.010  0.00  0.00    +0.113 C 
BRANCH  12  13
ATOM     13  C   UNL     1       4.582   4.995  -9.183  0.00  0.00    +0.263 C 
BRANCH  13  14
ATOM     14  N   UNL     1       4.833   5.367 -10.556  0.00  0.00    -0.027 NA
BRANCH  14  15
ATOM     15  C   UNL     1       6.004   6.009 -11.012  0.00  0.00    +0.424 C 
ATOM     16  C   UNL     1       7.202   5.468 -11.034  0.00  0.00    +0.447 C 
BRANCH  16  17
ATOM     17  N   UNL     1       8.077   5.548 -12.166  0.00  0.00    +0.096 N 
ATOM     18  O   UNL     1       7.777   4.682 -13.203  0.00  0.00    -0.576 OA
ATOM     19  O   UNL     1       9.271   5.862 -12.009  0.00  0.00    +0.042 OA
ENDBRANCH  16  17
BRANCH  15  21
ATOM     20  C   UNL     1       6.490   8.387 -11.343  0.00  0.00    +0.306 C 
ATOM     21  N   UNL     1       5.826   7.184 -11.811  0.00  0.00    -0.023 NA
ENDBRANCH  15  21
ENDBRANCH  14  15
ENDBRANCH  13  14
ENDBRANCH  12  13
ENDBRANCH   1  12
TORSDOF 10
ENDMDL
MODEL 7
REMARK VINA RESULT:      -5.7      2.946      8.888
REMARK  Name = 
REMARK  10 active torsions:
REMARK  status: ('A' for Active; 'I' for Inactive)
REMARK    1  A    between atoms: N_2  and  C_3
REMARK    2  A    between atoms: C_3  and  N_8
REMARK    3  A    between atoms: C_4  and  N_5
REMARK    4  A    between atoms: N_8  and  C_9
REMARK    5  A    between atoms: C_9  and  C_10
REMARK    6  A    between atoms: C_10  and  S_11
REMARK    7  A    between atoms: S_11  and  C_12
REMARK    8  A    between atoms: C_12  and  C_13
REMARK    9  A    between atoms: C_16  and  C_17
REMARK   10  A    between atoms: C_17  and  N_18
REMARK                            x       y       z     vdW  Elec       q    Type
REMARK                         _______ _______ _______ _____ _____    ______ ____
ROOT
ATOM      1  S   UNL     1       3.329   6.548  -6.723  0.00  0.00    -0.128 S 
ENDROOT
BRANCH   1   2
ATOM      2  C   UNL     1       4.633   5.475  -7.411  0.00  0.00    +0.122 C 
BRANCH   2   3
ATOM      3  C   UNL     1       4.465   5.437  -8.897  0.00  0.00    +0.133 A 
ATOM      4  O   UNL     1       3.327   5.574  -9.512  0.00  0.00    -0.460 OA
ATOM      5  C   UNL     1       3.499   5.776 -10.803  0.00  0.00    +0.139 A 
ATOM      6  C   UNL     1       4.761   6.347 -10.914  0.00  0.00    +0.037 A 
ATOM      7  C   UNL     1       5.417   5.987  -9.744  0.00  0.00    +0.037 A 
BRANCH   5   8
ATOM      8  C   UNL     1       2.337   6.096 -11.691  0.00  0.00    +0.138 C 
BRANCH   8   9
ATOM      9  N   UNL     1       1.096   5.688 -11.070  0.00  0.00    -0.264 NA
ATOM     10  C   UNL     1       0.245   6.854 -10.842  0.00  0.00    +0.090 C 
ATOM     11  C   UNL     1       0.334   4.770 -11.878  0.00  0.00    +0.090 C 
ENDBRANCH   8   9
ENDBRANCH   5   8
ENDBRANCH   2   3
ENDBRANCH   1   2
BRANCH   1  12
ATOM     12  C   UNL     1       2.529   5.654  -5.358  0.00  0.00    +0.113 C 
BRANCH  12  13
ATOM     13  C   UNL     1       1.850   6.689  -4.492  0.00  0.00    +0.263 C 
BRANCH  13  14
ATOM     14  N   UNL     1       0.513   6.861  -5.008  0.00  0.00    -0.027 NA
BRANCH  14  15
ATOM     15  C   UNL     1      -0.574   6.007  -4.720  0.00  0.00    +0.424 C 
ATOM     16  C   UNL     1      -0.980   5.683  -3.513  0.00  0.00    +0.447 C 
BRANCH  16  17
ATOM     17  N   UNL     1      -2.357   5.704  -3.116  0.00  0.00    +0.096 N 
ATOM     18  O   UNL     1      -2.848   6.950  -2.765  0.00  0.00    -0.576 OA
ATOM     19  O   UNL     1      -2.860   4.712  -2.559  0.00  0.00    +0.042 OA
ENDBRANCH  16  17
BRANCH  15  21
ATOM     20  C   UNL     1      -0.921   5.320  -7.045  0.00  0.00    +0.306 C 
ATOM     21  N   UNL     1      -1.497   5.755  -5.786  0.00  0.00    -0.023 NA
ENDBRANCH  15  21
ENDBRANCH  14  15
ENDBRANCH  13  14
ENDBRANCH  12  13
ENDBRANCH   1  12
TORSDOF 10
ENDMDL
MODEL 8
REMARK VINA RESULT:      -5.7      4.385      7.425
REMARK  Name = 
REMARK  10 active torsions:
REMARK  status: ('A' for Active; 'I' for Inactive)
REMARK    1  A    between atoms: N_2  and  C_3
REMARK    2  A    between atoms: C_3  and  N_8
REMARK    3  A    between atoms: C_4  and  N_5
REMARK    4  A    between atoms: N_8  and  C_9
REMARK    5  A    between atoms: C_9  and  C_10
REMARK    6  A    between atoms: C_10  and  S_11
REMARK    7  A    between atoms: S_11  and  C_12
REMARK    8  A    between atoms: C_12  and  C_13
REMARK    9  A    between atoms: C_16  and  C_17
REMARK   10  A    between atoms: C_17  and  N_18
REMARK                            x       y       z     vdW  Elec       q    Type
REMARK                         _______ _______ _______ _____ _____    ______ ____
ROOT
ATOM      1  S   UNL     1      -2.008   5.345  -2.850  0.00  0.00    -0.128 S 
ENDROOT
BRANCH   1   2
ATOM      2  C   UNL     1      -2.043   6.909  -3.788  0.00  0.00    +0.122 C 
BRANCH   2   3
ATOM      3  C   UNL     1      -1.519   6.635  -5.162  0.00  0.00    +0.133 A 
ATOM      4  O   UNL     1      -0.271   6.396  -5.440  0.00  0.00    -0.460 OA
ATOM      5  C   UNL     1      -0.132   5.921  -6.662  0.00  0.00    +0.139 A 
ATOM      6  C   UNL     1      -1.347   5.312  -6.952  0.00  0.00    +0.037 A 
ATOM      7  C   UNL     1      -2.255   5.898  -6.080  0.00  0.00    +0.037 A 
BRANCH   5   8
ATOM      8  C   UNL     1       1.199   5.445  -7.154  0.00  0.00    +0.138 C 
BRANCH   8   9
ATOM      9  N   UNL     1       1.176   5.269  -8.590  0.00  0.00    -0.264 NA
ATOM     10  C   UNL     1       1.390   6.553  -9.254  0.00  0.00    +0.090 C 
ATOM     11  C   UNL     1       2.202   4.377  -9.068  0.00  0.00    +0.090 C 
ENDBRANCH   8   9
ENDBRANCH   5   8
ENDBRANCH   2   3
ENDBRANCH   1   2
BRANCH   1  12
ATOM     12  C   UNL     1      -0.871   5.557  -1.447  0.00  0.00    +0.113 C 
BRANCH  12  13
ATOM     13  C   UNL     1       0.314   6.343  -1.957  0.00  0.00    +0.263 C 
BRANCH  13  14
ATOM     14  N   UNL     1       1.175   5.410  -2.646  0.00  0.00    -0.027 NA
BRANCH  14  15
ATOM     15  C   UNL     1       2.450   5.726  -3.163  0.00  0.00    +0.424 C 
ATOM     16  C   UNL     1       2.746   6.825  -3.821  0.00  0.00    +0.447 C 
BRANCH  16  17
ATOM     17  N   UNL     1       3.911   7.613  -3.546  0.00  0.00    +0.096 N 
ATOM     18  O   UNL     1       3.826   8.415  -2.421  0.00  0.00    -0.576 OA
ATOM     19  O   UNL     1       4.627   8.013  -4.482  0.00  0.00    +0.042 OA
ENDBRANCH  16  17
BRANCH  15  21
ATOM     20  C   UNL     1       3.614   4.823  -1.208  0.00  0.00    +0.306 C 
ATOM     21  N   UNL     1       3.558   4.979  -2.649  0.00  0.00    -0.023 NA
ENDBRANCH  15  21
ENDBRANCH  14  15
ENDBRANCH  13  14
ENDBRANCH  12  13
ENDBRANCH   1  12
TORSDOF 10
ENDMDL
MODEL 9
REMARK VINA RESULT:      -5.7      2.156      9.409
REMARK  Name = 
REMARK  10 active torsions:
REMARK  status: ('A' for Active; 'I' for Inactive)
REMARK    1  A    between atoms: N_2  and  C_3
REMARK    2  A    between atoms: C_3  and  N_8
REMARK    3  A    between atoms: C_4  and  N_5
REMARK    4  A    between atoms: N_8  and  C_9
REMARK    5  A    between atoms: C_9  and  C_10
REMARK    6  A    between atoms: C_10  and  S_11
REMARK    7  A    between atoms: S_11  and  C_12
REMARK    8  A    between atoms: C_12  and  C_13
REMARK    9  A    between atoms: C_16  and  C_17
REMARK   10  A    between atoms: C_17  and  N_18
REMARK                            x       y       z     vdW  Elec       q    Type
REMARK                         _______ _______ _______ _____ _____    ______ ____
ROOT
ATOM      1  S   UNL     1       2.327   5.618  -7.701  0.00  0.00    -0.128 S 
ENDROOT
BRANCH   1   2
ATOM      2  C   UNL     1       2.608   4.800  -9.306  0.00  0.00    +0.122 C 
BRANCH   2   3
ATOM      3  C   UNL     1       4.075   4.843  -9.596  0.00  0.00    +0.133 A 
ATOM      4  O   UNL     1       4.606   5.456 -10.613  0.00  0.00    -0.460 OA
ATOM      5  C   UNL     1       5.913   5.569 -10.477  0.00  0.00    +0.139 A 
ATOM      6  C   UNL     1       6.137   5.544  -9.106  0.00  0.00    +0.037 A 
ATOM      7  C   UNL     1       5.009   4.933  -8.573  0.00  0.00    +0.037 A 
BRANCH   5   8
ATOM      8  C   UNL     1       6.721   6.360 -11.458  0.00  0.00    +0.138 C 
BRANCH   8   9
ATOM      9  N   UNL     1       7.510   5.479 -12.292  0.00  0.00    -0.264 NA
ATOM     10  C   UNL     1       7.014   5.514 -13.666  0.00  0.00    +0.090 C 
ATOM     11  C   UNL     1       8.903   5.846 -12.344  0.00  0.00    +0.090 C 
ENDBRANCH   8   9
ENDBRANCH   5   8
ENDBRANCH   2   3
ENDBRANCH   1   2
BRANCH   1  12
ATOM     12  C   UNL     1       1.993   4.328  -6.464  0.00  0.00    +0.113 C 
BRANCH  12  13
ATOM     13  C   UNL     1       2.456   4.867  -5.131  0.00  0.00    +0.263 C 
BRANCH  13  14
ATOM     14  N   UNL     1       1.814   6.147  -4.946  0.00  0.00    -0.027 NA
BRANCH  14  15
ATOM     15  C   UNL     1       0.483   6.322  -4.510  0.00  0.00    +0.424 C 
ATOM     16  C   UNL     1      -0.409   7.090  -5.095  0.00  0.00    +0.447 C 
BRANCH  16  17
ATOM     17  N   UNL     1      -1.750   6.666  -5.368  0.00  0.00    +0.096 N 
ATOM     18  O   UNL     1      -1.880   5.761  -6.408  0.00  0.00    -0.576 OA
ATOM     19  O   UNL     1      -2.703   7.440  -5.159  0.00  0.00    +0.042 OA
ENDBRANCH  16  17
BRANCH  15  21
ATOM     20  C   UNL     1       0.221   5.608  -2.182  0.00  0.00    +0.306 C 
ATOM     21  N   UNL     1      -0.026   5.350  -3.588  0.00  0.00    -0.023 NA
ENDBRANCH  15  21
ENDBRANCH  14  15
ENDBRANCH  13  14
ENDBRANCH  12  13
ENDBRANCH   1  12
TORSDOF 10
ENDMDL
