MODEL 1
REMARK VINA RESULT:      -4.3      0.000      0.000
REMARK  Name = 
REMARK  2 active torsions:
REMARK  status: ('A' for Active; 'I' for Inactive)
REMARK    1  A    between atoms: C_2  and  CA_5
REMARK    2  A    between atoms: CA_5  and  C_7
REMARK                            x       y       z     vdW  Elec       q    Type
REMARK                         _______ _______ _______ _____ _____    ______ ____
ROOT
ATOM      1  CA  UNL     1       7.711   6.322 -12.565  0.00  0.00    +0.204 C 
ATOM      2  N   UNL     1       7.733   4.771 -12.269  0.00  0.00    -0.120 NA
ENDROOT
BRANCH   1   4
ATOM      3  C   UNL     1       6.560   8.062 -11.302  0.00  0.00    +0.014 C 
ATOM      4  C   UNL     1       6.732   6.631 -11.284  0.00  0.00    +0.076 C 
ATOM      5  S   UNL     1       5.291   5.641 -11.308  0.00  0.00    -0.082 S 
ATOM      6  C   UNL     1       7.553   6.313 -10.053  0.00  0.00    +0.014 C 
ENDBRANCH   1   4
BRANCH   1   7
ATOM      7  C   UNL     1       6.488   6.247 -13.609  0.00  0.00    +0.383 C 
ATOM      8  OXT UNL     1       6.411   7.374 -14.439  0.00  0.00    -0.244 OA
ATOM      9  O   UNL     1       6.177   5.204 -14.151  0.00  0.00    -0.244 OA
ENDBRANCH   1   7
TORSDOF 2
ENDMDL
MODEL 2
REMARK VINA RESULT:      -4.1     12.597     13.051
REMARK  Name = 
REMARK  2 active torsions:
REMARK  status: ('A' for Active; 'I' for Inactive)
REMARK    1  A    between atoms: C_2  and  CA_5
REMARK    2  A    between atoms: CA_5  and  C_7
REMARK                            x       y       z     vdW  Elec       q    Type
REMARK                         _______ _______ _______ _____ _____    ______ ____
ROOT
ATOM      1  CA  UNL     1      -3.075   6.472  -3.181  0.00  0.00    +0.204 C 
ATOM      2  N   UNL     1      -3.161   4.916  -3.428  0.00  0.00    -0.120 NA
ENDROOT
BRANCH   1   4
ATOM      3  C   UNL     1      -1.822   8.088  -4.511  0.00  0.00    +0.014 C 
ATOM      4  C   UNL     1      -1.893   6.664  -4.305  0.00  0.00    +0.076 C 
ATOM      5  S   UNL     1      -0.421   5.837  -3.851  0.00  0.00    -0.082 S 
ATOM      6  C   UNL     1      -2.441   6.071  -5.584  0.00  0.00    +0.014 C 
ENDBRANCH   1   4
BRANCH   1   7
ATOM      7  C   UNL     1      -2.034   6.363  -1.958  0.00  0.00    +0.383 C 
ATOM      8  OXT UNL     1      -1.916   7.558  -1.236  0.00  0.00    -0.244 OA
ATOM      9  O   UNL     1      -1.953   5.357  -1.280  0.00  0.00    -0.244 OA
ENDBRANCH   1   7
TORSDOF 2
ENDMDL
MODEL 3
REMARK VINA RESULT:      -4.1     12.412     12.819
REMARK  Name = 
REMARK  2 active torsions:
REMARK  status: ('A' for Active; 'I' for Inactive)
REMARK    1  A    between atoms: C_2  and  CA_5
REMARK    2  A    between atoms: CA_5  and  C_7
REMARK                            x       y       z     vdW  Elec       q    Type
REMARK                         _______ _______ _______ _____ _____    ______ ____
ROOT
ATOM      1  CA  UNL     1      -1.978   6.962  -2.561  0.00  0.00    +0.204 C 
ATOM      2  N   UNL     1      -3.505   6.827  -2.935  0.00  0.00    -0.120 NA
ENDROOT
BRANCH   1   4
ATOM      3  C   UNL     1      -1.815   8.396  -4.528  0.00  0.00    +0.014 C 
ATOM      4  C   UNL     1      -1.519   7.041  -4.136  0.00  0.00    +0.076 C 
ATOM      5  S   UNL     1       0.116   6.469  -4.370  0.00  0.00    -0.082 S 
ATOM      6  C   UNL     1      -2.485   6.155  -4.891  0.00  0.00    +0.014 C 
ENDBRANCH   1   4
BRANCH   1   7
ATOM      7  C   UNL     1      -1.718   5.377  -2.461  0.00  0.00    +0.383 C 
ATOM      8  OXT UNL     1      -0.710   5.047  -1.546  0.00  0.00    -0.244 OA
ATOM      9  O   UNL     1      -2.633   4.578  -2.507  0.00  0.00    -0.244 OA
ENDBRANCH   1   7
TORSDOF 2
ENDMDL
MODEL 4
REMARK VINA RESULT:      -4.0      1.946      2.535
REMARK  Name = 
REMARK  2 active torsions:
REMARK  status: ('A' for Active; 'I' for Inactive)
REMARK    1  A    between atoms: C_2  and  CA_5
REMARK    2  A    between atoms: CA_5  and  C_7
REMARK                            x       y       z     vdW  Elec       q    Type
REMARK                         _______ _______ _______ _____ _____    ______ ____
ROOT
ATOM      1  CA  UNL     1       5.593   5.671 -11.178  0.00  0.00    +0.204 C 
ATOM      2  N   UNL     1       5.044   7.145 -11.039  0.00  0.00    -0.120 NA
ENDROOT
BRANCH   1   4
ATOM      3  C   UNL     1       7.355   5.749  -9.492  0.00  0.00    +0.014 C 
ATOM      4  C   UNL     1       7.137   6.134 -10.864  0.00  0.00    +0.076 C 
ATOM      5  S   UNL     1       8.257   5.531 -12.063  0.00  0.00    -0.082 S 
ATOM      6  C   UNL     1       7.125   7.647 -10.888  0.00  0.00    +0.014 C 
ENDBRANCH   1   4
BRANCH   1   7
ATOM      7  C   UNL     1       5.789   5.746 -12.774  0.00  0.00    +0.383 C 
ATOM      8  OXT UNL     1       5.378   4.577 -13.428  0.00  0.00    -0.244 OA
ATOM      9  O   UNL     1       5.575   6.769 -13.395  0.00  0.00    -0.244 OA
ENDBRANCH   1   7
TORSDOF 2
ENDMDL
MODEL 5
REMARK VINA RESULT:      -4.0     12.153     12.585
REMARK  Name = 
REMARK  2 active torsions:
REMARK  status: ('A' for Active; 'I' for Inactive)
REMARK    1  A    between atoms: C_2  and  CA_5
REMARK    2  A    between atoms: CA_5  and  C_7
REMARK                            x       y       z     vdW  Elec       q    Type
REMARK                         _______ _______ _______ _____ _____    ______ ____
ROOT
ATOM      1  CA  UNL     1      -1.518   5.541  -3.115  0.00  0.00    +0.204 C 
ATOM      2  N   UNL     1      -2.850   4.726  -2.885  0.00  0.00    -0.120 NA
ENDROOT
BRANCH   1   4
ATOM      3  C   UNL     1      -1.774   7.330  -1.476  0.00  0.00    +0.014 C 
ATOM      4  C   UNL     1      -2.248   6.976  -2.790  0.00  0.00    +0.076 C 
ATOM      5  S   UNL     1      -2.010   8.135  -4.077  0.00  0.00    -0.082 S 
ATOM      6  C   UNL     1      -3.721   6.664  -2.646  0.00  0.00    +0.014 C 
ENDBRANCH   1   4
BRANCH   1   7
ATOM      7  C   UNL     1      -1.716   5.686  -4.706  0.00  0.00    +0.383 C 
ATOM      8  OXT UNL     1      -0.515   5.562  -5.417  0.00  0.00    -0.244 OA
ATOM      9  O   UNL     1      -2.685   5.217  -5.272  0.00  0.00    -0.244 OA
ENDBRANCH   1   7
TORSDOF 2
ENDMDL
MODEL 6
REMARK VINA RESULT:      -3.9      7.839      8.242
REMARK  Name = 
REMARK  2 active torsions:
REMARK  status: ('A' for Active; 'I' for Inactive)
REMARK    1  A    between atoms: C_2  and  CA_5
REMARK    2  A    between atoms: CA_5  and  C_7
REMARK                            x       y       z     vdW  Elec       q    Type
REMARK                         _______ _______ _______ _____ _____    ______ ____
ROOT
ATOM      1  CA  UNL     1       0.813   6.982  -6.222  0.00  0.00    +0.204 C 
ATOM      2  N   UNL     1       1.524   6.349  -4.963  0.00  0.00    -0.120 NA
ENDROOT
BRANCH   1   4
ATOM      3  C   UNL     1       0.729   5.748  -8.324  0.00  0.00    +0.014 C 
ATOM      4  C   UNL     1       0.556   5.515  -6.913  0.00  0.00    +0.076 C 
ATOM      5  S   UNL     1       1.528   4.265  -6.172  0.00  0.00    -0.082 S 
ATOM      6  C   UNL     1      -0.912   5.214  -6.704  0.00  0.00    +0.014 C 
ENDBRANCH   1   4
BRANCH   1   7
ATOM      7  C   UNL     1       2.176   7.239  -7.038  0.00  0.00    +0.383 C 
ATOM      8  OXT UNL     1       2.112   8.368  -7.865  0.00  0.00    -0.244 OA
ATOM      9  O   UNL     1       3.266   7.050  -6.532  0.00  0.00    -0.244 OA
ENDBRANCH   1   7
TORSDOF 2
ENDMDL
MODEL 7
REMARK VINA RESULT:      -3.8      6.290      6.688
REMARK  Name = 
REMARK  2 active torsions:
REMARK  status: ('A' for Active; 'I' for Inactive)
REMARK    1  A    between atoms: C_2  and  CA_5
REMARK    2  A    between atoms: CA_5  and  C_7
REMARK                            x       y       z     vdW  Elec       q    Type
REMARK                         _______ _______ _______ _____ _____    ______ ____
ROOT
ATOM      1  CA  UNL     1       2.892   6.208  -6.849  0.00  0.00    +0.204 C 
ATOM      2  N   UNL     1       4.203   5.523  -7.398  0.00  0.00    -0.120 NA
ENDROOT
BRANCH   1   4
ATOM      3  C   UNL     1       0.700   5.625  -7.745  0.00  0.00    +0.014 C 
ATOM      4  C   UNL     1       1.936   4.982  -7.378  0.00  0.00    +0.076 C 
ATOM      5  S   UNL     1       2.734   4.009  -8.591  0.00  0.00    -0.082 S 
ATOM      6  C   UNL     1       1.636   4.139  -6.159  0.00  0.00    +0.014 C 
ENDBRANCH   1   4
BRANCH   1   7
ATOM      7  C   UNL     1       2.642   7.104  -8.163  0.00  0.00    +0.383 C 
ATOM      8  OXT UNL     1       2.110   8.366  -7.868  0.00  0.00    -0.244 OA
ATOM      9  O   UNL     1       3.420   7.094  -9.098  0.00  0.00    -0.244 OA
ENDBRANCH   1   7
TORSDOF 2
ENDMDL
MODEL 8
REMARK VINA RESULT:      -3.8      9.919     10.319
REMARK  Name = 
REMARK  2 active torsions:
REMARK  status: ('A' for Active; 'I' for Inactive)
REMARK    1  A    between atoms: C_2  and  CA_5
REMARK    2  A    between atoms: CA_5  and  C_7
REMARK                            x       y       z     vdW  Elec       q    Type
REMARK                         _______ _______ _______ _____ _____    ______ ____
ROOT
ATOM      1  CA  UNL     1       0.003   6.842  -5.634  0.00  0.00    +0.204 C 
ATOM      2  N   UNL     1       0.825   6.415  -4.356  0.00  0.00    -0.120 NA
ENDROOT
BRANCH   1   4
ATOM      3  C   UNL     1      -2.331   6.187  -5.901  0.00  0.00    +0.014 C 
ATOM      4  C   UNL     1      -1.437   6.647  -4.870  0.00  0.00    +0.076 C 
ATOM      5  S   UNL     1      -1.285   5.666  -3.431  0.00  0.00    -0.082 S 
ATOM      6  C   UNL     1      -1.895   8.039  -4.495  0.00  0.00    +0.014 C 
ENDBRANCH   1   4
BRANCH   1   7
ATOM      7  C   UNL     1      -0.027   5.368  -6.281  0.00  0.00    +0.383 C 
ATOM      8  OXT UNL     1      -0.046   5.388  -7.681  0.00  0.00    -0.244 OA
ATOM      9  O   UNL     1       0.611   4.450  -5.802  0.00  0.00    -0.244 OA
ENDBRANCH   1   7
TORSDOF 2
ENDMDL
MODEL 9
REMARK VINA RESULT:      -3.8      7.112      7.568
REMARK  Name = 
REMARK  2 active torsions:
REMARK  status: ('A' for Active; 'I' for Inactive)
REMARK    1  A    between atoms: C_2  and  CA_5
REMARK    2  A    between atoms: CA_5  and  C_7
REMARK                            x       y       z     vdW  Elec       q    Type
REMARK                         _______ _______ _______ _____ _____    ______ ____
ROOT
ATOM      1  CA  UNL     1       2.684   6.531  -7.891  0.00  0.00    +0.204 C 
ATOM      2  N   UNL     1       2.094   7.976  -7.660  0.00  0.00    -0.120 NA
ENDROOT
BRANCH   1   4
ATOM      3  C   UNL     1       0.444   5.684  -8.353  0.00  0.00    +0.014 C 
ATOM      4  C   UNL     1       1.361   5.802  -7.248  0.00  0.00    +0.076 C 
ATOM      5  S   UNL     1       1.776   4.343  -6.379  0.00  0.00    -0.082 S 
ATOM      6  C   UNL     1       0.758   6.812  -6.296  0.00  0.00    +0.014 C 
ENDBRANCH   1   4
BRANCH   1   7
ATOM      7  C   UNL     1       3.503   6.491  -6.506  0.00  0.00    +0.383 C 
ATOM      8  OXT UNL     1       4.688   5.749  -6.595  0.00  0.00    -0.244 OA
ATOM      9  O   UNL     1       3.576   7.465  -5.781  0.00  0.00    -0.244 OA
ENDBRANCH   1   7
TORSDOF 2
ENDMDL
