MODEL 1
REMARK VINA RESULT:      -6.0      0.000      0.000
REMARK  Name = 
REMARK  0 active torsions:
REMARK  status: ('A' for Active; 'I' for Inactive)
REMARK                            x       y       z     vdW  Elec       q    Type
REMARK                         _______ _______ _______ _____ _____    ______ ____
ROOT
ATOM      1  O   UNL     1       1.426   5.093  -2.068  0.00  0.00    -0.285 OA
ATOM      2  C   UNL     1       0.553   5.294  -3.132  0.00  0.00    +0.218 A 
ATOM      3  C   UNL     1      -0.797   5.412  -2.837  0.00  0.00    +0.121 A 
ATOM      4  C   UNL     1      -1.667   5.762  -3.861  0.00  0.00    +0.031 A 
ATOM      5  C   UNL     1      -2.865   6.408  -3.629  0.00  0.00    +0.004 A 
ATOM      6  C   UNL     1      -3.183   6.639  -2.297  0.00  0.00    +0.021 A 
ATOM      7  C   UNL     1      -2.315   6.222  -1.303  0.00  0.00    +0.099 A 
ATOM      8  C   UNL     1      -1.171   5.729  -5.159  0.00  0.00    +0.060 A 
ATOM      9 CL   UNL     1      -2.327   5.515  -6.470  0.00  0.00    -0.082 Cl
ATOM     10  C   UNL     1       0.194   5.781  -5.411  0.00  0.00    +0.020 A 
ATOM     11  N   UNL     1      -1.299   5.375  -1.602  0.00  0.00    -0.241 NA
ATOM     12  C   UNL     1       1.085   5.714  -4.346  0.00  0.00    +0.071 A 
ATOM     13  I   UNL     1       2.963   6.687  -4.419  0.00  0.00    -0.039 I 
ENDROOT
TORSDOF 0
ENDMDL
MODEL 2
REMARK VINA RESULT:      -5.7      4.158      5.768
REMARK  Name = 
REMARK  0 active torsions:
REMARK  status: ('A' for Active; 'I' for Inactive)
REMARK                            x       y       z     vdW  Elec       q    Type
REMARK                         _______ _______ _______ _____ _____    ______ ____
ROOT
ATOM      1  O   UNL     1      -1.867   5.096  -6.696  0.00  0.00    -0.285 OA
ATOM      2  C   UNL     1      -0.610   5.660  -6.504  0.00  0.00    +0.218 A 
ATOM      3  C   UNL     1       0.237   5.716  -7.600  0.00  0.00    +0.121 A 
ATOM      4  C   UNL     1       1.435   6.409  -7.472  0.00  0.00    +0.031 A 
ATOM      5  C   UNL     1       2.080   6.980  -8.550  0.00  0.00    +0.004 A 
ATOM      6  C   UNL     1       1.492   6.772  -9.791  0.00  0.00    +0.021 A 
ATOM      7  C   UNL     1       0.330   6.028  -9.883  0.00  0.00    +0.099 A 
ATOM      8  C   UNL     1       1.820   6.785  -6.191  0.00  0.00    +0.060 A 
ATOM      9 CL   UNL     1       3.536   7.047  -5.897  0.00  0.00    -0.082 Cl
ATOM     10  C   UNL     1       0.896   6.875  -5.157  0.00  0.00    +0.020 A 
ATOM     11  N   UNL     1      -0.089   5.293  -8.822  0.00  0.00    -0.241 NA
ATOM     12  C   UNL     1      -0.407   6.436  -5.369  0.00  0.00    +0.071 A 
ATOM     13  I   UNL     1      -2.044   7.321  -4.362  0.00  0.00    -0.039 I 
ENDROOT
TORSDOF 0
ENDMDL
MODEL 3
REMARK VINA RESULT:      -5.7      3.812      4.742
REMARK  Name = 
REMARK  0 active torsions:
REMARK  status: ('A' for Active; 'I' for Inactive)
REMARK                            x       y       z     vdW  Elec       q    Type
REMARK                         _______ _______ _______ _____ _____    ______ ____
ROOT
ATOM      1  O   UNL     1       2.137   5.385  -3.724  0.00  0.00    -0.285 OA
ATOM      2  C   UNL     1       2.571   5.266  -5.041  0.00  0.00    +0.218 A 
ATOM      3  C   UNL     1       1.616   4.985  -6.005  0.00  0.00    +0.121 A 
ATOM      4  C   UNL     1       2.000   5.012  -7.340  0.00  0.00    +0.031 A 
ATOM      5  C   UNL     1       1.111   5.276  -8.362  0.00  0.00    +0.004 A 
ATOM      6  C   UNL     1      -0.213   5.459  -7.985  0.00  0.00    +0.021 A 
ATOM      7  C   UNL     1      -0.564   5.368  -6.650  0.00  0.00    +0.099 A 
ATOM      8  C   UNL     1       3.361   5.071  -7.611  0.00  0.00    +0.060 A 
ATOM      9 CL   UNL     1       3.913   4.462  -9.168  0.00  0.00    -0.082 Cl
ATOM     10  C   UNL     1       4.267   5.522  -6.659  0.00  0.00    +0.020 A 
ATOM     11  N   UNL     1       0.314   4.853  -5.753  0.00  0.00    -0.241 NA
ATOM     12  C   UNL     1       3.825   5.773  -5.364  0.00  0.00    +0.071 A 
ATOM     13  I   UNL     1       4.729   7.262  -4.162  0.00  0.00    -0.039 I 
ENDROOT
TORSDOF 0
ENDMDL
MODEL 4
REMARK VINA RESULT:      -5.6      2.282      3.006
REMARK  Name = 
REMARK  0 active torsions:
REMARK  status: ('A' for Active; 'I' for Inactive)
REMARK                            x       y       z     vdW  Elec       q    Type
REMARK                         _______ _______ _______ _____ _____    ______ ____
ROOT
ATOM      1  O   UNL     1       0.903   6.174  -2.089  0.00  0.00    -0.285 OA
ATOM      2  C   UNL     1       1.254   5.666  -3.336  0.00  0.00    +0.218 A 
ATOM      3  C   UNL     1       0.225   5.348  -4.208  0.00  0.00    +0.121 A 
ATOM      4  C   UNL     1       0.552   4.983  -5.508  0.00  0.00    +0.031 A 
ATOM      5  C   UNL     1      -0.315   5.159  -6.568  0.00  0.00    +0.004 A 
ATOM      6  C   UNL     1      -1.566   5.672  -6.252  0.00  0.00    +0.021 A 
ATOM      7  C   UNL     1      -1.873   5.969  -4.936  0.00  0.00    +0.099 A 
ATOM      8  C   UNL     1       1.889   4.719  -5.779  0.00  0.00    +0.060 A 
ATOM      9 CL   UNL     1       2.254   3.663  -7.140  0.00  0.00    -0.082 Cl
ATOM     10  C   UNL     1       2.900   5.204  -4.960  0.00  0.00    +0.020 A 
ATOM     11  N   UNL     1      -1.068   5.527  -3.937  0.00  0.00    -0.241 NA
ATOM     12  C   UNL     1       2.565   5.835  -3.767  0.00  0.00    +0.071 A 
ATOM     13  I   UNL     1       3.776   7.370  -2.956  0.00  0.00    -0.039 I 
ENDROOT
TORSDOF 0
ENDMDL
MODEL 5
REMARK VINA RESULT:      -5.5      3.720      5.261
REMARK  Name = 
REMARK  0 active torsions:
REMARK  status: ('A' for Active; 'I' for Inactive)
REMARK                            x       y       z     vdW  Elec       q    Type
REMARK                         _______ _______ _______ _____ _____    ______ ____
ROOT
ATOM      1  O   UNL     1       3.292   7.542  -6.365  0.00  0.00    -0.285 OA
ATOM      2  C   UNL     1       2.065   6.887  -6.374  0.00  0.00    +0.218 A 
ATOM      3  C   UNL     1       1.401   6.794  -7.587  0.00  0.00    +0.121 A 
ATOM      4  C   UNL     1       0.251   6.016  -7.652  0.00  0.00    +0.031 A 
ATOM      5  C   UNL     1      -0.180   5.424  -8.822  0.00  0.00    +0.004 A 
ATOM      6  C   UNL     1       0.574   5.699  -9.955  0.00  0.00    +0.021 A 
ATOM      7  C   UNL     1       1.679   6.525  -9.860  0.00  0.00    +0.099 A 
ATOM      8  C   UNL     1      -0.296   5.587  -6.449  0.00  0.00    +0.060 A 
ATOM      9 CL   UNL     1      -2.013   5.199  -6.423  0.00  0.00    -0.082 Cl
ATOM     10  C   UNL     1       0.464   5.540  -5.286  0.00  0.00    +0.020 A 
ATOM     11  N   UNL     1       1.878   7.265  -8.740  0.00  0.00    -0.241 NA
ATOM     12  C   UNL     1       1.748   6.074  -5.292  0.00  0.00    +0.071 A 
ATOM     13  I   UNL     1       3.273   5.286  -4.054  0.00  0.00    -0.039 I 
ENDROOT
TORSDOF 0
ENDMDL
MODEL 6
REMARK VINA RESULT:      -5.5      8.534     10.229
REMARK  Name = 
REMARK  0 active torsions:
REMARK  status: ('A' for Active; 'I' for Inactive)
REMARK                            x       y       z     vdW  Elec       q    Type
REMARK                         _______ _______ _______ _____ _____    ______ ____
ROOT
ATOM      1  O   UNL     1       2.705   5.756 -13.254  0.00  0.00    -0.285 OA
ATOM      2  C   UNL     1       3.305   5.673 -12.001  0.00  0.00    +0.218 A 
ATOM      3  C   UNL     1       4.667   5.919 -11.928  0.00  0.00    +0.121 A 
ATOM      4  C   UNL     1       5.258   5.991 -10.673  0.00  0.00    +0.031 A 
ATOM      5  C   UNL     1       6.406   6.719 -10.433  0.00  0.00    +0.004 A 
ATOM      6  C   UNL     1       6.977   7.334 -11.539  0.00  0.00    +0.021 A 
ATOM      7  C   UNL     1       6.390   7.191 -12.783  0.00  0.00    +0.099 A 
ATOM      8  C   UNL     1       4.501   5.567  -9.587  0.00  0.00    +0.060 A 
ATOM      9 CL   UNL     1       5.364   5.026  -8.151  0.00  0.00    -0.082 Cl
ATOM     10  C   UNL     1       3.116   5.495  -9.657  0.00  0.00    +0.020 A 
ATOM     11  N   UNL     1       5.424   6.257 -12.973  0.00  0.00    -0.241 NA
ATOM     12  C   UNL     1       2.485   5.706 -10.879  0.00  0.00    +0.071 A 
ATOM     13  I   UNL     1       0.546   6.548 -10.986  0.00  0.00    -0.039 I 
ENDROOT
TORSDOF 0
ENDMDL
MODEL 7
REMARK VINA RESULT:      -5.4      3.442      4.266
REMARK  Name = 
REMARK  0 active torsions:
REMARK  status: ('A' for Active; 'I' for Inactive)
REMARK                            x       y       z     vdW  Elec       q    Type
REMARK                         _______ _______ _______ _____ _____    ______ ____
ROOT
ATOM      1  O   UNL     1       3.046   4.289  -7.923  0.00  0.00    -0.285 OA
ATOM      2  C   UNL     1       1.753   4.655  -7.564  0.00  0.00    +0.218 A 
ATOM      3  C   UNL     1       1.470   4.751  -6.210  0.00  0.00    +0.121 A 
ATOM      4  C   UNL     1       0.233   5.259  -5.830  0.00  0.00    +0.031 A 
ATOM      5  C   UNL     1       0.030   5.886  -4.617  0.00  0.00    +0.004 A 
ATOM      6  C   UNL     1       1.125   5.929  -3.764  0.00  0.00    +0.021 A 
ATOM      7  C   UNL     1       2.323   5.361  -4.157  0.00  0.00    +0.099 A 
ATOM      8  C   UNL     1      -0.729   5.403  -6.822  0.00  0.00    +0.060 A 
ATOM      9 CL   UNL     1      -2.419   5.397  -6.328  0.00  0.00    -0.082 Cl
ATOM     10  C   UNL     1      -0.378   5.468  -8.164  0.00  0.00    +0.020 A 
ATOM     11  N   UNL     1       2.363   4.547  -5.242  0.00  0.00    -0.241 NA
ATOM     12  C   UNL     1       0.943   5.234  -8.534  0.00  0.00    +0.071 A 
ATOM     13  I   UNL     1       1.795   6.175 -10.227  0.00  0.00    -0.039 I 
ENDROOT
TORSDOF 0
ENDMDL
MODEL 8
REMARK VINA RESULT:      -5.4      2.357      3.419
REMARK  Name = 
REMARK  0 active torsions:
REMARK  status: ('A' for Active; 'I' for Inactive)
REMARK                            x       y       z     vdW  Elec       q    Type
REMARK                         _______ _______ _______ _____ _____    ______ ____
ROOT
ATOM      1  O   UNL     1       2.033   6.654  -4.003  0.00  0.00    -0.285 OA
ATOM      2  C   UNL     1       0.681   6.489  -3.721  0.00  0.00    +0.218 A 
ATOM      3  C   UNL     1      -0.192   6.423  -4.795  0.00  0.00    +0.121 A 
ATOM      4  C   UNL     1      -1.522   6.107  -4.546  0.00  0.00    +0.031 A 
ATOM      5  C   UNL     1      -2.332   5.507  -5.489  0.00  0.00    +0.004 A 
ATOM      6  C   UNL     1      -1.756   5.287  -6.734  0.00  0.00    +0.021 A 
ATOM      7  C   UNL     1      -0.445   5.669  -6.960  0.00  0.00    +0.099 A 
ATOM      8  C   UNL     1      -1.943   6.123  -3.222  0.00  0.00    +0.060 A 
ATOM      9 CL   UNL     1      -3.657   6.383  -2.913  0.00  0.00    -0.082 Cl
ATOM     10  C   UNL     1      -1.037   6.019  -2.175  0.00  0.00    +0.020 A 
ATOM     11  N   UNL     1       0.187   6.477  -6.072  0.00  0.00    -0.241 NA
ATOM     12  C   UNL     1       0.327   6.050  -2.450  0.00  0.00    +0.071 A 
ATOM     13  I   UNL     1       1.717   5.006  -1.243  0.00  0.00    -0.039 I 
ENDROOT
TORSDOF 0
ENDMDL
MODEL 9
REMARK VINA RESULT:      -5.4      6.014      7.247
REMARK  Name = 
REMARK  0 active torsions:
REMARK  status: ('A' for Active; 'I' for Inactive)
REMARK                            x       y       z     vdW  Elec       q    Type
REMARK                         _______ _______ _______ _____ _____    ______ ____
ROOT
ATOM      1  O   UNL     1       4.878   4.842  -8.927  0.00  0.00    -0.285 OA
ATOM      2  C   UNL     1       3.855   5.068  -9.842  0.00  0.00    +0.218 A 
ATOM      3  C   UNL     1       2.553   4.897  -9.399  0.00  0.00    +0.121 A 
ATOM      4  C   UNL     1       1.514   5.262 -10.247  0.00  0.00    +0.031 A 
ATOM      5  C   UNL     1       0.272   5.641  -9.779  0.00  0.00    +0.004 A 
ATOM      6  C   UNL     1       0.097   5.580  -8.402  0.00  0.00    +0.021 A 
ATOM      7  C   UNL     1       1.138   5.157  -7.596  0.00  0.00    +0.099 A 
ATOM      8  C   UNL     1       1.838   5.538 -11.569  0.00  0.00    +0.060 A 
ATOM      9 CL   UNL     1       0.571   5.354 -12.777  0.00  0.00    -0.082 Cl
ATOM     10  C   UNL     1       3.136   5.869 -11.941  0.00  0.00    +0.020 A 
ATOM     11  N   UNL     1       2.225   4.562  -8.150  0.00  0.00    -0.241 NA
ATOM     12  C   UNL     1       4.157   5.775 -11.000  0.00  0.00    +0.071 A 
ATOM     13  I   UNL     1       5.839   7.057 -11.072  0.00  0.00    -0.039 I 
ENDROOT
TORSDOF 0
ENDMDL
