MODEL 1
REMARK VINA RESULT:      -5.0      0.000      0.000
REMARK  Name = 
REMARK  9 active torsions:
REMARK  status: ('A' for Active; 'I' for Inactive)
REMARK    1  A    between atoms: C_2  and  CA_3
REMARK    2  A    between atoms: CA_3  and  C_4
REMARK    3  A    between atoms: CA_3  and  N_6
REMARK    4  A    between atoms: N_6  and  C_7
REMARK    5  A    between atoms: C_7  and  C_8
REMARK    6  A    between atoms: C_8  and  N_9
REMARK    7  A    between atoms: N_9  and  CA_10
REMARK    8  A    between atoms: CA_10  and  C_11
REMARK    9  A    between atoms: CA_10  and  C_13
REMARK                            x       y       z     vdW  Elec       q    Type
REMARK                         _______ _______ _______ _____ _____    ______ ____
ROOT
ATOM      1  C   UNL     1       0.510   5.279  -4.882  0.00  0.00    +0.107 C 
ENDROOT
BRANCH   1   2
ATOM      2  C   UNL     1       0.994   4.562  -6.103  0.00  0.00    +0.107 C 
BRANCH   2   3
ATOM      3  N   UNL     1       2.257   5.000  -6.606  0.00  0.00    -0.215 NA
BRANCH   3   4
ATOM      4  CA  UNL     1       2.381   6.534  -6.174  0.00  0.00    +0.106 C 
BRANCH   4   5
ATOM      5  C   UNL     1       4.002   6.343  -5.846  0.00  0.00    +0.020 C 
ATOM      6  C   UNL     1       4.541   5.577  -7.009  0.00  0.00    +0.002 C 
ENDBRANCH   4   5
BRANCH   4   7
ATOM      7  C   UNL     1       2.734   7.073  -7.708  0.00  0.00    +0.199 C 
ATOM      8  O   UNL     1       2.150   8.298  -7.835  0.00  0.00    -0.219 OA
ENDBRANCH   4   7
ENDBRANCH   3   4
ENDBRANCH   2   3
ENDBRANCH   1   2
BRANCH   1   9
ATOM      9  N   UNL     1      -0.899   5.506  -5.011  0.00  0.00    -0.215 NA
BRANCH   9  10
ATOM     10  CA  UNL     1      -1.333   6.282  -3.687  0.00  0.00    +0.106 C 
BRANCH  10  12
ATOM     11  C   UNL     1      -1.933   8.133  -4.502  0.00  0.00    +0.002 C 
ATOM     12  C   UNL     1      -2.062   7.500  -4.561  0.00  0.00    +0.020 C 
ENDBRANCH  10  12
BRANCH  10  13
ATOM     13  C   UNL     1      -2.758   5.425  -3.611  0.00  0.00    +0.199 C 
ATOM     14  O   UNL     1      -2.688   4.740  -2.419  0.00  0.00    -0.219 OA
ENDBRANCH  10  13
ENDBRANCH   9  10
ENDBRANCH   1   9
TORSDOF 9
ENDMDL
MODEL 2
REMARK VINA RESULT:      -5.0      4.361      8.257
REMARK  Name = 
REMARK  9 active torsions:
REMARK  status: ('A' for Active; 'I' for Inactive)
REMARK    1  A    between atoms: C_2  and  CA_3
REMARK    2  A    between atoms: CA_3  and  C_4
REMARK    3  A    between atoms: CA_3  and  N_6
REMARK    4  A    between atoms: N_6  and  C_7
REMARK    5  A    between atoms: C_7  and  C_8
REMARK    6  A    between atoms: C_8  and  N_9
REMARK    7  A    between atoms: N_9  and  CA_10
REMARK    8  A    between atoms: CA_10  and  C_11
REMARK    9  A    between atoms: CA_10  and  C_13
REMARK                            x       y       z     vdW  Elec       q    Type
REMARK                         _______ _______ _______ _____ _____    ______ ____
ROOT
ATOM      1  C   UNL     1       4.174   5.323 -10.484  0.00  0.00    +0.107 C 
ENDROOT
BRANCH   1   2
ATOM      2  C   UNL     1       3.836   4.819  -9.116  0.00  0.00    +0.107 C 
BRANCH   2   3
ATOM      3  N   UNL     1       2.450   4.866  -8.774  0.00  0.00    -0.215 NA
BRANCH   3   4
ATOM      4  CA  UNL     1       1.919   6.266  -9.332  0.00  0.00    +0.106 C 
BRANCH   4   5
ATOM      5  C   UNL     1       0.346   5.724  -9.288  0.00  0.00    +0.020 C 
ATOM      6  C   UNL     1       0.217   4.828 -10.476  0.00  0.00    +0.002 C 
ENDBRANCH   4   5
BRANCH   4   7
ATOM      7  C   UNL     1       1.747   6.950  -7.825  0.00  0.00    +0.199 C 
ATOM      8  O   UNL     1       2.176   8.240  -7.930  0.00  0.00    -0.219 OA
ENDBRANCH   4   7
ENDBRANCH   3   4
ENDBRANCH   2   3
ENDBRANCH   1   2
BRANCH   1   9
ATOM      9  N   UNL     1       5.486   5.898 -10.451  0.00  0.00    -0.215 NA
BRANCH   9  10
ATOM     10  CA  UNL     1       5.899   6.115 -11.976  0.00  0.00    +0.106 C 
BRANCH  10  12
ATOM     11  C   UNL     1       6.404   8.073 -11.374  0.00  0.00    +0.002 C 
ATOM     12  C   UNL     1       6.682   7.545 -11.629  0.00  0.00    +0.020 C 
ENDBRANCH  10  12
BRANCH  10  13
ATOM     13  C   UNL     1       7.301   5.244 -11.755  0.00  0.00    +0.199 C 
ATOM     14  O   UNL     1       7.576   4.710 -12.993  0.00  0.00    -0.219 OA
ENDBRANCH  10  13
ENDBRANCH   9  10
ENDBRANCH   1   9
TORSDOF 9
ENDMDL
MODEL 3
REMARK VINA RESULT:      -4.9      4.550      8.503
REMARK  Name = 
REMARK  9 active torsions:
REMARK  status: ('A' for Active; 'I' for Inactive)
REMARK    1  A    between atoms: C_2  and  CA_3
REMARK    2  A    between atoms: CA_3  and  C_4
REMARK    3  A    between atoms: CA_3  and  N_6
REMARK    4  A    between atoms: N_6  and  C_7
REMARK    5  A    between atoms: C_7  and  C_8
REMARK    6  A    between atoms: C_8  and  N_9
REMARK    7  A    between atoms: N_9  and  CA_10
REMARK    8  A    between atoms: CA_10  and  C_11
REMARK    9  A    between atoms: CA_10  and  C_13
REMARK                            x       y       z     vdW  Elec       q    Type
REMARK                         _______ _______ _______ _____ _____    ______ ____
ROOT
ATOM      1  C   UNL     1       4.625   5.978 -11.595  0.00  0.00    +0.107 C 
ENDROOT
BRANCH   1   2
ATOM      2  C   UNL     1       4.019   5.543 -10.298  0.00  0.00    +0.107 C 
BRANCH   2   3
ATOM      3  N   UNL     1       3.358   6.572  -9.559  0.00  0.00    -0.215 NA
BRANCH   3   4
ATOM      4  CA  UNL     1       2.745   5.847  -8.272  0.00  0.00    +0.106 C 
BRANCH   4   5
ATOM      5  C   UNL     1       4.260   5.359  -7.786  0.00  0.00    +0.020 C 
ATOM      6  C   UNL     1       4.373   5.817  -6.368  0.00  0.00    +0.002 C 
ENDBRANCH   4   5
BRANCH   4   7
ATOM      7  C   UNL     1       2.846   7.196  -7.303  0.00  0.00    +0.199 C 
ATOM      8  O   UNL     1       2.216   8.204  -7.971  0.00  0.00    -0.219 OA
ENDBRANCH   4   7
ENDBRANCH   3   4
ENDBRANCH   2   3
ENDBRANCH   1   2
BRANCH   1   9
ATOM      9  N   UNL     1       5.973   5.494 -11.657  0.00  0.00    -0.215 NA
BRANCH   9  10
ATOM     10  CA  UNL     1       6.848   6.725 -12.170  0.00  0.00    +0.106 C 
BRANCH  10  12
ATOM     11  C   UNL     1       7.797   6.928 -10.297  0.00  0.00    +0.002 C 
ATOM     12  C   UNL     1       7.279   7.151 -10.618  0.00  0.00    +0.020 C 
ENDBRANCH  10  12
BRANCH  10  13
ATOM     13  C   UNL     1       8.190   5.750 -12.322  0.00  0.00    +0.199 C 
ATOM     14  O   UNL     1       7.723   4.610 -12.935  0.00  0.00    -0.219 OA
ENDBRANCH  10  13
ENDBRANCH   9  10
ENDBRANCH   1   9
TORSDOF 9
ENDMDL
MODEL 4
REMARK VINA RESULT:      -4.9      0.981      5.881
REMARK  Name = 
REMARK  9 active torsions:
REMARK  status: ('A' for Active; 'I' for Inactive)
REMARK    1  A    between atoms: C_2  and  CA_3
REMARK    2  A    between atoms: CA_3  and  C_4
REMARK    3  A    between atoms: CA_3  and  N_6
REMARK    4  A    between atoms: N_6  and  C_7
REMARK    5  A    between atoms: C_7  and  C_8
REMARK    6  A    between atoms: C_8  and  N_9
REMARK    7  A    between atoms: N_9  and  CA_10
REMARK    8  A    between atoms: CA_10  and  C_11
REMARK    9  A    between atoms: CA_10  and  C_13
REMARK                            x       y       z     vdW  Elec       q    Type
REMARK                         _______ _______ _______ _____ _____    ______ ____
ROOT
ATOM      1  C   UNL     1       1.851   5.798  -4.205  0.00  0.00    +0.107 C 
ENDROOT
BRANCH   1   2
ATOM      2  C   UNL     1       0.517   5.395  -3.658  0.00  0.00    +0.107 C 
BRANCH   2   3
ATOM      3  N   UNL     1      -0.590   5.608  -4.535  0.00  0.00    -0.215 NA
BRANCH   3   4
ATOM      4  CA  UNL     1      -1.629   6.493  -3.704  0.00  0.00    +0.106 C 
BRANCH   4   5
ATOM      5  C   UNL     1      -2.271   7.115  -5.108  0.00  0.00    +0.020 C 
ATOM      6  C   UNL     1      -2.325   5.956  -6.050  0.00  0.00    +0.002 C 
ENDBRANCH   4   5
BRANCH   4   7
ATOM      7  C   UNL     1      -2.803   5.314  -3.665  0.00  0.00    +0.199 C 
ATOM      8  O   UNL     1      -2.747   4.749  -2.426  0.00  0.00    -0.219 OA
ENDBRANCH   4   7
ENDBRANCH   3   4
ENDBRANCH   2   3
ENDBRANCH   1   2
BRANCH   1   9
ATOM      9  N   UNL     1       1.734   5.966  -5.624  0.00  0.00    -0.215 NA
BRANCH   9  10
ATOM     10  CA  UNL     1       2.893   6.982  -6.033  0.00  0.00    +0.106 C 
BRANCH  10  12
ATOM     11  C   UNL     1       4.306   5.710  -6.947  0.00  0.00    +0.002 C 
ATOM     12  C   UNL     1       3.938   5.741  -6.414  0.00  0.00    +0.020 C 
ENDBRANCH  10  12
BRANCH  10  13
ATOM     13  C   UNL     1       2.330   7.047  -7.599  0.00  0.00    +0.199 C 
ATOM     14  O   UNL     1       2.140   8.388  -7.844  0.00  0.00    -0.219 OA
ENDBRANCH  10  13
ENDBRANCH   9  10
ENDBRANCH   1   9
TORSDOF 9
ENDMDL
MODEL 5
REMARK VINA RESULT:      -4.8      4.206      6.510
REMARK  Name = 
REMARK  9 active torsions:
REMARK  status: ('A' for Active; 'I' for Inactive)
REMARK    1  A    between atoms: C_2  and  CA_3
REMARK    2  A    between atoms: CA_3  and  C_4
REMARK    3  A    between atoms: CA_3  and  N_6
REMARK    4  A    between atoms: N_6  and  C_7
REMARK    5  A    between atoms: C_7  and  C_8
REMARK    6  A    between atoms: C_8  and  N_9
REMARK    7  A    between atoms: N_9  and  CA_10
REMARK    8  A    between atoms: CA_10  and  C_11
REMARK    9  A    between atoms: CA_10  and  C_13
REMARK                            x       y       z     vdW  Elec       q    Type
REMARK                         _______ _______ _______ _____ _____    ______ ____
ROOT
ATOM      1  C   UNL     1       3.484   5.695  -9.931  0.00  0.00    +0.107 C 
ENDROOT
BRANCH   1   2
ATOM      2  C   UNL     1       4.443   6.222 -10.953  0.00  0.00    +0.107 C 
BRANCH   2   3
ATOM      3  N   UNL     1       5.630   5.448 -11.131  0.00  0.00    -0.215 NA
BRANCH   3   4
ATOM      4  CA  UNL     1       6.679   6.429 -11.831  0.00  0.00    +0.106 C 
BRANCH   4   5
ATOM      5  C   UNL     1       7.235   6.944 -10.349  0.00  0.00    +0.020 C 
ATOM      6  C   UNL     1       7.568   5.691  -9.609  0.00  0.00    +0.002 C 
ENDBRANCH   4   5
BRANCH   4   7
ATOM      7  C   UNL     1       7.889   5.290 -11.912  0.00  0.00    +0.199 C 
ATOM      8  O   UNL     1       7.736   4.641 -13.101  0.00  0.00    -0.219 OA
ENDBRANCH   4   7
ENDBRANCH   3   4
ENDBRANCH   2   3
ENDBRANCH   1   2
BRANCH   1   9
ATOM      9  N   UNL     1       3.340   6.671  -8.891  0.00  0.00    -0.215 NA
BRANCH   9  10
ATOM     10  CA  UNL     1       2.765   5.876  -7.633  0.00  0.00    +0.106 C 
BRANCH  10  12
ATOM     11  C   UNL     1       4.372   5.675  -6.282  0.00  0.00    +0.002 C 
ATOM     12  C   UNL     1       4.263   5.811  -6.906  0.00  0.00    +0.020 C 
ENDBRANCH  10  12
BRANCH  10  13
ATOM     13  C   UNL     1       2.402   7.303  -6.856  0.00  0.00    +0.199 C 
ATOM     14  O   UNL     1       2.271   8.227  -7.868  0.00  0.00    -0.219 OA
ENDBRANCH  10  13
ENDBRANCH   9  10
ENDBRANCH   1   9
TORSDOF 9
ENDMDL
MODEL 6
REMARK VINA RESULT:      -4.8      1.369      1.679
REMARK  Name = 
REMARK  9 active torsions:
REMARK  status: ('A' for Active; 'I' for Inactive)
REMARK    1  A    between atoms: C_2  and  CA_3
REMARK    2  A    between atoms: CA_3  and  C_4
REMARK    3  A    between atoms: CA_3  and  N_6
REMARK    4  A    between atoms: N_6  and  C_7
REMARK    5  A    between atoms: C_7  and  C_8
REMARK    6  A    between atoms: C_8  and  N_9
REMARK    7  A    between atoms: N_9  and  CA_10
REMARK    8  A    between atoms: CA_10  and  C_11
REMARK    9  A    between atoms: CA_10  and  C_13
REMARK                            x       y       z     vdW  Elec       q    Type
REMARK                         _______ _______ _______ _____ _____    ______ ____
ROOT
ATOM      1  C   UNL     1       0.360   5.054  -5.373  0.00  0.00    +0.107 C 
ENDROOT
BRANCH   1   2
ATOM      2  C   UNL     1       1.100   5.520  -4.158  0.00  0.00    +0.107 C 
BRANCH   2   3
ATOM      3  N   UNL     1       2.517   5.348  -4.205  0.00  0.00    -0.215 NA
BRANCH   3   4
ATOM      4  CA  UNL     1       3.129   6.824  -4.159  0.00  0.00    +0.106 C 
BRANCH   4   5
ATOM      5  C   UNL     1       4.542   6.252  -3.491  0.00  0.00    +0.020 C 
ATOM      6  C   UNL     1       4.785   4.945  -4.172  0.00  0.00    +0.002 C 
ENDBRANCH   4   5
BRANCH   4   7
ATOM      7  C   UNL     1       3.791   6.738  -5.683  0.00  0.00    +0.199 C 
ATOM      8  O   UNL     1       3.012   7.512  -6.491  0.00  0.00    -0.219 OA
ENDBRANCH   4   7
ENDBRANCH   3   4
ENDBRANCH   2   3
ENDBRANCH   1   2
BRANCH   1   9
ATOM      9  N   UNL     1      -0.945   5.646  -5.371  0.00  0.00    -0.215 NA
BRANCH   9  10
ATOM     10  CA  UNL     1      -1.162   6.202  -3.891  0.00  0.00    +0.106 C 
BRANCH  10  12
ATOM     11  C   UNL     1      -2.349   7.648  -4.866  0.00  0.00    +0.002 C 
ATOM     12  C   UNL     1      -1.852   7.612  -4.451  0.00  0.00    +0.020 C 
ENDBRANCH  10  12
BRANCH  10  13
ATOM     13  C   UNL     1      -2.650   5.461  -3.795  0.00  0.00    +0.199 C 
ATOM     14  O   UNL     1      -2.603   4.737  -2.625  0.00  0.00    -0.219 OA
ENDBRANCH  10  13
ENDBRANCH   9  10
ENDBRANCH   1   9
TORSDOF 9
ENDMDL
MODEL 7
REMARK VINA RESULT:      -4.8      1.810      6.114
REMARK  Name = 
REMARK  9 active torsions:
REMARK  status: ('A' for Active; 'I' for Inactive)
REMARK    1  A    between atoms: C_2  and  CA_3
REMARK    2  A    between atoms: CA_3  and  C_4
REMARK    3  A    between atoms: CA_3  and  N_6
REMARK    4  A    between atoms: N_6  and  C_7
REMARK    5  A    between atoms: C_7  and  C_8
REMARK    6  A    between atoms: C_8  and  N_9
REMARK    7  A    between atoms: N_9  and  CA_10
REMARK    8  A    between atoms: CA_10  and  C_11
REMARK    9  A    between atoms: CA_10  and  C_13
REMARK                            x       y       z     vdW  Elec       q    Type
REMARK                         _______ _______ _______ _____ _____    ______ ____
ROOT
ATOM      1  C   UNL     1       1.730   5.552  -4.442  0.00  0.00    +0.107 C 
ENDROOT
BRANCH   1   2
ATOM      2  C   UNL     1       0.494   6.354  -4.177  0.00  0.00    +0.107 C 
BRANCH   2   3
ATOM      3  N   UNL     1      -0.738   5.665  -4.396  0.00  0.00    -0.215 NA
BRANCH   3   4
ATOM      4  CA  UNL     1      -1.869   6.601  -3.765  0.00  0.00    +0.106 C 
BRANCH   4   5
ATOM      5  C   UNL     1      -2.429   7.001  -5.281  0.00  0.00    +0.020 C 
ATOM      6  C   UNL     1      -2.501   5.703  -6.017  0.00  0.00    +0.002 C 
ENDBRANCH   4   5
BRANCH   4   7
ATOM      7  C   UNL     1      -2.996   5.383  -3.647  0.00  0.00    +0.199 C 
ATOM      8  O   UNL     1      -2.692   4.677  -2.522  0.00  0.00    -0.219 OA
ENDBRANCH   4   7
ENDBRANCH   3   4
ENDBRANCH   2   3
ENDBRANCH   1   2
BRANCH   1   9
ATOM      9  N   UNL     1       2.868   6.302  -4.000  0.00  0.00    -0.215 NA
BRANCH   9  10
ATOM     10  CA  UNL     1       3.515   6.920  -5.321  0.00  0.00    +0.106 C 
BRANCH  10  12
ATOM     11  C   UNL     1       4.878   7.822  -3.988  0.00  0.00    +0.002 C 
ATOM     12  C   UNL     1       4.874   7.423  -4.499  0.00  0.00    +0.020 C 
ENDBRANCH  10  12
BRANCH  10  13
ATOM     13  C   UNL     1       4.226   5.462  -5.695  0.00  0.00    +0.199 C 
ATOM     14  O   UNL     1       4.705   5.628  -6.974  0.00  0.00    -0.219 OA
ENDBRANCH  10  13
ENDBRANCH   9  10
ENDBRANCH   1   9
TORSDOF 9
ENDMDL
MODEL 8
REMARK VINA RESULT:      -4.7      1.556      2.091
REMARK  Name = 
REMARK  9 active torsions:
REMARK  status: ('A' for Active; 'I' for Inactive)
REMARK    1  A    between atoms: C_2  and  CA_3
REMARK    2  A    between atoms: CA_3  and  C_4
REMARK    3  A    between atoms: CA_3  and  N_6
REMARK    4  A    between atoms: N_6  and  C_7
REMARK    5  A    between atoms: C_7  and  C_8
REMARK    6  A    between atoms: C_8  and  N_9
REMARK    7  A    between atoms: N_9  and  CA_10
REMARK    8  A    between atoms: CA_10  and  C_11
REMARK    9  A    between atoms: CA_10  and  C_13
REMARK                            x       y       z     vdW  Elec       q    Type
REMARK                         _______ _______ _______ _____ _____    ______ ____
ROOT
ATOM      1  C   UNL     1       0.678   5.374  -4.118  0.00  0.00    +0.107 C 
ENDROOT
BRANCH   1   2
ATOM      2  C   UNL     1       1.484   5.308  -5.378  0.00  0.00    +0.107 C 
BRANCH   2   3
ATOM      3  N   UNL     1       0.771   4.868  -6.535  0.00  0.00    -0.215 NA
BRANCH   3   4
ATOM      4  CA  UNL     1       1.579   5.455  -7.783  0.00  0.00    +0.106 C 
BRANCH   4   5
ATOM      5  C   UNL     1       0.161   5.719  -8.615  0.00  0.00    +0.020 C 
ATOM      6  C   UNL     1       0.365   5.057  -9.938  0.00  0.00    +0.002 C 
ENDBRANCH   4   5
BRANCH   4   7
ATOM      7  C   UNL     1       1.565   7.021  -7.222  0.00  0.00    +0.199 C 
ATOM      8  O   UNL     1       1.950   7.812  -8.263  0.00  0.00    -0.219 OA
ENDBRANCH   4   7
ENDBRANCH   3   4
ENDBRANCH   2   3
ENDBRANCH   1   2
BRANCH   1   9
ATOM      9  N   UNL     1      -0.709   5.464  -4.465  0.00  0.00    -0.215 NA
BRANCH   9  10
ATOM     10  CA  UNL     1      -1.356   6.457  -3.397  0.00  0.00    +0.106 C 
BRANCH  10  12
ATOM     11  C   UNL     1      -2.380   7.440  -4.957  0.00  0.00    +0.002 C 
ATOM     12  C   UNL     1      -1.855   7.514  -4.584  0.00  0.00    +0.020 C 
ENDBRANCH  10  12
BRANCH  10  13
ATOM     13  C   UNL     1      -2.803   5.636  -3.459  0.00  0.00    +0.199 C 
ATOM     14  O   UNL     1      -2.766   4.785  -2.378  0.00  0.00    -0.219 OA
ENDBRANCH  10  13
ENDBRANCH   9  10
ENDBRANCH   1   9
TORSDOF 9
ENDMDL
MODEL 9
REMARK VINA RESULT:      -4.6      2.792      6.013
REMARK  Name = 
REMARK  9 active torsions:
REMARK  status: ('A' for Active; 'I' for Inactive)
REMARK    1  A    between atoms: C_2  and  CA_3
REMARK    2  A    between atoms: CA_3  and  C_4
REMARK    3  A    between atoms: CA_3  and  N_6
REMARK    4  A    between atoms: N_6  and  C_7
REMARK    5  A    between atoms: C_7  and  C_8
REMARK    6  A    between atoms: C_8  and  N_9
REMARK    7  A    between atoms: N_9  and  CA_10
REMARK    8  A    between atoms: CA_10  and  C_11
REMARK    9  A    between atoms: CA_10  and  C_13
REMARK                            x       y       z     vdW  Elec       q    Type
REMARK                         _______ _______ _______ _____ _____    ______ ____
ROOT
ATOM      1  C   UNL     1       1.974   5.719  -4.065  0.00  0.00    +0.107 C 
ENDROOT
BRANCH   1   2
ATOM      2  C   UNL     1       0.571   5.634  -3.551  0.00  0.00    +0.107 C 
BRANCH   2   3
ATOM      3  N   UNL     1      -0.440   6.063  -4.465  0.00  0.00    -0.215 NA
BRANCH   3   4
ATOM      4  CA  UNL     1      -1.605   6.675  -3.558  0.00  0.00    +0.106 C 
BRANCH   4   5
ATOM      5  C   UNL     1      -2.394   7.252  -4.905  0.00  0.00    +0.020 C 
ATOM      6  C   UNL     1      -2.350   6.126  -5.886  0.00  0.00    +0.002 C 
ENDBRANCH   4   5
BRANCH   4   7
ATOM      7  C   UNL     1      -2.529   5.292  -3.583  0.00  0.00    +0.199 C 
ATOM      8  O   UNL     1      -2.644   4.875  -2.290  0.00  0.00    -0.219 OA
ENDBRANCH   4   7
ENDBRANCH   3   4
ENDBRANCH   2   3
ENDBRANCH   1   2
BRANCH   1   9
ATOM      9  N   UNL     1       2.498   7.017  -3.755  0.00  0.00    -0.215 NA
BRANCH   9  10
ATOM     10  CA  UNL     1       3.897   6.754  -3.034  0.00  0.00    +0.106 C 
BRANCH  10  12
ATOM     11  C   UNL     1       5.338   7.636  -4.297  0.00  0.00    +0.002 C 
ATOM     12  C   UNL     1       4.752   7.359  -4.330  0.00  0.00    +0.020 C 
ENDBRANCH  10  12
BRANCH  10  13
ATOM     13  C   UNL     1       3.845   8.254  -2.313  0.00  0.00    +0.199 C 
ATOM     14  O   UNL     1       4.062   8.004  -0.977  0.00  0.00    -0.219 OA
ENDBRANCH  10  13
ENDBRANCH   9  10
ENDBRANCH   1   9
TORSDOF 9
ENDMDL
