MODEL 1
REMARK VINA RESULT:      -9.6      0.000      0.000
REMARK  Name = 
REMARK  11 active torsions:
REMARK  status: ('A' for Active; 'I' for Inactive)
REMARK    1  A    between atoms: C_2  and  C_3
REMARK    2  A    between atoms: C_3  and  N_5
REMARK    3  A    between atoms: N_8  and  C_9
REMARK    4  A    between atoms: C_12  and  N_13
REMARK    5  A    between atoms: N_16  and  C_17
REMARK    6  A    between atoms: C_20  and  O_21
REMARK    7  A    between atoms: O_21  and  C_22
REMARK    8  A    between atoms: C_22  and  C_23
REMARK    9  A    between atoms: C_26  and  C_27
REMARK   10  A    between atoms: C_26  and  C_33
REMARK   11  A    between atoms: C_27  and  N_28
REMARK                            x       y       z     vdW  Elec       q    Type
REMARK                         _______ _______ _______ _____ _____    ______ ____
ROOT
ATOM      1  C   UNL     1      -1.935   6.615  -3.861  0.00  0.00    +0.048 A 
ATOM      2  C   UNL     1      -2.103   7.744  -3.079  0.00  0.00    +0.018 A 
ATOM      3  C   UNL     1      -1.990   7.701  -1.694  0.00  0.00    +0.038 A 
ATOM      4  C   UNL     1      -1.589   6.497  -1.153  0.00  0.00    +0.139 A 
ATOM      5  C   UNL     1      -2.008   5.359  -1.832  0.00  0.00    +0.038 A 
ATOM      6  C   UNL     1      -2.138   5.405  -3.213  0.00  0.00    +0.018 A 
ENDROOT
BRANCH   1  10
ATOM      7  N   UNL     1       0.938   5.687  -5.131  0.00  0.00    -0.304 N 
ATOM      8  C   UNL     1      -0.167   4.735  -5.223  0.00  0.00    +0.112 C 
ATOM      9  C   UNL     1      -1.358   5.399  -5.903  0.00  0.00    +0.112 C 
ATOM     10  N   UNL     1      -1.543   6.687  -5.237  0.00  0.00    -0.304 N 
ATOM     11  C   UNL     1      -0.445   7.625  -5.477  0.00  0.00    +0.112 C 
ATOM     12  C   UNL     1       0.722   7.058  -4.675  0.00  0.00    +0.112 C 
BRANCH   7  16
ATOM     13  C   UNL     1       3.544   5.315  -8.324  0.00  0.00    +0.070 A 
ATOM     14  C   UNL     1       2.806   4.243  -7.877  0.00  0.00    +0.019 A 
ATOM     15  C   UNL     1       1.931   4.360  -6.832  0.00  0.00    +0.016 A 
ATOM     16  C   UNL     1       1.987   5.536  -6.095  0.00  0.00    +0.048 A 
ATOM     17  C   UNL     1       2.506   6.660  -6.695  0.00  0.00    +0.016 A 
ATOM     18  C   UNL     1       3.170   6.567  -7.913  0.00  0.00    +0.019 A 
BRANCH  13  22
ATOM     19  N   UNL     1       6.021   5.540 -10.767  0.00  0.00    -0.202 N 
ATOM     20  C   UNL     1       4.750   5.493 -10.448  0.00  0.00    +0.352 A 
ATOM     21  O   UNL     1       3.787   5.577 -11.268  0.00  0.00    -0.244 OA
ATOM     22  N   UNL     1       4.710   5.144  -9.138  0.00  0.00    -0.240 N 
ATOM     23  C   UNL     1       5.956   5.370  -8.656  0.00  0.00    +0.207 A 
ATOM     24  N   UNL     1       6.744   5.758  -9.688  0.00  0.00    -0.144 NA
BRANCH  19  25
ATOM     25  C   UNL     1       6.567   6.016 -12.180  0.00  0.00    +0.110 C 
ATOM     26  C   UNL     1       6.900   7.553 -11.630  0.00  0.00    +0.027 C 
BRANCH  25  28
ATOM     27  C   UNL     1       8.392   5.392 -11.896  0.00  0.00    +0.002 C 
ATOM     28  C   UNL     1       8.124   5.508 -11.867  0.00  0.00    +0.025 C 
ENDBRANCH  25  28
ENDBRANCH  19  25
ENDBRANCH  13  22
ENDBRANCH   7  16
ENDBRANCH   1  10
BRANCH   4  29
ATOM     29  O   UNL     1      -0.791   6.434  -0.038  0.00  0.00    -0.473 OA
BRANCH  29  30
ATOM     30  C   UNL     1       0.553   6.695   0.067  0.00  0.00    +0.237 C 
BRANCH  30  31
ATOM     31  C   UNL     1       0.707   8.240   0.703  0.00  0.00    +0.191 C 
ATOM     32  O   UNL     1       1.987   8.538  -0.094  0.00  0.00    -0.325 OA
ATOM     33  C   UNL     1       2.987   8.471   0.786  0.00  0.00    +0.231 C 
ATOM     34  O   UNL     1       2.559   8.539   2.079  0.00  0.00    -0.327 OA
ATOM     35  C   UNL     1       1.545   7.627   2.018  0.00  0.00    +0.178 C 
BRANCH  33  36
ATOM     36  C   UNL     1       3.849   9.683   0.588  0.00  0.00    +0.041 A 
ATOM     37  C   UNL     1       4.734  10.104   1.575  0.00  0.00    +0.059 A 
ATOM     38 CL   UNL     1       5.245   8.966   2.798  0.00  0.00    -0.082 Cl
ATOM     39  C   UNL     1       5.317  11.365   1.535  0.00  0.00    +0.023 A 
ATOM     40  C   UNL     1       4.668  12.364   0.819  0.00  0.00    +0.058 A 
ATOM     41 CL   UNL     1       4.747  14.052   1.294  0.00  0.00    -0.082 Cl
ATOM     42  C   UNL     1       3.954  11.954  -0.277  0.00  0.00    +0.011 A 
ATOM     43  C   UNL     1       3.538  10.649  -0.361  0.00  0.00    +0.002 A 
ENDBRANCH  33  36
BRANCH  33  44
ATOM     44  C   UNL     1       3.771   7.252   0.421  0.00  0.00    +0.190 C 
BRANCH  44  45
ATOM     45  N   UNL     1       3.681   6.844  -0.945  0.00  0.00    -0.225 N 
ATOM     46  N   UNL     1       4.440   7.341  -1.923  0.00  0.00    -0.145 NA
ATOM     47  C   UNL     1       4.517   6.496  -2.951  0.00  0.00    +0.221 A 
ATOM     48  N   UNL     1       4.052   5.335  -2.491  0.00  0.00    -0.201 NA
ATOM     49  C   UNL     1       3.649   5.517  -1.238  0.00  0.00    +0.197 A 
ENDBRANCH  44  45
ENDBRANCH  33  44
ENDBRANCH  30  31
ENDBRANCH  29  30
ENDBRANCH   4  29
TORSDOF 11
ENDMDL
MODEL 2
REMARK VINA RESULT:      -9.2      1.309      1.943
REMARK  Name = 
REMARK  11 active torsions:
REMARK  status: ('A' for Active; 'I' for Inactive)
REMARK    1  A    between atoms: C_2  and  C_3
REMARK    2  A    between atoms: C_3  and  N_5
REMARK    3  A    between atoms: N_8  and  C_9
REMARK    4  A    between atoms: C_12  and  N_13
REMARK    5  A    between atoms: N_16  and  C_17
REMARK    6  A    between atoms: C_20  and  O_21
REMARK    7  A    between atoms: O_21  and  C_22
REMARK    8  A    between atoms: C_22  and  C_23
REMARK    9  A    between atoms: C_26  and  C_27
REMARK   10  A    between atoms: C_26  and  C_33
REMARK   11  A    between atoms: C_27  and  N_28
REMARK                            x       y       z     vdW  Elec       q    Type
REMARK                         _______ _______ _______ _____ _____    ______ ____
ROOT
ATOM      1  C   UNL     1      -1.591   6.328  -4.019  0.00  0.00    +0.048 A 
ATOM      2  C   UNL     1      -2.751   6.834  -3.461  0.00  0.00    +0.018 A 
ATOM      3  C   UNL     1      -2.949   6.873  -2.086  0.00  0.00    +0.038 A 
ATOM      4  C   UNL     1      -1.880   6.484  -1.306  0.00  0.00    +0.139 A 
ATOM      5  C   UNL     1      -1.068   5.493  -1.844  0.00  0.00    +0.038 A 
ATOM      6  C   UNL     1      -0.883   5.443  -3.218  0.00  0.00    +0.018 A 
ENDROOT
BRANCH   1  10
ATOM      7  N   UNL     1       1.145   5.319  -5.509  0.00  0.00    -0.304 N 
ATOM      8  C   UNL     1      -0.096   4.633  -5.864  0.00  0.00    +0.112 C 
ATOM      9  C   UNL     1      -1.130   5.653  -6.323  0.00  0.00    +0.112 C 
ATOM     10  N   UNL     1      -1.132   6.715  -5.319  0.00  0.00    -0.304 N 
ATOM     11  C   UNL     1       0.115   7.482  -5.286  0.00  0.00    +0.112 C 
ATOM     12  C   UNL     1       1.136   6.524  -4.682  0.00  0.00    +0.112 C 
BRANCH   7  16
ATOM     13  C   UNL     1       3.760   5.258  -8.716  0.00  0.00    +0.070 A 
ATOM     14  C   UNL     1       3.050   4.136  -8.353  0.00  0.00    +0.019 A 
ATOM     15  C   UNL     1       2.172   4.151  -7.304  0.00  0.00    +0.016 A 
ATOM     16  C   UNL     1       2.197   5.269  -6.480  0.00  0.00    +0.048 A 
ATOM     17  C   UNL     1       2.686   6.448  -6.994  0.00  0.00    +0.016 A 
ATOM     18  C   UNL     1       3.352   6.464  -8.213  0.00  0.00    +0.019 A 
BRANCH  13  22
ATOM     19  N   UNL     1       6.179   5.654 -11.195  0.00  0.00    -0.202 N 
ATOM     20  C   UNL     1       4.922   5.489 -10.859  0.00  0.00    +0.352 A 
ATOM     21  O   UNL     1       3.949   5.451 -11.670  0.00  0.00    -0.244 OA
ATOM     22  N   UNL     1       4.929   5.180  -9.539  0.00  0.00    -0.240 N 
ATOM     23  C   UNL     1       6.150   5.545  -9.079  0.00  0.00    +0.207 A 
ATOM     24  N   UNL     1       6.886   5.977 -10.131  0.00  0.00    -0.144 NA
BRANCH  19  25
ATOM     25  C   UNL     1       6.662   6.138 -12.628  0.00  0.00    +0.110 C 
ATOM     26  C   UNL     1       6.746   7.734 -12.155  0.00  0.00    +0.027 C 
BRANCH  25  28
ATOM     27  C   UNL     1       8.567   5.884 -12.305  0.00  0.00    +0.002 C 
ATOM     28  C   UNL     1       8.274   5.894 -12.283  0.00  0.00    +0.025 C 
ENDBRANCH  25  28
ENDBRANCH  19  25
ENDBRANCH  13  22
ENDBRANCH   7  16
ENDBRANCH   1  10
BRANCH   4  29
ATOM     29  O   UNL     1      -1.615   7.071  -0.093  0.00  0.00    -0.473 OA
BRANCH  29  30
ATOM     30  C   UNL     1      -1.466   8.406   0.195  0.00  0.00    +0.237 C 
BRANCH  30  31
ATOM     31  C   UNL     1      -0.843   8.509   1.749  0.00  0.00    +0.191 C 
ATOM     32  O   UNL     1       0.477   9.139   1.275  0.00  0.00    -0.325 OA
ATOM     33  C   UNL     1       1.392   8.173   1.364  0.00  0.00    +0.231 C 
ATOM     34  O   UNL     1       0.990   7.133   2.149  0.00  0.00    -0.327 OA
ATOM     35  C   UNL     1      -0.259   6.943   1.629  0.00  0.00    +0.178 C 
BRANCH  33  36
ATOM     36  C   UNL     1       2.595   8.748   2.054  0.00  0.00    +0.041 A 
ATOM     37  C   UNL     1       3.342   9.765   1.469  0.00  0.00    +0.059 A 
ATOM     38 CL   UNL     1       2.611  10.741   0.217  0.00  0.00    -0.082 Cl
ATOM     39  C   UNL     1       4.603  10.103   1.945  0.00  0.00    +0.023 A 
ATOM     40  C   UNL     1       5.315   9.142   2.653  0.00  0.00    +0.058 A 
ATOM     41 CL   UNL     1       7.067   9.054   2.601  0.00  0.00    -0.082 Cl
ATOM     42  C   UNL     1       4.568   8.260   3.391  0.00  0.00    +0.011 A 
ATOM     43  C   UNL     1       3.249   8.058   3.068  0.00  0.00    +0.002 A 
ENDBRANCH  33  36
BRANCH  33  44
ATOM     44  C   UNL     1       1.759   7.827  -0.043  0.00  0.00    +0.190 C 
BRANCH  44  45
ATOM     45  N   UNL     1       2.659   6.728  -0.196  0.00  0.00    -0.225 N 
ATOM     46  N   UNL     1       2.281   5.499  -0.553  0.00  0.00    -0.145 NA
ATOM     47  C   UNL     1       3.296   4.819  -1.086  0.00  0.00    +0.221 A 
ATOM     48  N   UNL     1       4.236   5.727  -1.341  0.00  0.00    -0.201 NA
ATOM     49  C   UNL     1       3.806   6.905  -0.904  0.00  0.00    +0.197 A 
ENDBRANCH  44  45
ENDBRANCH  33  44
ENDBRANCH  30  31
ENDBRANCH  29  30
ENDBRANCH   4  29
TORSDOF 11
ENDMDL
MODEL 3
REMARK VINA RESULT:      -8.9      2.998      4.673
REMARK  Name = 
REMARK  11 active torsions:
REMARK  status: ('A' for Active; 'I' for Inactive)
REMARK    1  A    between atoms: C_2  and  C_3
REMARK    2  A    between atoms: C_3  and  N_5
REMARK    3  A    between atoms: N_8  and  C_9
REMARK    4  A    between atoms: C_12  and  N_13
REMARK    5  A    between atoms: N_16  and  C_17
REMARK    6  A    between atoms: C_20  and  O_21
REMARK    7  A    between atoms: O_21  and  C_22
REMARK    8  A    between atoms: C_22  and  C_23
REMARK    9  A    between atoms: C_26  and  C_27
REMARK   10  A    between atoms: C_26  and  C_33
REMARK   11  A    between atoms: C_27  and  N_28
REMARK                            x       y       z     vdW  Elec       q    Type
REMARK                         _______ _______ _______ _____ _____    ______ ____
ROOT
ATOM      1  C   UNL     1       0.542   5.696  -7.339  0.00  0.00    +0.048 A 
ATOM      2  C   UNL     1       1.016   6.830  -6.705  0.00  0.00    +0.018 A 
ATOM      3  C   UNL     1       0.422   7.330  -5.553  0.00  0.00    +0.038 A 
ATOM      4  C   UNL     1      -0.594   6.568  -5.012  0.00  0.00    +0.139 A 
ATOM      5  C   UNL     1      -1.373   5.865  -5.923  0.00  0.00    +0.038 A 
ATOM      6  C   UNL     1      -0.785   5.380  -7.083  0.00  0.00    +0.018 A 
ENDROOT
BRANCH   1  10
ATOM      7  N   UNL     1       2.337   6.699  -9.889  0.00  0.00    -0.304 N 
ATOM      8  C   UNL     1       3.028   6.547  -8.609  0.00  0.00    +0.112 C 
ATOM      9  C   UNL     1       2.807   5.138  -8.074  0.00  0.00    +0.112 C 
ATOM     10  N   UNL     1       1.372   4.881  -8.176  0.00  0.00    -0.304 N 
ATOM     11  C   UNL     1       0.896   4.801  -9.558  0.00  0.00    +0.112 C 
ATOM     12  C   UNL     1       0.963   6.237 -10.069  0.00  0.00    +0.112 C 
BRANCH   7  16
ATOM     13  C   UNL     1       4.884   5.947 -13.063  0.00  0.00    +0.070 A 
ATOM     14  C   UNL     1       5.349   6.495 -11.889  0.00  0.00    +0.019 A 
ATOM     15  C   UNL     1       4.518   6.733 -10.830  0.00  0.00    +0.016 A 
ATOM     16  C   UNL     1       3.153   6.617 -11.063  0.00  0.00    +0.048 A 
ATOM     17  C   UNL     1       2.734   5.831 -12.111  0.00  0.00    +0.016 A 
ATOM     18  C   UNL     1       3.646   5.361 -13.050  0.00  0.00    +0.019 A 
BRANCH  13  22
ATOM     19  N   UNL     1       6.195   6.861 -16.161  0.00  0.00    -0.202 N 
ATOM     20  C   UNL     1       5.153   6.665 -15.388  0.00  0.00    +0.352 A 
ATOM     21  O   UNL     1       3.947   6.866 -15.722  0.00  0.00    -0.244 OA
ATOM     22  N   UNL     1       5.625   6.034 -14.285  0.00  0.00    -0.240 N 
ATOM     23  C   UNL     1       6.967   6.227 -14.293  0.00  0.00    +0.207 A 
ATOM     24  N   UNL     1       7.293   6.881 -15.433  0.00  0.00    -0.144 NA
BRANCH  19  25
ATOM     25  C   UNL     1       6.150   7.671 -17.527  0.00  0.00    +0.110 C 
ATOM     26  C   UNL     1       7.718   8.209 -17.358  0.00  0.00    +0.027 C 
BRANCH  25  28
ATOM     27  C   UNL     1       6.653   6.157 -18.645  0.00  0.00    +0.002 C 
ATOM     28  C   UNL     1       6.640   6.364 -18.438  0.00  0.00    +0.025 C 
ENDBRANCH  25  28
ENDBRANCH  19  25
ENDBRANCH  13  22
ENDBRANCH   7  16
ENDBRANCH   1  10
BRANCH   4  29
ATOM     29  O   UNL     1      -0.792   6.481  -3.656  0.00  0.00    -0.473 OA
BRANCH  29  30
ATOM     30  C   UNL     1      -0.756   5.364  -2.858  0.00  0.00    +0.237 C 
BRANCH  30  31
ATOM     31  C   UNL     1      -0.213   5.854  -1.348  0.00  0.00    +0.191 C 
ATOM     32  O   UNL     1       0.980   6.630  -1.930  0.00  0.00    -0.325 OA
ATOM     33  C   UNL     1       2.057   5.886  -1.671  0.00  0.00    +0.231 C 
ATOM     34  O   UNL     1       1.831   4.943  -0.713  0.00  0.00    -0.327 OA
ATOM     35  C   UNL     1       0.657   4.431  -1.188  0.00  0.00    +0.178 C 
BRANCH  33  36
ATOM     36  C   UNL     1       3.108   6.791  -1.098  0.00  0.00    +0.041 A 
ATOM     37  C   UNL     1       4.219   6.275  -0.440  0.00  0.00    +0.059 A 
ATOM     38 CL   UNL     1       4.683   4.616  -0.730  0.00  0.00    -0.082 Cl
ATOM     39  C   UNL     1       5.039   7.083   0.339  0.00  0.00    +0.023 A 
ATOM     40  C   UNL     1       4.501   8.255   0.859  0.00  0.00    +0.058 A 
ATOM     41 CL   UNL     1       5.016   8.912   2.403  0.00  0.00    -0.082 Cl
ATOM     42  C   UNL     1       3.538   8.866   0.098  0.00  0.00    +0.011 A 
ATOM     43  C   UNL     1       2.847   8.130  -0.834  0.00  0.00    +0.002 A 
ENDBRANCH  33  36
BRANCH  33  44
ATOM     44  C   UNL     1       2.526   5.374  -2.994  0.00  0.00    +0.190 C 
BRANCH  44  45
ATOM     45  N   UNL     1       3.620   6.082  -3.580  0.00  0.00    -0.225 N 
ATOM     46  N   UNL     1       4.575   5.505  -4.312  0.00  0.00    -0.145 NA
ATOM     47  C   UNL     1       5.165   6.388  -5.117  0.00  0.00    +0.221 A 
ATOM     48  N   UNL     1       4.372   7.459  -5.110  0.00  0.00    -0.201 NA
ATOM     49  C   UNL     1       3.374   7.231  -4.264  0.00  0.00    +0.197 A 
ENDBRANCH  44  45
ENDBRANCH  33  44
ENDBRANCH  30  31
ENDBRANCH  29  30
ENDBRANCH   4  29
TORSDOF 11
ENDMDL
MODEL 4
REMARK VINA RESULT:      -8.4      4.451      6.840
REMARK  Name = 
REMARK  11 active torsions:
REMARK  status: ('A' for Active; 'I' for Inactive)
REMARK    1  A    between atoms: C_2  and  C_3
REMARK    2  A    between atoms: C_3  and  N_5
REMARK    3  A    between atoms: N_8  and  C_9
REMARK    4  A    between atoms: C_12  and  N_13
REMARK    5  A    between atoms: N_16  and  C_17
REMARK    6  A    between atoms: C_20  and  O_21
REMARK    7  A    between atoms: O_21  and  C_22
REMARK    8  A    between atoms: C_22  and  C_23
REMARK    9  A    between atoms: C_26  and  C_27
REMARK   10  A    between atoms: C_26  and  C_33
REMARK   11  A    between atoms: C_27  and  N_28
REMARK                            x       y       z     vdW  Elec       q    Type
REMARK                         _______ _______ _______ _____ _____    ______ ____
ROOT
ATOM      1  C   UNL     1       3.507   5.824  -5.681  0.00  0.00    +0.048 A 
ATOM      2  C   UNL     1       4.377   4.890  -5.148  0.00  0.00    +0.018 A 
ATOM      3  C   UNL     1       4.981   5.070  -3.910  0.00  0.00    +0.038 A 
ATOM      4  C   UNL     1       4.577   6.177  -3.192  0.00  0.00    +0.139 A 
ATOM      5  C   UNL     1       4.231   7.293  -3.943  0.00  0.00    +0.038 A 
ATOM      6  C   UNL     1       3.644   7.114  -5.188  0.00  0.00    +0.018 A 
ENDROOT
BRANCH   1  10
ATOM      7  N   UNL     1       3.647   6.353  -8.910  0.00  0.00    -0.304 N 
ATOM      8  C   UNL     1       4.023   5.022  -8.438  0.00  0.00    +0.112 C 
ATOM      9  C   UNL     1       2.893   4.438  -7.600  0.00  0.00    +0.112 C 
ATOM     10  N   UNL     1       2.509   5.480  -6.649  0.00  0.00    -0.304 N 
ATOM     11  C   UNL     1       1.896   6.647  -7.286  0.00  0.00    +0.112 C 
ATOM     12  C   UNL     1       3.049   7.336  -8.009  0.00  0.00    +0.112 C 
BRANCH   7  16
ATOM     13  C   UNL     1       2.464   6.028 -12.862  0.00  0.00    +0.070 A 
ATOM     14  C   UNL     1       3.794   6.118 -12.521  0.00  0.00    +0.019 A 
ATOM     15  C   UNL     1       4.195   6.210 -11.217  0.00  0.00    +0.016 A 
ATOM     16  C   UNL     1       3.205   6.442 -10.270  0.00  0.00    +0.048 A 
ATOM     17  C   UNL     1       1.913   6.085 -10.575  0.00  0.00    +0.016 A 
ATOM     18  C   UNL     1       1.567   5.725 -11.872  0.00  0.00    +0.019 A 
BRANCH  13  22
ATOM     19  N   UNL     1       1.068   7.440 -15.729  0.00  0.00    -0.202 N 
ATOM     20  C   UNL     1       0.980   7.155 -14.451  0.00  0.00    +0.352 A 
ATOM     21  O   UNL     1       0.015   7.478 -13.696  0.00  0.00    -0.244 OA
ATOM     22  N   UNL     1       2.003   6.305 -14.190  0.00  0.00    -0.240 N 
ATOM     23  C   UNL     1       2.861   6.427 -15.232  0.00  0.00    +0.207 A 
ATOM     24  N   UNL     1       2.308   7.266 -16.140  0.00  0.00    -0.144 NA
BRANCH  19  25
ATOM     25  C   UNL     1       0.141   8.493 -16.473  0.00  0.00    +0.110 C 
ATOM     26  C   UNL     1       1.049   8.435 -17.868  0.00  0.00    +0.027 C 
BRANCH  25  28
ATOM     27  C   UNL     1      -1.150   7.184 -17.122  0.00  0.00    +0.002 C 
ATOM     28  C   UNL     1      -0.906   7.326 -17.041  0.00  0.00    +0.025 C 
ENDBRANCH  25  28
ENDBRANCH  19  25
ENDBRANCH  13  22
ENDBRANCH   7  16
ENDBRANCH   1  10
BRANCH   4  29
ATOM     29  O   UNL     1       4.485   6.158  -1.822  0.00  0.00    -0.473 OA
BRANCH  29  30
ATOM     30  C   UNL     1       3.428   5.754  -1.042  0.00  0.00    +0.237 C 
BRANCH  30  31
ATOM     31  C   UNL     1       2.375   4.909  -2.038  0.00  0.00    +0.191 C 
ATOM     32  O   UNL     1       1.644   6.182  -2.495  0.00  0.00    -0.325 OA
ATOM     33  C   UNL     1       0.472   6.174  -1.860  0.00  0.00    +0.231 C 
ATOM     34  O   UNL     1       0.153   4.950  -1.350  0.00  0.00    -0.327 OA
ATOM     35  C   UNL     1       1.341   4.655  -0.744  0.00  0.00    +0.178 C 
BRANCH  33  36
ATOM     36  C   UNL     1      -0.596   6.473  -2.872  0.00  0.00    +0.041 A 
ATOM     37  C   UNL     1      -1.873   5.935  -2.750  0.00  0.00    +0.059 A 
ATOM     38 CL   UNL     1      -2.408   5.366  -1.187  0.00  0.00    -0.082 Cl
ATOM     39  C   UNL     1      -2.773   5.959  -3.809  0.00  0.00    +0.023 A 
ATOM     40  C   UNL     1      -2.264   6.059  -5.099  0.00  0.00    +0.058 A 
ATOM     41 CL   UNL     1      -3.061   5.315  -6.474  0.00  0.00    -0.082 Cl
ATOM     42  C   UNL     1      -1.098   6.767  -5.234  0.00  0.00    +0.011 A 
ATOM     43  C   UNL     1      -0.281   6.936  -4.144  0.00  0.00    +0.002 A 
ENDBRANCH  33  36
BRANCH  33  44
ATOM     44  C   UNL     1       0.533   7.296  -0.875  0.00  0.00    +0.190 C 
BRANCH  44  45
ATOM     45  N   UNL     1      -0.493   7.305   0.120  0.00  0.00    -0.225 N 
ATOM     46  N   UNL     1      -0.301   6.954   1.392  0.00  0.00    -0.145 NA
ATOM     47  C   UNL     1      -1.225   7.493   2.186  0.00  0.00    +0.221 A 
ATOM     48  N   UNL     1      -1.821   8.431   1.450  0.00  0.00    -0.201 NA
ATOM     49  C   UNL     1      -1.300   8.393   0.229  0.00  0.00    +0.197 A 
ENDBRANCH  44  45
ENDBRANCH  33  44
ENDBRANCH  30  31
ENDBRANCH  29  30
ENDBRANCH   4  29
TORSDOF 11
ENDMDL
MODEL 5
REMARK VINA RESULT:      -7.8      3.997      6.873
REMARK  Name = 
REMARK  11 active torsions:
REMARK  status: ('A' for Active; 'I' for Inactive)
REMARK    1  A    between atoms: C_2  and  C_3
REMARK    2  A    between atoms: C_3  and  N_5
REMARK    3  A    between atoms: N_8  and  C_9
REMARK    4  A    between atoms: C_12  and  N_13
REMARK    5  A    between atoms: N_16  and  C_17
REMARK    6  A    between atoms: C_20  and  O_21
REMARK    7  A    between atoms: O_21  and  C_22
REMARK    8  A    between atoms: C_22  and  C_23
REMARK    9  A    between atoms: C_26  and  C_27
REMARK   10  A    between atoms: C_26  and  C_33
REMARK   11  A    between atoms: C_27  and  N_28
REMARK                            x       y       z     vdW  Elec       q    Type
REMARK                         _______ _______ _______ _____ _____    ______ ____
ROOT
ATOM      1  C   UNL     1       4.135   7.746   1.448  0.00  0.00    +0.048 A 
ATOM      2  C   UNL     1       3.492   8.749   2.151  0.00  0.00    +0.018 A 
ATOM      3  C   UNL     1       4.181   9.831   2.684  0.00  0.00    +0.038 A 
ATOM      4  C   UNL     1       5.524   9.909   2.377  0.00  0.00    +0.139 A 
ATOM      5  C   UNL     1       6.182   8.694   2.232  0.00  0.00    +0.038 A 
ATOM      6  C   UNL     1       5.490   7.607   1.715  0.00  0.00    +0.018 A 
ENDROOT
BRANCH   1  10
ATOM      7  N   UNL     1       4.253   8.056  -1.810  0.00  0.00    -0.304 N 
ATOM      8  C   UNL     1       5.142   7.067  -1.205  0.00  0.00    +0.112 C 
ATOM      9  C   UNL     1       4.328   6.102  -0.352  0.00  0.00    +0.112 C 
ATOM     10  N   UNL     1       3.460   6.928   0.485  0.00  0.00    -0.304 N 
ATOM     11  C   UNL     1       2.443   7.655  -0.277  0.00  0.00    +0.112 C 
ATOM     12  C   UNL     1       3.223   8.732  -1.024  0.00  0.00    +0.112 C 
BRANCH   7  16
ATOM     13  C   UNL     1       3.437   6.889  -5.695  0.00  0.00    +0.070 A 
ATOM     14  C   UNL     1       4.714   7.220  -5.303  0.00  0.00    +0.019 A 
ATOM     15  C   UNL     1       4.996   7.591  -4.017  0.00  0.00    +0.016 A 
ATOM     16  C   UNL     1       3.913   7.846  -3.186  0.00  0.00    +0.048 A 
ATOM     17  C   UNL     1       2.703   7.267  -3.491  0.00  0.00    +0.016 A 
ATOM     18  C   UNL     1       2.510   6.643  -4.718  0.00  0.00    +0.019 A 
BRANCH  13  22
ATOM     19  N   UNL     1       2.136   6.075  -8.826  0.00  0.00    -0.202 N 
ATOM     20  C   UNL     1       2.784   5.716  -7.743  0.00  0.00    +0.352 A 
ATOM     21  O   UNL     1       3.216   4.549  -7.503  0.00  0.00    -0.244 OA
ATOM     22  N   UNL     1       3.052   6.865  -7.075  0.00  0.00    -0.240 N 
ATOM     23  C   UNL     1       2.226   7.801  -7.601  0.00  0.00    +0.207 A 
ATOM     24  N   UNL     1       1.547   7.237  -8.629  0.00  0.00    -0.144 NA
BRANCH  19  25
ATOM     25  C   UNL     1       1.515   5.053  -9.871  0.00  0.00    +0.110 C 
ATOM     26  C   UNL     1       0.161   5.994 -10.114  0.00  0.00    +0.027 C 
BRANCH  25  28
ATOM     27  C   UNL     1       2.408   5.792 -11.438  0.00  0.00    +0.002 C 
ATOM     28  C   UNL     1       2.296   5.747 -11.171  0.00  0.00    +0.025 C 
ENDBRANCH  25  28
ENDBRANCH  19  25
ENDBRANCH  13  22
ENDBRANCH   7  16
ENDBRANCH   1  10
BRANCH   4  29
ATOM     29  O   UNL     1       6.155  11.113   2.186  0.00  0.00    -0.473 OA
BRANCH  29  30
ATOM     30  C   UNL     1       5.748  12.363   2.584  0.00  0.00    +0.237 C 
BRANCH  30  31
ATOM     31  C   UNL     1       5.141  13.139   1.226  0.00  0.00    +0.191 C 
ATOM     32  O   UNL     1       6.473  13.043   0.465  0.00  0.00    -0.325 OA
ATOM     33  C   UNL     1       6.992  14.271   0.486  0.00  0.00    +0.231 C 
ATOM     34  O   UNL     1       6.075  15.228   0.807  0.00  0.00    -0.327 OA
ATOM     35  C   UNL     1       5.514  14.628   1.898  0.00  0.00    +0.178 C 
BRANCH  33  36
ATOM     36  C   UNL     1       7.437  14.601  -0.909  0.00  0.00    +0.041 A 
ATOM     37  C   UNL     1       7.865  15.881  -1.244  0.00  0.00    +0.059 A 
ATOM     38 CL   UNL     1       8.397  16.956   0.026  0.00  0.00    -0.082 Cl
ATOM     39  C   UNL     1       8.000  16.276  -2.570  0.00  0.00    +0.023 A 
ATOM     40  C   UNL     1       7.260  15.599  -3.533  0.00  0.00    +0.058 A 
ATOM     41 CL   UNL     1       6.670  16.394  -4.982  0.00  0.00    -0.082 Cl
ATOM     42  C   UNL     1       7.013  14.275  -3.283  0.00  0.00    +0.011 A 
ATOM     43  C   UNL     1       7.075  13.809  -1.993  0.00  0.00    +0.002 A 
ENDBRANCH  33  36
BRANCH  33  44
ATOM     44  C   UNL     1       8.193  14.192   1.372  0.00  0.00    +0.190 C 
BRANCH  44  45
ATOM     45  N   UNL     1       9.175  13.223   1.000  0.00  0.00    -0.225 N 
ATOM     46  N   UNL     1      10.382  13.530   0.524  0.00  0.00    -0.145 NA
ATOM     47  C   UNL     1      11.245  12.533   0.716  0.00  0.00    +0.221 A 
ATOM     48  N   UNL     1      10.653  11.716   1.587  0.00  0.00    -0.201 NA
ATOM     49  C   UNL     1       9.441  12.193   1.846  0.00  0.00    +0.197 A 
ENDBRANCH  44  45
ENDBRANCH  33  44
ENDBRANCH  30  31
ENDBRANCH  29  30
ENDBRANCH   4  29
TORSDOF 11
ENDMDL
MODEL 6
REMARK VINA RESULT:      -7.8      1.552      2.227
REMARK  Name = 
REMARK  11 active torsions:
REMARK  status: ('A' for Active; 'I' for Inactive)
REMARK    1  A    between atoms: C_2  and  C_3
REMARK    2  A    between atoms: C_3  and  N_5
REMARK    3  A    between atoms: N_8  and  C_9
REMARK    4  A    between atoms: C_12  and  N_13
REMARK    5  A    between atoms: N_16  and  C_17
REMARK    6  A    between atoms: C_20  and  O_21
REMARK    7  A    between atoms: O_21  and  C_22
REMARK    8  A    between atoms: C_22  and  C_23
REMARK    9  A    between atoms: C_26  and  C_27
REMARK   10  A    between atoms: C_26  and  C_33
REMARK   11  A    between atoms: C_27  and  N_28
REMARK                            x       y       z     vdW  Elec       q    Type
REMARK                         _______ _______ _______ _____ _____    ______ ____
ROOT
ATOM      1  C   UNL     1      -2.571   6.475  -3.474  0.00  0.00    +0.048 A 
ATOM      2  C   UNL     1      -2.596   7.635  -2.722  0.00  0.00    +0.018 A 
ATOM      3  C   UNL     1      -2.093   7.682  -1.427  0.00  0.00    +0.038 A 
ATOM      4  C   UNL     1      -1.465   6.539  -0.976  0.00  0.00    +0.139 A 
ATOM      5  C   UNL     1      -1.972   5.339  -1.461  0.00  0.00    +0.038 A 
ATOM      6  C   UNL     1      -2.490   5.295  -2.748  0.00  0.00    +0.018 A 
ENDROOT
BRANCH   1  10
ATOM      7  N   UNL     1       0.020   6.328  -5.471  0.00  0.00    -0.304 N 
ATOM      8  C   UNL     1      -0.689   5.077  -5.212  0.00  0.00    +0.112 C 
ATOM      9  C   UNL     1      -2.165   5.247  -5.550  0.00  0.00    +0.112 C 
ATOM     10  N   UNL     1      -2.592   6.488  -4.907  0.00  0.00    -0.304 N 
ATOM     11  C   UNL     1      -1.969   7.681  -5.482  0.00  0.00    +0.112 C 
ATOM     12  C   UNL     1      -0.516   7.612  -5.023  0.00  0.00    +0.112 C 
BRANCH   7  16
ATOM     13  C   UNL     1       2.667   6.347  -8.653  0.00  0.00    +0.070 A 
ATOM     14  C   UNL     1       2.562   7.427  -7.806  0.00  0.00    +0.019 A 
ATOM     15  C   UNL     1       1.702   7.423  -6.743  0.00  0.00    +0.016 A 
ATOM     16  C   UNL     1       0.776   6.389  -6.687  0.00  0.00    +0.048 A 
ATOM     17  C   UNL     1       1.063   5.219  -7.352  0.00  0.00    +0.016 A 
ATOM     18  C   UNL     1       2.127   5.157  -8.244  0.00  0.00    +0.019 A 
BRANCH  13  22
ATOM     19  N   UNL     1       4.600   5.966 -11.529  0.00  0.00    -0.202 N 
ATOM     20  C   UNL     1       4.523   6.050 -10.222  0.00  0.00    +0.352 A 
ATOM     21  O   UNL     1       5.502   5.944  -9.425  0.00  0.00    -0.244 OA
ATOM     22  N   UNL     1       3.259   6.459  -9.952  0.00  0.00    -0.240 N 
ATOM     23  C   UNL     1       2.546   6.234 -11.082  0.00  0.00    +0.207 A 
ATOM     24  N   UNL     1       3.397   5.785 -12.036  0.00  0.00    -0.144 NA
BRANCH  19  25
ATOM     25  C   UNL     1       5.866   5.415 -12.313  0.00  0.00    +0.110 C 
ATOM     26  C   UNL     1       5.070   5.421 -13.777  0.00  0.00    +0.027 C 
BRANCH  25  28
ATOM     27  C   UNL     1       6.560   7.192 -12.712  0.00  0.00    +0.002 C 
ATOM     28  C   UNL     1       6.490   6.937 -12.586  0.00  0.00    +0.025 C 
ENDBRANCH  25  28
ENDBRANCH  19  25
ENDBRANCH  13  22
ENDBRANCH   7  16
ENDBRANCH   1  10
BRANCH   4  29
ATOM     29  O   UNL     1      -0.382   6.591  -0.134  0.00  0.00    -0.473 OA
BRANCH  29  30
ATOM     30  C   UNL     1       0.732   7.390  -0.225  0.00  0.00    +0.237 C 
BRANCH  30  31
ATOM     31  C   UNL     1       1.626   7.149   1.175  0.00  0.00    +0.191 C 
ATOM     32  O   UNL     1       2.302   8.527   1.087  0.00  0.00    -0.325 OA
ATOM     33  C   UNL     1       3.551   8.294   0.684  0.00  0.00    +0.231 C 
ATOM     34  O   UNL     1       3.922   6.991   0.839  0.00  0.00    -0.327 OA
ATOM     35  C   UNL     1       2.827   6.389   0.288  0.00  0.00    +0.178 C 
BRANCH  33  36
ATOM     36  C   UNL     1       4.471   9.077   1.575  0.00  0.00    +0.041 A 
ATOM     37  C   UNL     1       4.550  10.463   1.487  0.00  0.00    +0.059 A 
ATOM     38 CL   UNL     1       3.233  11.342   0.747  0.00  0.00    -0.082 Cl
ATOM     39  C   UNL     1       5.587  11.168   2.085  0.00  0.00    +0.023 A 
ATOM     40  C   UNL     1       6.777  10.496   2.337  0.00  0.00    +0.058 A 
ATOM     41 CL   UNL     1       8.333  11.305   2.287  0.00  0.00    -0.082 Cl
ATOM     42  C   UNL     1       6.666   9.159   2.621  0.00  0.00    +0.011 A 
ATOM     43  C   UNL     1       5.546   8.475   2.217  0.00  0.00    +0.002 A 
ENDBRANCH  33  36
BRANCH  33  44
ATOM     44  C   UNL     1       3.641   8.838  -0.705  0.00  0.00    +0.190 C 
BRANCH  44  45
ATOM     45  N   UNL     1       3.864   7.873  -1.735  0.00  0.00    -0.225 N 
ATOM     46  N   UNL     1       3.154   7.809  -2.862  0.00  0.00    -0.145 NA
ATOM     47  C   UNL     1       3.834   7.189  -3.826  0.00  0.00    +0.221 A 
ATOM     48  N   UNL     1       5.092   7.132  -3.392  0.00  0.00    -0.201 NA
ATOM     49  C   UNL     1       5.132   7.649  -2.169  0.00  0.00    +0.197 A 
ENDBRANCH  44  45
ENDBRANCH  33  44
ENDBRANCH  30  31
ENDBRANCH  29  30
ENDBRANCH   4  29
TORSDOF 11
ENDMDL
MODEL 7
REMARK VINA RESULT:      -7.8      3.462      5.117
REMARK  Name = 
REMARK  11 active torsions:
REMARK  status: ('A' for Active; 'I' for Inactive)
REMARK    1  A    between atoms: C_2  and  C_3
REMARK    2  A    between atoms: C_3  and  N_5
REMARK    3  A    between atoms: N_8  and  C_9
REMARK    4  A    between atoms: C_12  and  N_13
REMARK    5  A    between atoms: N_16  and  C_17
REMARK    6  A    between atoms: C_20  and  O_21
REMARK    7  A    between atoms: O_21  and  C_22
REMARK    8  A    between atoms: C_22  and  C_23
REMARK    9  A    between atoms: C_26  and  C_27
REMARK   10  A    between atoms: C_26  and  C_33
REMARK   11  A    between atoms: C_27  and  N_28
REMARK                            x       y       z     vdW  Elec       q    Type
REMARK                         _______ _______ _______ _____ _____    ______ ____
ROOT
ATOM      1  C   UNL     1       0.749   5.879  -8.252  0.00  0.00    +0.048 A 
ATOM      2  C   UNL     1      -0.542   5.602  -7.839  0.00  0.00    +0.018 A 
ATOM      3  C   UNL     1      -0.811   5.047  -6.593  0.00  0.00    +0.038 A 
ATOM      4  C   UNL     1       0.269   4.895  -5.749  0.00  0.00    +0.139 A 
ATOM      5  C   UNL     1       1.484   4.616  -6.364  0.00  0.00    +0.038 A 
ATOM      6  C   UNL     1       1.747   5.156  -7.615  0.00  0.00    +0.018 A 
ENDROOT
BRANCH   1  10
ATOM      7  N   UNL     1       2.652   5.507 -10.891  0.00  0.00    -0.304 N 
ATOM      8  C   UNL     1       1.211   5.359 -11.086  0.00  0.00    +0.112 C 
ATOM      9  C   UNL     1       0.496   6.603 -10.574  0.00  0.00    +0.112 C 
ATOM     10  N   UNL     1       1.040   6.871  -9.244  0.00  0.00    -0.304 N 
ATOM     11  C   UNL     1       2.449   7.269  -9.266  0.00  0.00    +0.112 C 
ATOM     12  C   UNL     1       3.201   5.992  -9.627  0.00  0.00    +0.112 C 
BRANCH   7  16
ATOM     13  C   UNL     1       4.922   5.958 -14.322  0.00  0.00    +0.070 A 
ATOM     14  C   UNL     1       5.514   5.741 -13.098  0.00  0.00    +0.019 A 
ATOM     15  C   UNL     1       4.771   5.575 -11.962  0.00  0.00    +0.016 A 
ATOM     16  C   UNL     1       3.415   5.865 -12.050  0.00  0.00    +0.048 A 
ATOM     17  C   UNL     1       2.814   5.810 -13.286  0.00  0.00    +0.016 A 
ATOM     18  C   UNL     1       3.582   5.703 -14.440  0.00  0.00    +0.019 A 
BRANCH  13  22
ATOM     19  N   UNL     1       6.028   7.818 -17.056  0.00  0.00    -0.202 N 
ATOM     20  C   UNL     1       5.059   7.186 -16.436  0.00  0.00    +0.352 A 
ATOM     21  O   UNL     1       3.860   7.112 -16.839  0.00  0.00    -0.244 OA
ATOM     22  N   UNL     1       5.652   6.497 -15.430  0.00  0.00    -0.240 N 
ATOM     23  C   UNL     1       6.879   7.049 -15.275  0.00  0.00    +0.207 A 
ATOM     24  N   UNL     1       7.045   7.989 -16.236  0.00  0.00    -0.144 NA
BRANCH  19  25
ATOM     25  C   UNL     1       5.802   8.847 -18.244  0.00  0.00    +0.110 C 
ATOM     26  C   UNL     1       6.112  10.166 -17.274  0.00  0.00    +0.027 C 
BRANCH  25  28
ATOM     27  C   UNL     1       7.683   8.763 -18.747  0.00  0.00    +0.002 C 
ATOM     28  C   UNL     1       7.390   8.776 -18.747  0.00  0.00    +0.025 C 
ENDBRANCH  25  28
ENDBRANCH  19  25
ENDBRANCH  13  22
ENDBRANCH   7  16
ENDBRANCH   1  10
BRANCH   4  29
ATOM     29  O   UNL     1       0.154   5.051  -4.389  0.00  0.00    -0.473 OA
BRANCH  29  30
ATOM     30  C   UNL     1       1.153   5.096  -3.447  0.00  0.00    +0.237 C 
BRANCH  30  31
ATOM     31  C   UNL     1       0.492   5.769  -2.060  0.00  0.00    +0.191 C 
ATOM     32  O   UNL     1       1.644   6.774  -1.891  0.00  0.00    -0.325 OA
ATOM     33  C   UNL     1       2.380   6.314  -0.878  0.00  0.00    +0.231 C 
ATOM     34  O   UNL     1       1.721   5.390  -0.121  0.00  0.00    -0.327 OA
ATOM     35  C   UNL     1       1.239   4.598  -1.123  0.00  0.00    +0.178 C 
BRANCH  33  36
ATOM     36  C   UNL     1       2.649   7.465   0.047  0.00  0.00    +0.041 A 
ATOM     37  C   UNL     1       1.654   8.385   0.360  0.00  0.00    +0.059 A 
ATOM     38 CL   UNL     1      -0.019   7.935   0.131  0.00  0.00    -0.082 Cl
ATOM     39  C   UNL     1       1.954   9.598   0.968  0.00  0.00    +0.023 A 
ATOM     40  C   UNL     1       3.240  10.105   0.819  0.00  0.00    +0.058 A 
ATOM     41 CL   UNL     1       3.562  11.829   0.765  0.00  0.00    -0.082 Cl
ATOM     42  C   UNL     1       4.245   9.178   0.710  0.00  0.00    +0.011 A 
ATOM     43  C   UNL     1       3.944   7.901   0.305  0.00  0.00    +0.002 A 
ENDBRANCH  33  36
BRANCH  33  44
ATOM     44  C   UNL     1       3.670   5.865  -1.482  0.00  0.00    +0.190 C 
BRANCH  44  45
ATOM     45  N   UNL     1       3.960   6.383  -2.782  0.00  0.00    -0.225 N 
ATOM     46  N   UNL     1       4.569   7.550  -3.000  0.00  0.00    -0.145 NA
ATOM     47  C   UNL     1       5.144   7.577  -4.202  0.00  0.00    +0.221 A 
ATOM     48  N   UNL     1       5.154   6.311  -4.618  0.00  0.00    -0.201 NA
ATOM     49  C   UNL     1       4.536   5.569  -3.705  0.00  0.00    +0.197 A 
ENDBRANCH  44  45
ENDBRANCH  33  44
ENDBRANCH  30  31
ENDBRANCH  29  30
ENDBRANCH   4  29
TORSDOF 11
ENDMDL
MODEL 8
REMARK VINA RESULT:      -7.7      4.653      6.271
REMARK  Name = 
REMARK  11 active torsions:
REMARK  status: ('A' for Active; 'I' for Inactive)
REMARK    1  A    between atoms: C_2  and  C_3
REMARK    2  A    between atoms: C_3  and  N_5
REMARK    3  A    between atoms: N_8  and  C_9
REMARK    4  A    between atoms: C_12  and  N_13
REMARK    5  A    between atoms: N_16  and  C_17
REMARK    6  A    between atoms: C_20  and  O_21
REMARK    7  A    between atoms: O_21  and  C_22
REMARK    8  A    between atoms: C_22  and  C_23
REMARK    9  A    between atoms: C_26  and  C_27
REMARK   10  A    between atoms: C_26  and  C_33
REMARK   11  A    between atoms: C_27  and  N_28
REMARK                            x       y       z     vdW  Elec       q    Type
REMARK                         _______ _______ _______ _____ _____    ______ ____
ROOT
ATOM      1  C   UNL     1       2.594   5.726  -6.456  0.00  0.00    +0.048 A 
ATOM      2  C   UNL     1       2.228   4.738  -5.559  0.00  0.00    +0.018 A 
ATOM      3  C   UNL     1       3.048   4.365  -4.502  0.00  0.00    +0.038 A 
ATOM      4  C   UNL     1       4.196   5.111  -4.329  0.00  0.00    +0.139 A 
ATOM      5  C   UNL     1       4.775   5.609  -5.490  0.00  0.00    +0.038 A 
ATOM      6  C   UNL     1       3.957   5.966  -6.553  0.00  0.00    +0.018 A 
ENDROOT
BRANCH   1  10
ATOM      7  N   UNL     1       2.127   5.619  -9.695  0.00  0.00    -0.304 N 
ATOM      8  C   UNL     1       1.237   4.806  -8.870  0.00  0.00    +0.112 C 
ATOM      9  C   UNL     1       0.566   5.686  -7.822  0.00  0.00    +0.112 C 
ATOM     10  N   UNL     1       1.632   6.475  -7.207  0.00  0.00    -0.304 N 
ATOM     11  C   UNL     1       2.241   7.439  -8.126  0.00  0.00    +0.112 C 
ATOM     12  C   UNL     1       3.048   6.583  -9.097  0.00  0.00    +0.112 C 
BRANCH   7  16
ATOM     13  C   UNL     1       0.893   7.234 -13.300  0.00  0.00    +0.070 A 
ATOM     14  C   UNL     1       0.131   7.366 -12.162  0.00  0.00    +0.019 A 
ATOM     15  C   UNL     1       0.539   6.850 -10.963  0.00  0.00    +0.016 A 
ATOM     16  C   UNL     1       1.630   5.991 -10.987  0.00  0.00    +0.048 A 
ATOM     17  C   UNL     1       2.513   6.086 -12.037  0.00  0.00    +0.016 A 
ATOM     18  C   UNL     1       2.199   6.848 -13.156  0.00  0.00    +0.019 A 
BRANCH  13  22
ATOM     19  N   UNL     1       0.255   8.181 -16.594  0.00  0.00    -0.202 N 
ATOM     20  C   UNL     1       0.625   8.503 -15.377  0.00  0.00    +0.352 A 
ATOM     21  O   UNL     1       0.992   9.658 -15.007  0.00  0.00    -0.244 OA
ATOM     22  N   UNL     1       0.339   7.425 -14.607  0.00  0.00    -0.240 N 
ATOM     23  C   UNL     1       0.166   6.390 -15.466  0.00  0.00    +0.207 A 
ATOM     24  N   UNL     1       0.257   6.871 -16.730  0.00  0.00    -0.144 NA
BRANCH  19  25
ATOM     25  C   UNL     1       0.497   9.097 -17.869  0.00  0.00    +0.110 C 
ATOM     26  C   UNL     1       1.156   7.844 -18.749  0.00  0.00    +0.027 C 
BRANCH  25  28
ATOM     27  C   UNL     1      -1.252   8.678 -18.619  0.00  0.00    +0.002 C 
ATOM     28  C   UNL     1      -1.021   8.809 -18.494  0.00  0.00    +0.025 C 
ENDBRANCH  25  28
ENDBRANCH  19  25
ENDBRANCH  13  22
ENDBRANCH   7  16
ENDBRANCH   1  10
BRANCH   4  29
ATOM     29  O   UNL     1       4.706   5.378  -3.082  0.00  0.00    -0.473 OA
BRANCH  29  30
ATOM     30  C   UNL     1       4.370   6.395  -2.222  0.00  0.00    +0.237 C 
BRANCH  30  31
ATOM     31  C   UNL     1       3.603   5.694  -0.905  0.00  0.00    +0.191 C 
ATOM     32  O   UNL     1       2.499   6.764  -0.865  0.00  0.00    -0.325 OA
ATOM     33  C   UNL     1       2.786   7.542   0.179  0.00  0.00    +0.231 C 
ATOM     34  O   UNL     1       3.670   6.965   1.043  0.00  0.00    -0.327 OA
ATOM     35  C   UNL     1       4.603   6.539   0.141  0.00  0.00    +0.178 C 
BRANCH  33  36
ATOM     36  C   UNL     1       1.524   7.727   0.969  0.00  0.00    +0.041 A 
ATOM     37  C   UNL     1       0.275   7.616   0.367  0.00  0.00    +0.059 A 
ATOM     38 CL   UNL     1       0.137   6.751  -1.145  0.00  0.00    -0.082 Cl
ATOM     39  C   UNL     1      -0.877   8.064   1.001  0.00  0.00    +0.023 A 
ATOM     40  C   UNL     1      -0.748   9.042   1.981  0.00  0.00    +0.058 A 
ATOM     41 CL   UNL     1      -1.993  10.245   2.266  0.00  0.00    -0.082 Cl
ATOM     42  C   UNL     1       0.413   9.017   2.708  0.00  0.00    +0.011 A 
ATOM     43  C   UNL     1       1.522   8.395   2.188  0.00  0.00    +0.002 A 
ENDBRANCH  33  36
BRANCH  33  44
ATOM     44  C   UNL     1       3.198   8.859  -0.393  0.00  0.00    +0.190 C 
BRANCH  44  45
ATOM     45  N   UNL     1       3.486   9.886   0.558  0.00  0.00    -0.225 N 
ATOM     46  N   UNL     1       4.625   9.963   1.249  0.00  0.00    -0.145 NA
ATOM     47  C   UNL     1       4.850  11.207   1.670  0.00  0.00    +0.221 A 
ATOM     48  N   UNL     1       4.002  11.973   0.984  0.00  0.00    -0.201 NA
ATOM     49  C   UNL     1       3.251  11.182   0.225  0.00  0.00    +0.197 A 
ENDBRANCH  44  45
ENDBRANCH  33  44
ENDBRANCH  30  31
ENDBRANCH  29  30
ENDBRANCH   4  29
TORSDOF 11
ENDMDL
MODEL 9
REMARK VINA RESULT:      -7.5      2.249      2.988
REMARK  Name = 
REMARK  11 active torsions:
REMARK  status: ('A' for Active; 'I' for Inactive)
REMARK    1  A    between atoms: C_2  and  C_3
REMARK    2  A    between atoms: C_3  and  N_5
REMARK    3  A    between atoms: N_8  and  C_9
REMARK    4  A    between atoms: C_12  and  N_13
REMARK    5  A    between atoms: N_16  and  C_17
REMARK    6  A    between atoms: C_20  and  O_21
REMARK    7  A    between atoms: O_21  and  C_22
REMARK    8  A    between atoms: C_22  and  C_23
REMARK    9  A    between atoms: C_26  and  C_27
REMARK   10  A    between atoms: C_26  and  C_33
REMARK   11  A    between atoms: C_27  and  N_28
REMARK                            x       y       z     vdW  Elec       q    Type
REMARK                         _______ _______ _______ _____ _____    ______ ____
ROOT
ATOM      1  C   UNL     1      -1.901   6.574  -1.976  0.00  0.00    +0.048 A 
ATOM      2  C   UNL     1      -2.752   7.018  -0.980  0.00  0.00    +0.018 A 
ATOM      3  C   UNL     1      -2.280   7.421   0.264  0.00  0.00    +0.038 A 
ATOM      4  C   UNL     1      -0.909   7.462   0.410  0.00  0.00    +0.139 A 
ATOM      5  C   UNL     1      -0.195   6.509  -0.306  0.00  0.00    +0.038 A 
ATOM      6  C   UNL     1      -0.675   6.093  -1.541  0.00  0.00    +0.018 A 
ENDROOT
BRANCH   1  10
ATOM      7  N   UNL     1       0.011   5.763  -4.507  0.00  0.00    -0.304 N 
ATOM      8  C   UNL     1      -0.943   4.756  -4.048  0.00  0.00    +0.112 C 
ATOM      9  C   UNL     1      -2.347   5.347  -4.044  0.00  0.00    +0.112 C 
ATOM     10  N   UNL     1      -2.246   6.638  -3.365  0.00  0.00    -0.304 N 
ATOM     11  C   UNL     1      -1.461   7.623  -4.110  0.00  0.00    +0.112 C 
ATOM     12  C   UNL     1      -0.022   7.131  -3.995  0.00  0.00    +0.112 C 
BRANCH   7  16
ATOM     13  C   UNL     1       1.829   5.516  -8.217  0.00  0.00    +0.070 A 
ATOM     14  C   UNL     1       1.517   6.733  -7.656  0.00  0.00    +0.019 A 
ATOM     15  C   UNL     1       0.930   6.824  -6.423  0.00  0.00    +0.016 A 
ATOM     16  C   UNL     1       0.452   5.645  -5.866  0.00  0.00    +0.048 A 
ATOM     17  C   UNL     1       0.997   4.455  -6.288  0.00  0.00    +0.016 A 
ATOM     18  C   UNL     1       1.826   4.415  -7.403  0.00  0.00    +0.019 A 
BRANCH  13  22
ATOM     19  N   UNL     1       1.809   5.744 -11.696  0.00  0.00    -0.202 N 
ATOM     20  C   UNL     1       1.150   5.625 -10.568  0.00  0.00    +0.352 A 
ATOM     21  O   UNL     1      -0.111   5.575 -10.460  0.00  0.00    -0.244 OA
ATOM     22  N   UNL     1       2.086   5.373  -9.619  0.00  0.00    -0.240 N 
ATOM     23  C   UNL     1       3.274   5.728 -10.166  0.00  0.00    +0.207 A 
ATOM     24  N   UNL     1       3.054   6.096 -11.451  0.00  0.00    -0.144 NA
BRANCH  19  25
ATOM     25  C   UNL     1       1.140   6.154 -13.077  0.00  0.00    +0.110 C 
ATOM     26  C   UNL     1       2.609   6.241 -13.860  0.00  0.00    +0.027 C 
BRANCH  25  28
ATOM     27  C   UNL     1       0.829   4.335 -13.705  0.00  0.00    +0.002 C 
ATOM     28  C   UNL     1       0.917   4.573 -13.558  0.00  0.00    +0.025 C 
ENDBRANCH  25  28
ENDBRANCH  19  25
ENDBRANCH  13  22
ENDBRANCH   7  16
ENDBRANCH   1  10
BRANCH   4  29
ATOM     29  O   UNL     1      -0.291   8.412   1.185  0.00  0.00    -0.473 OA
BRANCH  29  30
ATOM     30  C   UNL     1       1.052   8.676   1.304  0.00  0.00    +0.237 C 
BRANCH  30  31
ATOM     31  C   UNL     1       1.227  10.344   1.317  0.00  0.00    +0.191 C 
ATOM     32  O   UNL     1       2.331  10.327   0.247  0.00  0.00    -0.325 OA
ATOM     33  C   UNL     1       3.471  10.567   0.898  0.00  0.00    +0.231 C 
ATOM     34  O   UNL     1       3.271  11.094   2.139  0.00  0.00    -0.327 OA
ATOM     35  C   UNL     1       2.314  10.229   2.588  0.00  0.00    +0.178 C 
BRANCH  33  36
ATOM     36  C   UNL     1       4.217  11.621   0.134  0.00  0.00    +0.041 A 
ATOM     37  C   UNL     1       5.188  12.403   0.750  0.00  0.00    +0.059 A 
ATOM     38 CL   UNL     1       5.925  11.833   2.229  0.00  0.00    -0.082 Cl
ATOM     39  C   UNL     1       5.675  13.559   0.151  0.00  0.00    +0.023 A 
ATOM     40  C   UNL     1       4.874  14.195  -0.791  0.00  0.00    +0.058 A 
ATOM     41 CL   UNL     1       4.897  15.936  -1.010  0.00  0.00    -0.082 Cl
ATOM     42  C   UNL     1       4.059  13.383  -1.536  0.00  0.00    +0.011 A 
ATOM     43  C   UNL     1       3.724  12.141  -1.057  0.00  0.00    +0.002 A 
ENDBRANCH  33  36
BRANCH  33  44
ATOM     44  C   UNL     1       4.246   9.290   0.848  0.00  0.00    +0.190 C 
BRANCH  44  45
ATOM     45  N   UNL     1       3.846   8.361  -0.161  0.00  0.00    -0.225 N 
ATOM     46  N   UNL     1       4.175   8.473  -1.449  0.00  0.00    -0.145 NA
ATOM     47  C   UNL     1       4.114   7.293  -2.066  0.00  0.00    +0.221 A 
ATOM     48  N   UNL     1       4.042   6.387  -1.092  0.00  0.00    -0.201 NA
ATOM     49  C   UNL     1       3.993   7.030   0.070  0.00  0.00    +0.197 A 
ENDBRANCH  44  45
ENDBRANCH  33  44
ENDBRANCH  30  31
ENDBRANCH  29  30
ENDBRANCH   4  29
TORSDOF 11
ENDMDL
