MODEL 1
REMARK VINA RESULT:      -5.0      0.000      0.000
REMARK  Name = 
REMARK  1 active torsions:
REMARK  status: ('A' for Active; 'I' for Inactive)
REMARK    1  A    between atoms: C_2  and  C_4
REMARK                            x       y       z     vdW  Elec       q    Type
REMARK                         _______ _______ _______ _____ _____    ______ ____
ROOT
ATOM      1  C   UNL     1       7.455   6.209 -11.101  0.00  0.00    +0.076 A 
ATOM      2  C   UNL     1       6.625   7.277 -11.412  0.00  0.00    +0.103 A 
ATOM      3  N   UNL     1       5.394   7.365 -10.874  0.00  0.00    -0.242 NA
ATOM      4  C   UNL     1       5.001   6.413  -9.992  0.00  0.00    +0.099 A 
ATOM      5  C   UNL     1       6.032   5.820  -9.269  0.00  0.00    +0.021 A 
ATOM      6  C   UNL     1       7.273   5.626  -9.862  0.00  0.00    +0.008 A 
ENDROOT
BRANCH   1   8
ATOM      7  N   UNL     1       7.721   4.789 -13.158  0.00  0.00    -0.084 NA
ATOM      8  C   UNL     1       8.308   5.605 -12.134  0.00  0.00    +0.286 C 
ATOM      9  O   UNL     1       9.510   5.962 -12.223  0.00  0.00    -0.267 OA
ENDBRANCH   1   8
TORSDOF 1
ENDMDL
MODEL 2
REMARK VINA RESULT:      -4.8      9.743     11.197
REMARK  Name = 
REMARK  1 active torsions:
REMARK  status: ('A' for Active; 'I' for Inactive)
REMARK    1  A    between atoms: C_2  and  C_4
REMARK                            x       y       z     vdW  Elec       q    Type
REMARK                         _______ _______ _______ _____ _____    ______ ____
ROOT
ATOM      1  C   UNL     1      -1.331   5.773  -4.214  0.00  0.00    +0.076 A 
ATOM      2  C   UNL     1      -0.117   5.694  -4.883  0.00  0.00    +0.103 A 
ATOM      3  N   UNL     1      -0.075   5.360  -6.186  0.00  0.00    -0.242 NA
ATOM      4  C   UNL     1      -1.244   5.145  -6.839  0.00  0.00    +0.099 A 
ATOM      5  C   UNL     1      -2.335   5.850  -6.340  0.00  0.00    +0.021 A 
ATOM      6  C   UNL     1      -2.436   6.098  -4.977  0.00  0.00    +0.008 A 
ENDROOT
BRANCH   1   8
ATOM      7  N   UNL     1      -2.740   5.016  -2.276  0.00  0.00    -0.084 NA
ATOM      8  C   UNL     1      -1.447   5.307  -2.825  0.00  0.00    +0.286 C 
ATOM      9  O   UNL     1      -0.407   4.987  -2.196  0.00  0.00    -0.267 OA
ENDBRANCH   1   8
TORSDOF 1
ENDMDL
MODEL 3
REMARK VINA RESULT:      -4.6     10.421     11.886
REMARK  Name = 
REMARK  1 active torsions:
REMARK  status: ('A' for Active; 'I' for Inactive)
REMARK    1  A    between atoms: C_2  and  C_4
REMARK                            x       y       z     vdW  Elec       q    Type
REMARK                         _______ _______ _______ _____ _____    ______ ____
ROOT
ATOM      1  C   UNL     1      -2.410   6.285  -4.240  0.00  0.00    +0.076 A 
ATOM      2  C   UNL     1      -2.975   5.171  -3.635  0.00  0.00    +0.103 A 
ATOM      3  N   UNL     1      -2.795   4.943  -2.321  0.00  0.00    -0.242 NA
ATOM      4  C   UNL     1      -2.087   5.844  -1.596  0.00  0.00    +0.099 A 
ATOM      5  C   UNL     1      -2.139   7.151  -2.070  0.00  0.00    +0.021 A 
ATOM      6  C   UNL     1      -2.211   7.391  -3.436  0.00  0.00    +0.008 A 
ENDROOT
BRANCH   1   8
ATOM      7  N   UNL     1      -0.429   6.222  -5.785  0.00  0.00    -0.084 NA
ATOM      8  C   UNL     1      -1.851   6.191  -5.596  0.00  0.00    +0.286 C 
ATOM      9  O   UNL     1      -2.609   5.894  -6.554  0.00  0.00    -0.267 OA
ENDBRANCH   1   8
TORSDOF 1
ENDMDL
MODEL 4
REMARK VINA RESULT:      -4.4      2.679      3.644
REMARK  Name = 
REMARK  1 active torsions:
REMARK  status: ('A' for Active; 'I' for Inactive)
REMARK    1  A    between atoms: C_2  and  C_4
REMARK                            x       y       z     vdW  Elec       q    Type
REMARK                         _______ _______ _______ _____ _____    ______ ____
ROOT
ATOM      1  C   UNL     1       5.706   5.625  -9.799  0.00  0.00    +0.076 A 
ATOM      2  C   UNL     1       5.190   6.054 -11.014  0.00  0.00    +0.103 A 
ATOM      3  N   UNL     1       5.729   7.111 -11.650  0.00  0.00    -0.242 NA
ATOM      4  C   UNL     1       6.809   7.719 -11.099  0.00  0.00    +0.099 A 
ATOM      5  C   UNL     1       7.616   6.893 -10.324  0.00  0.00    +0.021 A 
ATOM      6  C   UNL     1       7.047   5.869  -9.577  0.00  0.00    +0.008 A 
ENDROOT
BRANCH   1   8
ATOM      7  N   UNL     1       3.825   4.148  -9.027  0.00  0.00    -0.084 NA
ATOM      8  C   UNL     1       4.808   5.152  -8.736  0.00  0.00    +0.286 C 
ATOM      9  O   UNL     1       5.035   5.487  -7.547  0.00  0.00    -0.267 OA
ENDBRANCH   1   8
TORSDOF 1
ENDMDL
MODEL 5
REMARK VINA RESULT:      -4.3     13.009     13.727
REMARK  Name = 
REMARK  1 active torsions:
REMARK  status: ('A' for Active; 'I' for Inactive)
REMARK    1  A    between atoms: C_2  and  C_4
REMARK                            x       y       z     vdW  Elec       q    Type
REMARK                         _______ _______ _______ _____ _____    ______ ____
ROOT
ATOM      1  C   UNL     1      -1.889   6.849  -1.447  0.00  0.00    +0.076 A 
ATOM      2  C   UNL     1      -1.978   5.466  -1.531  0.00  0.00    +0.103 A 
ATOM      3  N   UNL     1      -2.786   4.887  -2.439  0.00  0.00    -0.242 NA
ATOM      4  C   UNL     1      -3.476   5.682  -3.294  0.00  0.00    +0.099 A 
ATOM      5  C   UNL     1      -2.868   6.899  -3.585  0.00  0.00    +0.021 A 
ATOM      6  C   UNL     1      -2.126   7.554  -2.611  0.00  0.00    +0.008 A 
ENDROOT
BRANCH   1   8
ATOM      7  N   UNL     1      -1.618   6.718   1.048  0.00  0.00    -0.084 NA
ATOM      8  C   UNL     1      -1.779   7.509  -0.139  0.00  0.00    +0.286 C 
ATOM      9  O   UNL     1      -1.635   8.756  -0.091  0.00  0.00    -0.267 OA
ENDBRANCH   1   8
TORSDOF 1
ENDMDL
MODEL 6
REMARK VINA RESULT:      -4.3      6.613      7.977
REMARK  Name = 
REMARK  1 active torsions:
REMARK  status: ('A' for Active; 'I' for Inactive)
REMARK    1  A    between atoms: C_2  and  C_4
REMARK                            x       y       z     vdW  Elec       q    Type
REMARK                         _______ _______ _______ _____ _____    ______ ____
ROOT
ATOM      1  C   UNL     1       1.310   6.193  -6.637  0.00  0.00    +0.076 A 
ATOM      2  C   UNL     1       1.062   5.753  -5.345  0.00  0.00    +0.103 A 
ATOM      3  N   UNL     1      -0.194   5.477  -4.947  0.00  0.00    -0.242 NA
ATOM      4  C   UNL     1      -1.202   5.597  -5.847  0.00  0.00    +0.099 A 
ATOM      5  C   UNL     1      -0.834   5.388  -7.172  0.00  0.00    +0.021 A 
ATOM      6  C   UNL     1       0.424   5.777  -7.613  0.00  0.00    +0.008 A 
ENDROOT
BRANCH   1   8
ATOM      7  N   UNL     1       2.130   8.174  -7.948  0.00  0.00    -0.084 NA
ATOM      8  C   UNL     1       2.325   7.226  -6.889  0.00  0.00    +0.286 C 
ATOM      9  O   UNL     1       3.254   7.389  -6.059  0.00  0.00    -0.267 OA
ENDBRANCH   1   8
TORSDOF 1
ENDMDL
MODEL 7
REMARK VINA RESULT:      -4.2      2.810      3.962
REMARK  Name = 
REMARK  1 active torsions:
REMARK  status: ('A' for Active; 'I' for Inactive)
REMARK    1  A    between atoms: C_2  and  C_4
REMARK                            x       y       z     vdW  Elec       q    Type
REMARK                         _______ _______ _______ _____ _____    ______ ____
ROOT
ATOM      1  C   UNL     1       5.172   6.148 -10.057  0.00  0.00    +0.076 A 
ATOM      2  C   UNL     1       6.376   5.746  -9.496  0.00  0.00    +0.103 A 
ATOM      3  N   UNL     1       7.545   6.096 -10.063  0.00  0.00    -0.242 NA
ATOM      4  C   UNL     1       7.520   6.884 -11.167  0.00  0.00    +0.099 A 
ATOM      5  C   UNL     1       6.425   7.737 -11.257  0.00  0.00    +0.021 A 
ATOM      6  C   UNL     1       5.188   7.330 -10.772  0.00  0.00    +0.008 A 
ENDROOT
BRANCH   1   8
ATOM      7  N   UNL     1       3.908   4.207  -9.081  0.00  0.00    -0.084 NA
ATOM      8  C   UNL     1       4.018   5.238 -10.073  0.00  0.00    +0.286 C 
ATOM      9  O   UNL     1       3.049   5.489 -10.833  0.00  0.00    -0.267 OA
ENDBRANCH   1   8
TORSDOF 1
ENDMDL
MODEL 8
REMARK VINA RESULT:      -4.2      8.555     10.012
REMARK  Name = 
REMARK  1 active torsions:
REMARK  status: ('A' for Active; 'I' for Inactive)
REMARK    1  A    between atoms: C_2  and  C_4
REMARK                            x       y       z     vdW  Elec       q    Type
REMARK                         _______ _______ _______ _____ _____    ______ ____
ROOT
ATOM      1  C   UNL     1      -1.059   5.613  -5.530  0.00  0.00    +0.076 A 
ATOM      2  C   UNL     1      -0.741   5.785  -4.190  0.00  0.00    +0.103 A 
ATOM      3  N   UNL     1      -1.142   6.887  -3.529  0.00  0.00    -0.242 NA
ATOM      4  C   UNL     1      -1.896   7.802  -4.188  0.00  0.00    +0.099 A 
ATOM      5  C   UNL     1      -2.682   7.285  -5.214  0.00  0.00    +0.021 A 
ATOM      6  C   UNL     1      -2.220   6.218  -5.972  0.00  0.00    +0.008 A 
ENDROOT
BRANCH   1   8
ATOM      7  N   UNL     1      -0.025   5.465  -7.815  0.00  0.00    -0.084 NA
ATOM      8  C   UNL     1      -0.085   5.016  -6.454  0.00  0.00    +0.286 C 
ATOM      9  O   UNL     1       0.809   4.258  -5.999  0.00  0.00    -0.267 OA
ENDBRANCH   1   8
TORSDOF 1
ENDMDL
MODEL 9
REMARK VINA RESULT:      -4.0      8.538      9.484
REMARK  Name = 
REMARK  1 active torsions:
REMARK  status: ('A' for Active; 'I' for Inactive)
REMARK    1  A    between atoms: C_2  and  C_4
REMARK                            x       y       z     vdW  Elec       q    Type
REMARK                         _______ _______ _______ _____ _____    ______ ____
ROOT
ATOM      1  C   UNL     1      -0.008   5.917  -5.603  0.00  0.00    +0.076 A 
ATOM      2  C   UNL     1      -1.024   5.533  -6.466  0.00  0.00    +0.103 A 
ATOM      3  N   UNL     1      -2.290   5.937  -6.253  0.00  0.00    -0.242 NA
ATOM      4  C   UNL     1      -2.542   6.760  -5.204  0.00  0.00    +0.099 A 
ATOM      5  C   UNL     1      -1.482   7.581  -4.834  0.00  0.00    +0.021 A 
ATOM      6  C   UNL     1      -0.176   7.122  -4.948  0.00  0.00    +0.008 A 
ENDROOT
BRANCH   1   8
ATOM      7  N   UNL     1       1.458   3.959  -6.181  0.00  0.00    -0.084 NA
ATOM      8  C   UNL     1       1.061   4.973  -5.247  0.00  0.00    +0.286 C 
ATOM      9  O   UNL     1       1.744   5.181  -4.212  0.00  0.00    -0.267 OA
ENDBRANCH   1   8
TORSDOF 1
ENDMDL
