MODEL 1
REMARK VINA RESULT:      -7.4      0.000      0.000
REMARK  Name = 
REMARK  8 active torsions:
REMARK  status: ('A' for Active; 'I' for Inactive)
REMARK    1  A    between atoms: O_2  and  C_3
REMARK    2  A    between atoms: C_3  and  N_4
REMARK    3  A    between atoms: C_5  and  C_7
REMARK    4  A    between atoms: C_7  and  C_8
REMARK    5  A    between atoms: C_16  and  C_17
REMARK    6  A    between atoms: C_20  and  C_21
REMARK    7  A    between atoms: C_21  and  O_22
REMARK    8  A    between atoms: O_22  and  C_23
REMARK                            x       y       z     vdW  Elec       q    Type
REMARK                         _______ _______ _______ _____ _____    ______ ____
ROOT
ATOM      1  C   UNL     1       3.000   5.447  -8.384  0.00  0.00    +0.268 C 
ATOM      2  C   UNL     1       3.078   5.177  -6.817  0.00  0.00    +0.181 C 
ATOM      3  N   UNL     1       1.784   5.979  -6.727  0.00  0.00    -0.238 N 
ATOM      4  C   UNL     1       1.408   6.272  -5.380  0.00  0.00    +0.131 C 
ATOM      5  C   UNL     1       2.287   6.329  -4.379  0.00  0.00    +0.030 C 
ATOM      6  C   UNL     1       3.565   7.061  -4.664  0.00  0.00    +0.086 C 
ATOM      7  S   UNL     1       4.159   6.697  -6.352  0.00  0.00    -0.112 S 
ATOM      8  C   UNL     1       2.128   6.557  -7.999  0.00  0.00    +0.277 C 
ATOM      9  O   UNL     1       1.392   7.306  -8.714  0.00  0.00    -0.270 OA
ENDROOT
BRANCH   4  10
ATOM     10  C   UNL     1      -0.019   6.450  -5.220  0.00  0.00    +0.401 C 
ATOM     11  O   UNL     1      -0.662   7.648  -5.035  0.00  0.00    -0.239 OA
ATOM     12  O   UNL     1      -0.748   5.427  -5.404  0.00  0.00    -0.239 OA
ENDBRANCH   4  10
BRANCH   1  13
ATOM     13  N   UNL     1       4.287   5.686  -8.921  0.00  0.00    -0.171 NA
ATOM     14  C   UNL     1       4.511   6.148 -10.262  0.00  0.00    +0.249 C 
ATOM     15  O   UNL     1       3.523   5.962 -11.040  0.00  0.00    -0.273 OA
BRANCH  14  16
ATOM     16  C   UNL     1       5.236   7.414 -10.574  0.00  0.00    +0.120 C 
BRANCH  16  17
ATOM     17  C   UNL     1       6.565   7.176 -11.197  0.00  0.00    +0.016 A 
ATOM     18  S   UNL     1       6.738   6.695 -12.838  0.00  0.00    -0.090 S 
ATOM     19  C   UNL     1       8.174   5.761 -12.706  0.00  0.00    +0.035 A 
ATOM     20  C   UNL     1       8.199   5.582 -11.327  0.00  0.00    +0.007 A 
ATOM     21  C   UNL     1       7.727   6.679 -10.667  0.00  0.00    +0.003 A 
ENDBRANCH  16  17
ENDBRANCH  14  16
ENDBRANCH   1  13
BRANCH   1  23
ATOM     22  C   UNL     1       2.213   3.852  -8.882  0.00  0.00    +0.177 C 
ATOM     23  O   UNL     1       2.223   4.455  -8.998  0.00  0.00    -0.328 OA
ENDBRANCH   1  23
BRANCH   5  24
ATOM     24  C   UNL     1       1.776   6.258  -3.003  0.00  0.00    +0.235 C 
BRANCH  24  25
ATOM     25  O   UNL     1       2.776   6.502  -2.035  0.00  0.00    -0.428 OA
BRANCH  25  26
ATOM     26  C   UNL     1       2.965   5.512  -1.067  0.00  0.00    +0.441 C 
ATOM     27  O   UNL     1       2.039   4.756  -0.690  0.00  0.00    -0.223 OA
ATOM     28  N   UNL     1       4.172   5.587  -0.311  0.00  0.00    -0.048 NA
ENDBRANCH  25  26
ENDBRANCH  24  25
ENDBRANCH   5  24
TORSDOF 8
ENDMDL
MODEL 2
REMARK VINA RESULT:      -7.3      3.206      8.846
REMARK  Name = 
REMARK  8 active torsions:
REMARK  status: ('A' for Active; 'I' for Inactive)
REMARK    1  A    between atoms: O_2  and  C_3
REMARK    2  A    between atoms: C_3  and  N_4
REMARK    3  A    between atoms: C_5  and  C_7
REMARK    4  A    between atoms: C_7  and  C_8
REMARK    5  A    between atoms: C_16  and  C_17
REMARK    6  A    between atoms: C_20  and  C_21
REMARK    7  A    between atoms: C_21  and  O_22
REMARK    8  A    between atoms: O_22  and  C_23
REMARK                            x       y       z     vdW  Elec       q    Type
REMARK                         _______ _______ _______ _____ _____    ______ ____
ROOT
ATOM      1  C   UNL     1       1.896   5.337  -6.948  0.00  0.00    +0.268 C 
ATOM      2  C   UNL     1       1.917   4.889  -8.476  0.00  0.00    +0.181 C 
ATOM      3  N   UNL     1       3.032   5.915  -8.646  0.00  0.00    -0.238 N 
ATOM      4  C   UNL     1       3.382   6.128 -10.015  0.00  0.00    +0.131 C 
ATOM      5  C   UNL     1       2.537   5.902 -11.022  0.00  0.00    +0.030 C 
ATOM      6  C   UNL     1       1.134   6.395 -10.829  0.00  0.00    +0.086 C 
ATOM      7  S   UNL     1       0.575   6.107  -9.115  0.00  0.00    -0.112 S 
ATOM      8  C   UNL     1       2.546   6.548  -7.449  0.00  0.00    +0.277 C 
ATOM      9  O   UNL     1       3.101   7.501  -6.818  0.00  0.00    -0.270 OA
ENDROOT
BRANCH   4  10
ATOM     10  C   UNL     1       4.751   6.565 -10.185  0.00  0.00    +0.401 C 
ATOM     11  O   UNL     1       5.151   7.746 -10.757  0.00  0.00    -0.239 OA
ATOM     12  O   UNL     1       5.650   5.857  -9.634  0.00  0.00    -0.239 OA
ENDBRANCH   4  10
BRANCH   1  13
ATOM     13  N   UNL     1       0.572   5.375  -6.450  0.00  0.00    -0.171 NA
ATOM     14  C   UNL     1       0.189   6.118  -5.283  0.00  0.00    +0.249 C 
ATOM     15  O   UNL     1       1.162   6.418  -4.523  0.00  0.00    -0.273 OA
BRANCH  14  16
ATOM     16  C   UNL     1      -0.850   7.188  -5.307  0.00  0.00    +0.120 C 
BRANCH  16  17
ATOM     17  C   UNL     1      -2.026   6.868  -4.455  0.00  0.00    +0.016 A 
ATOM     18  S   UNL     1      -2.182   7.455  -2.848  0.00  0.00    -0.090 S 
ATOM     19  C   UNL     1      -3.073   6.155  -2.160  0.00  0.00    +0.035 A 
ATOM     20  C   UNL     1      -2.853   5.192  -3.139  0.00  0.00    +0.007 A 
ATOM     21  C   UNL     1      -2.802   5.741  -4.387  0.00  0.00    +0.003 A 
ENDBRANCH  16  17
ENDBRANCH  14  16
ENDBRANCH   1  13
BRANCH   1  23
ATOM     22  C   UNL     1       2.799   4.003  -6.044  0.00  0.00    +0.177 C 
ATOM     23  O   UNL     1       2.833   4.590  -6.222  0.00  0.00    -0.328 OA
ENDBRANCH   1  23
BRANCH   5  24
ATOM     24  C   UNL     1       3.091   5.784 -12.378  0.00  0.00    +0.235 C 
BRANCH  24  25
ATOM     25  O   UNL     1       2.095   5.800 -13.379  0.00  0.00    -0.428 OA
BRANCH  25  26
ATOM     26  C   UNL     1       1.816   4.582 -14.005  0.00  0.00    +0.441 C 
ATOM     27  O   UNL     1       2.705   3.894 -14.561  0.00  0.00    -0.223 OA
ATOM     28  N   UNL     1       0.441   4.293 -14.246  0.00  0.00    -0.048 NA
ENDBRANCH  25  26
ENDBRANCH  24  25
ENDBRANCH   5  24
TORSDOF 8
ENDMDL
MODEL 3
REMARK VINA RESULT:      -7.1      1.441      1.575
REMARK  Name = 
REMARK  8 active torsions:
REMARK  status: ('A' for Active; 'I' for Inactive)
REMARK    1  A    between atoms: O_2  and  C_3
REMARK    2  A    between atoms: C_3  and  N_4
REMARK    3  A    between atoms: C_5  and  C_7
REMARK    4  A    between atoms: C_7  and  C_8
REMARK    5  A    between atoms: C_16  and  C_17
REMARK    6  A    between atoms: C_20  and  C_21
REMARK    7  A    between atoms: C_21  and  O_22
REMARK    8  A    between atoms: O_22  and  C_23
REMARK                            x       y       z     vdW  Elec       q    Type
REMARK                         _______ _______ _______ _____ _____    ______ ____
ROOT
ATOM      1  C   UNL     1       2.023   5.191  -9.291  0.00  0.00    +0.268 C 
ATOM      2  C   UNL     1       1.912   4.505  -7.858  0.00  0.00    +0.181 C 
ATOM      3  N   UNL     1       1.078   5.720  -7.465  0.00  0.00    -0.238 N 
ATOM      4  C   UNL     1       0.805   5.773  -6.063  0.00  0.00    +0.131 C 
ATOM      5  C   UNL     1       1.582   5.186  -5.152  0.00  0.00    +0.030 C 
ATOM      6  C   UNL     1       3.060   5.361  -5.333  0.00  0.00    +0.086 C 
ATOM      7  S   UNL     1       3.515   5.246  -7.099  0.00  0.00    -0.112 S 
ATOM      8  C   UNL     1       1.689   6.417  -8.566  0.00  0.00    +0.277 C 
ATOM      9  O   UNL     1       1.372   7.567  -9.003  0.00  0.00    -0.270 OA
ENDROOT
BRANCH   4  10
ATOM     10  C   UNL     1      -0.418   6.483  -5.754  0.00  0.00    +0.401 C 
ATOM     11  O   UNL     1      -0.502   7.687  -5.100  0.00  0.00    -0.239 OA
ATOM     12  O   UNL     1      -1.490   6.020  -6.250  0.00  0.00    -0.239 OA
ENDBRANCH   4  10
BRANCH   1  13
ATOM     13  N   UNL     1       3.311   5.002  -9.844  0.00  0.00    -0.171 NA
ATOM     14  C   UNL     1       3.832   5.793 -10.923  0.00  0.00    +0.249 C 
ATOM     15  O   UNL     1       2.938   6.402 -11.590  0.00  0.00    -0.273 OA
BRANCH  14  16
ATOM     16  C   UNL     1       5.087   6.592 -10.812  0.00  0.00    +0.120 C 
BRANCH  16  17
ATOM     17  C   UNL     1       6.284   5.853 -11.292  0.00  0.00    +0.016 A 
ATOM     18  S   UNL     1       7.859   6.156 -10.678  0.00  0.00    -0.090 S 
ATOM     19  C   UNL     1       8.783   5.792 -12.081  0.00  0.00    +0.035 A 
ATOM     20  C   UNL     1       7.768   5.828 -13.032  0.00  0.00    +0.007 A 
ATOM     21  C   UNL     1       6.590   5.354 -12.531  0.00  0.00    +0.003 A 
ENDBRANCH  16  17
ENDBRANCH  14  16
ENDBRANCH   1  13
BRANCH   1  23
ATOM     22  C   UNL     1       0.723   4.256 -10.212  0.00  0.00    +0.177 C 
ATOM     23  O   UNL     1       0.925   4.820 -10.080  0.00  0.00    -0.328 OA
ENDBRANCH   1  23
BRANCH   5  24
ATOM     24  C   UNL     1       1.030   4.971  -3.806  0.00  0.00    +0.235 C 
BRANCH  24  25
ATOM     25  O   UNL     1       1.871   5.468  -2.785  0.00  0.00    -0.428 OA
BRANCH  25  26
ATOM     26  C   UNL     1       1.252   5.834  -1.588  0.00  0.00    +0.441 C 
ATOM     27  O   UNL     1       0.138   6.407  -1.555  0.00  0.00    -0.223 OA
ATOM     28  N   UNL     1       2.066   5.800  -0.417  0.00  0.00    -0.048 NA
ENDBRANCH  25  26
ENDBRANCH  24  25
ENDBRANCH   5  24
TORSDOF 8
ENDMDL
MODEL 4
REMARK VINA RESULT:      -7.1      3.488      5.075
REMARK  Name = 
REMARK  8 active torsions:
REMARK  status: ('A' for Active; 'I' for Inactive)
REMARK    1  A    between atoms: O_2  and  C_3
REMARK    2  A    between atoms: C_3  and  N_4
REMARK    3  A    between atoms: C_5  and  C_7
REMARK    4  A    between atoms: C_7  and  C_8
REMARK    5  A    between atoms: C_16  and  C_17
REMARK    6  A    between atoms: C_20  and  C_21
REMARK    7  A    between atoms: C_21  and  O_22
REMARK    8  A    between atoms: O_22  and  C_23
REMARK                            x       y       z     vdW  Elec       q    Type
REMARK                         _______ _______ _______ _____ _____    ______ ____
ROOT
ATOM      1  C   UNL     1       3.364   6.266  -5.243  0.00  0.00    +0.268 C 
ATOM      2  C   UNL     1       2.335   6.769  -4.137  0.00  0.00    +0.181 C 
ATOM      3  N   UNL     1       3.031   5.784  -3.202  0.00  0.00    -0.238 N 
ATOM      4  C   UNL     1       2.350   5.631  -1.955  0.00  0.00    +0.131 C 
ATOM      5  C   UNL     1       1.045   5.867  -1.809  0.00  0.00    +0.030 C 
ATOM      6  C   UNL     1       0.152   5.323  -2.884  0.00  0.00    +0.086 C 
ATOM      7  S   UNL     1       0.917   5.533  -4.530  0.00  0.00    -0.112 S 
ATOM      8  C   UNL     1       3.493   5.094  -4.377  0.00  0.00    +0.277 C 
ATOM      9  O   UNL     1       4.329   4.137  -4.412  0.00  0.00    -0.270 OA
ENDROOT
BRANCH   4  10
ATOM     10  C   UNL     1       3.233   5.244  -0.876  0.00  0.00    +0.401 C 
ATOM     11  O   UNL     1       3.794   6.094   0.044  0.00  0.00    -0.239 OA
ATOM     12  O   UNL     1       3.390   4.000  -0.682  0.00  0.00    -0.239 OA
ENDBRANCH   4  10
BRANCH   1  13
ATOM     13  N   UNL     1       2.738   6.168  -6.508  0.00  0.00    -0.171 NA
ATOM     14  C   UNL     1       3.295   5.435  -7.610  0.00  0.00    +0.249 C 
ATOM     15  O   UNL     1       4.540   5.208  -7.499  0.00  0.00    -0.273 OA
BRANCH  14  16
ATOM     16  C   UNL     1       2.580   4.310  -8.280  0.00  0.00    +0.120 C 
BRANCH  16  17
ATOM     17  C   UNL     1       1.852   4.738  -9.504  0.00  0.00    +0.016 A 
ATOM     18  S   UNL     1       2.560   5.772 -10.679  0.00  0.00    -0.090 S 
ATOM     19  C   UNL     1       1.146   6.579 -11.230  0.00  0.00    +0.035 A 
ATOM     20  C   UNL     1       0.282   6.251 -10.191  0.00  0.00    +0.007 A 
ATOM     21  C   UNL     1       0.523   4.996  -9.711  0.00  0.00    +0.003 A 
ENDBRANCH  16  17
ENDBRANCH  14  16
ENDBRANCH   1  13
BRANCH   1  23
ATOM     22  C   UNL     1       4.656   7.522  -4.839  0.00  0.00    +0.177 C 
ATOM     23  O   UNL     1       4.546   7.015  -5.168  0.00  0.00    -0.328 OA
ENDBRANCH   1  23
BRANCH   5  24
ATOM     24  C   UNL     1       0.523   6.050  -0.447  0.00  0.00    +0.235 C 
BRANCH  24  25
ATOM     25  O   UNL     1      -0.889   6.076  -0.403  0.00  0.00    -0.428 OA
BRANCH  25  26
ATOM     26  C   UNL     1      -1.472   7.043   0.420  0.00  0.00    +0.441 C 
ATOM     27  O   UNL     1      -2.162   6.744   1.423  0.00  0.00    -0.223 OA
ATOM     28  N   UNL     1      -1.499   8.376  -0.088  0.00  0.00    -0.048 NA
ENDBRANCH  25  26
ENDBRANCH  24  25
ENDBRANCH   5  24
TORSDOF 8
ENDMDL
MODEL 5
REMARK VINA RESULT:      -7.0      3.566      8.062
REMARK  Name = 
REMARK  8 active torsions:
REMARK  status: ('A' for Active; 'I' for Inactive)
REMARK    1  A    between atoms: O_2  and  C_3
REMARK    2  A    between atoms: C_3  and  N_4
REMARK    3  A    between atoms: C_5  and  C_7
REMARK    4  A    between atoms: C_7  and  C_8
REMARK    5  A    between atoms: C_16  and  C_17
REMARK    6  A    between atoms: C_20  and  C_21
REMARK    7  A    between atoms: C_21  and  O_22
REMARK    8  A    between atoms: O_22  and  C_23
REMARK                            x       y       z     vdW  Elec       q    Type
REMARK                         _______ _______ _______ _____ _____    ______ ____
ROOT
ATOM      1  C   UNL     1       1.005   6.297  -9.959  0.00  0.00    +0.268 C 
ATOM      2  C   UNL     1       2.275   6.757 -10.802  0.00  0.00    +0.181 C 
ATOM      3  N   UNL     1       1.881   5.660 -11.786  0.00  0.00    -0.238 N 
ATOM      4  C   UNL     1       2.872   5.437 -12.791  0.00  0.00    +0.131 C 
ATOM      5  C   UNL     1       4.162   5.729 -12.613  0.00  0.00    +0.030 C 
ATOM      6  C   UNL     1       4.753   5.328 -11.294  0.00  0.00    +0.086 C 
ATOM      7  S   UNL     1       3.574   5.637  -9.934  0.00  0.00    -0.112 S 
ATOM      8  C   UNL     1       1.144   5.049 -10.712  0.00  0.00    +0.277 C 
ATOM      9  O   UNL     1       0.357   4.056 -10.803  0.00  0.00    -0.270 OA
ENDROOT
BRANCH   4  10
ATOM     10  C   UNL     1       2.319   4.912 -14.020  0.00  0.00    +0.401 C 
ATOM     11  O   UNL     1       2.492   3.636 -14.497  0.00  0.00    -0.239 OA
ATOM     12  O   UNL     1       1.494   5.651 -14.639  0.00  0.00    -0.239 OA
ENDBRANCH   4  10
BRANCH   1  13
ATOM     13  N   UNL     1       1.275   6.342  -8.571  0.00  0.00    -0.171 NA
ATOM     14  C   UNL     1       0.473   5.670  -7.588  0.00  0.00    +0.249 C 
ATOM     15  O   UNL     1      -0.689   5.360  -7.999  0.00  0.00    -0.273 OA
BRANCH  14  16
ATOM     16  C   UNL     1       1.025   4.649  -6.650  0.00  0.00    +0.120 C 
BRANCH  16  17
ATOM     17  C   UNL     1       2.133   5.177  -5.812  0.00  0.00    +0.016 A 
ATOM     18  S   UNL     1       1.969   6.599  -4.861  0.00  0.00    -0.090 S 
ATOM     19  C   UNL     1       3.591   7.163  -4.918  0.00  0.00    +0.035 A 
ATOM     20  C   UNL     1       4.055   6.404  -5.987  0.00  0.00    +0.007 A 
ATOM     21  C   UNL     1       3.489   5.162  -6.008  0.00  0.00    +0.003 A 
ENDBRANCH  16  17
ENDBRANCH  14  16
ENDBRANCH   1  13
BRANCH   1  23
ATOM     22  C   UNL     1      -0.274   7.147 -10.986  0.00  0.00    +0.177 C 
ATOM     23  O   UNL     1      -0.136   6.973 -10.413  0.00  0.00    -0.328 OA
ENDBRANCH   1  23
BRANCH   5  24
ATOM     24  C   UNL     1       5.021   5.822 -13.802  0.00  0.00    +0.235 C 
BRANCH  24  25
ATOM     25  O   UNL     1       6.060   4.865 -13.802  0.00  0.00    -0.428 OA
BRANCH  25  26
ATOM     26  C   UNL     1       7.298   5.284 -13.310  0.00  0.00    +0.441 C 
ATOM     27  O   UNL     1       7.989   4.577 -12.539  0.00  0.00    -0.223 OA
ATOM     28  N   UNL     1       7.613   6.665 -13.479  0.00  0.00    -0.048 NA
ENDBRANCH  25  26
ENDBRANCH  24  25
ENDBRANCH   5  24
TORSDOF 8
ENDMDL
MODEL 6
REMARK VINA RESULT:      -6.9      2.721      7.627
REMARK  Name = 
REMARK  8 active torsions:
REMARK  status: ('A' for Active; 'I' for Inactive)
REMARK    1  A    between atoms: O_2  and  C_3
REMARK    2  A    between atoms: C_3  and  N_4
REMARK    3  A    between atoms: C_5  and  C_7
REMARK    4  A    between atoms: C_7  and  C_8
REMARK    5  A    between atoms: C_16  and  C_17
REMARK    6  A    between atoms: C_20  and  C_21
REMARK    7  A    between atoms: C_21  and  O_22
REMARK    8  A    between atoms: O_22  and  C_23
REMARK                            x       y       z     vdW  Elec       q    Type
REMARK                         _______ _______ _______ _____ _____    ______ ____
ROOT
ATOM      1  C   UNL     1       0.299   5.896  -5.638  0.00  0.00    +0.268 C 
ATOM      2  C   UNL     1       1.546   6.040  -6.618  0.00  0.00    +0.181 C 
ATOM      3  N   UNL     1       0.539   5.839  -7.746  0.00  0.00    -0.238 N 
ATOM      4  C   UNL     1       1.165   5.667  -9.020  0.00  0.00    +0.131 C 
ATOM      5  C   UNL     1       2.410   5.209  -9.159  0.00  0.00    +0.030 C 
ATOM      6  C   UNL     1       2.778   4.030  -8.309  0.00  0.00    +0.086 C 
ATOM      7  S   UNL     1       2.070   4.192  -6.633  0.00  0.00    -0.112 S 
ATOM      8  C   UNL     1      -0.330   5.227  -6.777  0.00  0.00    +0.277 C 
ATOM      9  O   UNL     1      -1.539   4.879  -6.957  0.00  0.00    -0.270 OA
ENDROOT
BRANCH   4  10
ATOM     10  C   UNL     1       0.324   6.085 -10.121  0.00  0.00    +0.401 C 
ATOM     11  O   UNL     1       0.220   7.364 -10.609  0.00  0.00    -0.239 OA
ATOM     12  O   UNL     1      -0.261   5.169 -10.775  0.00  0.00    -0.239 OA
ENDBRANCH   4  10
BRANCH   1  13
ATOM     13  N   UNL     1       0.652   5.172  -4.474  0.00  0.00    -0.171 NA
ATOM     14  C   UNL     1       1.501   5.698  -3.443  0.00  0.00    +0.249 C 
ATOM     15  O   UNL     1       2.211   6.684  -3.817  0.00  0.00    -0.273 OA
BRANCH  14  16
ATOM     16  C   UNL     1       1.066   5.830  -2.022  0.00  0.00    +0.120 C 
BRANCH  16  17
ATOM     17  C   UNL     1       2.196   5.717  -1.062  0.00  0.00    +0.016 A 
ATOM     18  S   UNL     1       2.894   7.088  -0.298  0.00  0.00    -0.090 S 
ATOM     19  C   UNL     1       4.509   6.524  -0.131  0.00  0.00    +0.035 A 
ATOM     20  C   UNL     1       4.468   5.460  -1.025  0.00  0.00    +0.007 A 
ATOM     21  C   UNL     1       3.250   4.842  -1.021  0.00  0.00    +0.003 A 
ENDBRANCH  16  17
ENDBRANCH  14  16
ENDBRANCH   1  13
BRANCH   1  23
ATOM     22  C   UNL     1      -0.788   7.289  -5.100  0.00  0.00    +0.177 C 
ATOM     23  O   UNL     1      -0.309   7.146  -5.456  0.00  0.00    -0.328 OA
ENDBRANCH   1  23
BRANCH   5  24
ATOM     24  C   UNL     1       3.087   5.423 -10.446  0.00  0.00    +0.235 C 
BRANCH  24  25
ATOM     25  O   UNL     1       4.442   5.026 -10.424  0.00  0.00    -0.428 OA
BRANCH  25  26
ATOM     26  C   UNL     1       5.376   6.006 -10.081  0.00  0.00    +0.441 C 
ATOM     27  O   UNL     1       5.480   7.085 -10.712  0.00  0.00    -0.223 OA
ATOM     28  N   UNL     1       6.405   5.613  -9.174  0.00  0.00    -0.048 NA
ENDBRANCH  25  26
ENDBRANCH  24  25
ENDBRANCH   5  24
TORSDOF 8
ENDMDL
MODEL 7
REMARK VINA RESULT:      -6.5      3.957      8.211
REMARK  Name = 
REMARK  8 active torsions:
REMARK  status: ('A' for Active; 'I' for Inactive)
REMARK    1  A    between atoms: O_2  and  C_3
REMARK    2  A    between atoms: C_3  and  N_4
REMARK    3  A    between atoms: C_5  and  C_7
REMARK    4  A    between atoms: C_7  and  C_8
REMARK    5  A    between atoms: C_16  and  C_17
REMARK    6  A    between atoms: C_20  and  C_21
REMARK    7  A    between atoms: C_21  and  O_22
REMARK    8  A    between atoms: O_22  and  C_23
REMARK                            x       y       z     vdW  Elec       q    Type
REMARK                         _______ _______ _______ _____ _____    ______ ____
ROOT
ATOM      1  C   UNL     1       3.653   5.826  -3.604  0.00  0.00    +0.268 C 
ATOM      2  C   UNL     1       2.488   5.310  -4.559  0.00  0.00    +0.181 C 
ATOM      3  N   UNL     1       2.868   6.476  -5.466  0.00  0.00    -0.238 N 
ATOM      4  C   UNL     1       1.939   6.669  -6.535  0.00  0.00    +0.131 C 
ATOM      5  C   UNL     1       0.667   6.273  -6.469  0.00  0.00    +0.030 C 
ATOM      6  C   UNL     1      -0.050   6.569  -5.185  0.00  0.00    +0.086 C 
ATOM      7  S   UNL     1       1.046   6.289  -3.751  0.00  0.00    -0.112 S 
ATOM      8  C   UNL     1       3.473   7.092  -4.316  0.00  0.00    +0.277 C 
ATOM      9  O   UNL     1       4.184   8.145  -4.307  0.00  0.00    -0.270 OA
ENDROOT
BRANCH   4  10
ATOM     10  C   UNL     1       2.538   7.288  -7.697  0.00  0.00    +0.401 C 
ATOM     11  O   UNL     1       3.346   6.661  -8.613  0.00  0.00    -0.239 OA
ATOM     12  O   UNL     1       2.176   8.475  -7.965  0.00  0.00    -0.239 OA
ENDBRANCH   4  10
BRANCH   1  13
ATOM     13  N   UNL     1       3.285   5.699  -2.244  0.00  0.00    -0.171 NA
ATOM     14  C   UNL     1       3.856   6.494  -1.193  0.00  0.00    +0.249 C 
ATOM     15  O   UNL     1       4.963   7.036  -1.504  0.00  0.00    -0.273 OA
BRANCH  14  16
ATOM     16  C   UNL     1       3.039   7.366  -0.300  0.00  0.00    +0.120 C 
BRANCH  16  17
ATOM     17  C   UNL     1       3.676   8.685  -0.045  0.00  0.00    +0.016 A 
ATOM     18  S   UNL     1       4.345   9.104   1.481  0.00  0.00    -0.090 S 
ATOM     19  C   UNL     1       4.061  10.799   1.456  0.00  0.00    +0.035 A 
ATOM     20  C   UNL     1       3.127  10.854   0.427  0.00  0.00    +0.007 A 
ATOM     21  C   UNL     1       3.387   9.929  -0.542  0.00  0.00    +0.003 A 
ENDBRANCH  16  17
ENDBRANCH  14  16
ENDBRANCH   1  13
BRANCH   1  23
ATOM     22  C   UNL     1       5.009   4.666  -4.079  0.00  0.00    +0.177 C 
ATOM     23  O   UNL     1       4.874   5.259  -3.994  0.00  0.00    -0.328 OA
ENDBRANCH   1  23
BRANCH   5  24
ATOM     24  C   UNL     1      -0.093   6.168  -7.723  0.00  0.00    +0.235 C 
BRANCH  24  25
ATOM     25  O   UNL     1       0.381   5.137  -8.564  0.00  0.00    -0.428 OA
BRANCH  25  26
ATOM     26  C   UNL     1       0.360   5.390  -9.938  0.00  0.00    +0.441 C 
ATOM     27  O   UNL     1       0.380   6.552 -10.407  0.00  0.00    -0.223 OA
ATOM     28  N   UNL     1       0.018   4.290 -10.780  0.00  0.00    -0.048 NA
ENDBRANCH  25  26
ENDBRANCH  24  25
ENDBRANCH   5  24
TORSDOF 8
ENDMDL
MODEL 8
REMARK VINA RESULT:      -6.5      3.460      8.605
REMARK  Name = 
REMARK  8 active torsions:
REMARK  status: ('A' for Active; 'I' for Inactive)
REMARK    1  A    between atoms: O_2  and  C_3
REMARK    2  A    between atoms: C_3  and  N_4
REMARK    3  A    between atoms: C_5  and  C_7
REMARK    4  A    between atoms: C_7  and  C_8
REMARK    5  A    between atoms: C_16  and  C_17
REMARK    6  A    between atoms: C_20  and  C_21
REMARK    7  A    between atoms: C_21  and  O_22
REMARK    8  A    between atoms: O_22  and  C_23
REMARK                            x       y       z     vdW  Elec       q    Type
REMARK                         _______ _______ _______ _____ _____    ______ ____
ROOT
ATOM      1  C   UNL     1       1.995   6.276  -9.785  0.00  0.00    +0.268 C 
ATOM      2  C   UNL     1       3.203   6.710 -10.728  0.00  0.00    +0.181 C 
ATOM      3  N   UNL     1       2.602   5.750 -11.750  0.00  0.00    -0.238 N 
ATOM      4  C   UNL     1       3.452   5.545 -12.881  0.00  0.00    +0.131 C 
ATOM      5  C   UNL     1       4.775   5.711 -12.832  0.00  0.00    +0.030 C 
ATOM      6  C   UNL     1       5.468   5.136 -11.632  0.00  0.00    +0.086 C 
ATOM      7  S   UNL     1       4.479   5.408 -10.120  0.00  0.00    -0.112 S 
ATOM      8  C   UNL     1       1.934   5.100 -10.654  0.00  0.00    +0.277 C 
ATOM      9  O   UNL     1       1.053   4.189 -10.739  0.00  0.00    -0.270 OA
ENDROOT
BRANCH   4  10
ATOM     10  C   UNL     1       2.721   5.190 -14.078  0.00  0.00    +0.401 C 
ATOM     11  O   UNL     1       2.522   3.915 -14.547  0.00  0.00    -0.239 OA
ATOM     12  O   UNL     1       2.097   6.125 -14.667  0.00  0.00    -0.239 OA
ENDBRANCH   4  10
BRANCH   1  13
ATOM     13  N   UNL     1       2.419   6.163  -8.440  0.00  0.00    -0.171 NA
ATOM     14  C   UNL     1       2.345   7.241  -7.495  0.00  0.00    +0.249 C 
ATOM     15  O   UNL     1       2.237   8.388  -8.032  0.00  0.00    -0.273 OA
BRANCH  14  16
ATOM     16  C   UNL     1       1.580   7.150  -6.217  0.00  0.00    +0.120 C 
BRANCH  16  17
ATOM     17  C   UNL     1       2.350   6.486  -5.132  0.00  0.00    +0.016 A 
ATOM     18  S   UNL     1       3.841   7.108  -4.550  0.00  0.00    -0.090 S 
ATOM     19  C   UNL     1       4.606   5.634  -4.107  0.00  0.00    +0.035 A 
ATOM     20  C   UNL     1       3.792   4.743  -4.797  0.00  0.00    +0.007 A 
ATOM     21  C   UNL     1       2.492   5.159  -4.819  0.00  0.00    +0.003 A 
ENDBRANCH  16  17
ENDBRANCH  14  16
ENDBRANCH   1  13
BRANCH   1  23
ATOM     22  C   UNL     1       0.335   6.922 -10.273  0.00  0.00    +0.177 C 
ATOM     23  O   UNL     1       0.879   7.085 -10.040  0.00  0.00    -0.328 OA
ENDBRANCH   1  23
BRANCH   5  24
ATOM     24  C   UNL     1       5.503   5.848 -14.101  0.00  0.00    +0.235 C 
BRANCH  24  25
ATOM     25  O   UNL     1       5.727   7.196 -14.459  0.00  0.00    -0.428 OA
BRANCH  25  26
ATOM     26  C   UNL     1       5.397   7.559 -15.768  0.00  0.00    +0.441 C 
ATOM     27  O   UNL     1       4.749   6.804 -16.531  0.00  0.00    -0.223 OA
ATOM     28  N   UNL     1       6.077   8.693 -16.302  0.00  0.00    -0.048 NA
ENDBRANCH  25  26
ENDBRANCH  24  25
ENDBRANCH   5  24
TORSDOF 8
ENDMDL
MODEL 9
REMARK VINA RESULT:      -6.3      3.519      8.553
REMARK  Name = 
REMARK  8 active torsions:
REMARK  status: ('A' for Active; 'I' for Inactive)
REMARK    1  A    between atoms: O_2  and  C_3
REMARK    2  A    between atoms: C_3  and  N_4
REMARK    3  A    between atoms: C_5  and  C_7
REMARK    4  A    between atoms: C_7  and  C_8
REMARK    5  A    between atoms: C_16  and  C_17
REMARK    6  A    between atoms: C_20  and  C_21
REMARK    7  A    between atoms: C_21  and  O_22
REMARK    8  A    between atoms: O_22  and  C_23
REMARK                            x       y       z     vdW  Elec       q    Type
REMARK                         _______ _______ _______ _____ _____    ______ ____
ROOT
ATOM      1  C   UNL     1       0.651   5.609  -9.490  0.00  0.00    +0.268 C 
ATOM      2  C   UNL     1       2.098   6.270  -9.552  0.00  0.00    +0.181 C 
ATOM      3  N   UNL     1       2.174   5.704 -10.966  0.00  0.00    -0.238 N 
ATOM      4  C   UNL     1       3.476   5.832 -11.543  0.00  0.00    +0.131 C 
ATOM      5  C   UNL     1       4.587   5.922 -10.809  0.00  0.00    +0.030 C 
ATOM      6  C   UNL     1       4.693   4.974  -9.653  0.00  0.00    +0.086 C 
ATOM      7  S   UNL     1       3.082   4.794  -8.811  0.00  0.00    -0.112 S 
ATOM      8  C   UNL     1       1.151   4.769 -10.580  0.00  0.00    +0.277 C 
ATOM      9  O   UNL     1       0.533   3.965 -11.345  0.00  0.00    -0.270 OA
ENDROOT
BRANCH   4  10
ATOM     10  C   UNL     1       3.448   5.899 -12.988  0.00  0.00    +0.401 C 
ATOM     11  O   UNL     1       4.270   5.204 -13.839  0.00  0.00    -0.239 OA
ATOM     12  O   UNL     1       2.493   6.550 -13.512  0.00  0.00    -0.239 OA
ENDBRANCH   4  10
BRANCH   1  13
ATOM     13  N   UNL     1       0.398   5.063  -8.210  0.00  0.00    -0.171 NA
ATOM     14  C   UNL     1       0.149   5.863  -7.045  0.00  0.00    +0.249 C 
ATOM     15  O   UNL     1       0.544   7.066  -7.155  0.00  0.00    -0.273 OA
BRANCH  14  16
ATOM     16  C   UNL     1      -1.103   5.758  -6.240  0.00  0.00    +0.120 C 
BRANCH  16  17
ATOM     17  C   UNL     1      -1.048   6.553  -4.985  0.00  0.00    +0.016 A 
ATOM     18  S   UNL     1      -0.465   5.898  -3.507  0.00  0.00    -0.090 S 
ATOM     19  C   UNL     1      -1.426   6.797  -2.403  0.00  0.00    +0.035 A 
ATOM     20  C   UNL     1      -2.396   7.267  -3.281  0.00  0.00    +0.007 A 
ATOM     21  C   UNL     1      -1.874   7.539  -4.513  0.00  0.00    +0.003 A 
ENDBRANCH  16  17
ENDBRANCH  14  16
ENDBRANCH   1  13
BRANCH   1  23
ATOM     22  C   UNL     1      -0.358   6.703 -10.584  0.00  0.00    +0.177 C 
ATOM     23  O   UNL     1      -0.300   6.499 -10.008  0.00  0.00    -0.328 OA
ENDBRANCH   1  23
BRANCH   5  24
ATOM     24  C   UNL     1       5.806   6.424 -11.459  0.00  0.00    +0.235 C 
BRANCH  24  25
ATOM     25  O   UNL     1       6.940   5.629 -11.179  0.00  0.00    -0.428 OA
BRANCH  25  26
ATOM     26  C   UNL     1       7.804   5.372 -12.247  0.00  0.00    +0.441 C 
ATOM     27  O   UNL     1       7.493   4.612 -13.194  0.00  0.00    -0.223 OA
ATOM     28  N   UNL     1       9.162   5.771 -12.074  0.00  0.00    -0.048 NA
ENDBRANCH  25  26
ENDBRANCH  24  25
ENDBRANCH   5  24
TORSDOF 8
ENDMDL
