MODEL 1
REMARK VINA RESULT:      -6.7      0.000      0.000
REMARK  Name = 
REMARK  6 active torsions:
REMARK  status: ('A' for Active; 'I' for Inactive)
REMARK    1  A    between atoms: N_2  and  C_4
REMARK    2  A    between atoms: C_4  and  C_5
REMARK    3  A    between atoms: C_5  and  O_6
REMARK    4  A    between atoms: O_6  and  C_7
REMARK    5  A    between atoms: C_7  and  C_8
REMARK    6  A    between atoms: C_7  and  C_14
REMARK                            x       y       z     vdW  Elec       q    Type
REMARK                         _______ _______ _______ _____ _____    ______ ____
ROOT
ATOM      1  C   UNL     1       3.823   5.706 -10.547  0.00  0.00    +0.160 C 
ENDROOT
BRANCH   1   2
ATOM      2  C   UNL     1       5.087   6.391 -10.153  0.00  0.00    +0.009 A 
ATOM      3  C   UNL     1       5.575   7.496 -10.835  0.00  0.00    -0.002 A 
ATOM      4  C   UNL     1       6.910   7.634 -11.170  0.00  0.00    -0.000 A 
ATOM      5  C   UNL     1       7.831   6.751 -10.649  0.00  0.00    -0.000 A 
ATOM      6  C   UNL     1       7.389   5.828  -9.709  0.00  0.00    -0.000 A 
ATOM      7  C   UNL     1       6.037   5.695  -9.413  0.00  0.00    -0.002 A 
ENDBRANCH   1   2
BRANCH   1   8
ATOM      8  C   UNL     1       2.923   5.476  -9.402  0.00  0.00    +0.009 A 
ATOM      9  C   UNL     1       2.675   4.249  -8.833  0.00  0.00    -0.002 A 
ATOM     10  C   UNL     1       2.471   4.149  -7.464  0.00  0.00    -0.000 A 
ATOM     11  C   UNL     1       2.240   5.252  -6.683  0.00  0.00    -0.000 A 
ATOM     12  C   UNL     1       2.333   6.483  -7.274  0.00  0.00    -0.000 A 
ATOM     13  C   UNL     1       2.598   6.579  -8.634  0.00  0.00    -0.002 A 
ENDBRANCH   1   8
BRANCH   1  14
ATOM     14  O   UNL     1       3.203   6.497 -11.502  0.00  0.00    -0.346 OA
BRANCH  14  15
ATOM     15  C   UNL     1       2.481   5.772 -12.434  0.00  0.00    +0.160 C 
BRANCH  15  16
ATOM     16  C   UNL     1       1.197   6.505 -12.717  0.00  0.00    +0.105 C 
BRANCH  16  18
ATOM     17  C   UNL     1      -0.171   5.210 -11.315  0.00  0.00    +0.090 C 
ATOM     18  N   UNL     1       0.379   6.531 -11.528  0.00  0.00    -0.268 NA
ATOM     19  C   UNL     1      -0.665   7.528 -11.613  0.00  0.00    +0.090 C 
ENDBRANCH  16  18
ENDBRANCH  15  16
ENDBRANCH  14  15
ENDBRANCH   1  14
TORSDOF 6
ENDMDL
MODEL 2
REMARK VINA RESULT:      -6.7      2.661      5.402
REMARK  Name = 
REMARK  6 active torsions:
REMARK  status: ('A' for Active; 'I' for Inactive)
REMARK    1  A    between atoms: N_2  and  C_4
REMARK    2  A    between atoms: C_4  and  C_5
REMARK    3  A    between atoms: C_5  and  O_6
REMARK    4  A    between atoms: O_6  and  C_7
REMARK    5  A    between atoms: C_7  and  C_8
REMARK    6  A    between atoms: C_7  and  C_14
REMARK                            x       y       z     vdW  Elec       q    Type
REMARK                         _______ _______ _______ _____ _____    ______ ____
ROOT
ATOM      1  C   UNL     1       1.018   5.633  -8.143  0.00  0.00    +0.160 C 
ENDROOT
BRANCH   1   2
ATOM      2  C   UNL     1       0.264   5.661  -9.430  0.00  0.00    +0.009 A 
ATOM      3  C   UNL     1       0.161   4.550 -10.253  0.00  0.00    -0.002 A 
ATOM      4  C   UNL     1       0.317   4.622 -11.625  0.00  0.00    -0.000 A 
ATOM      5  C   UNL     1       0.385   5.857 -12.232  0.00  0.00    -0.000 A 
ATOM      6  C   UNL     1       0.172   6.982 -11.445  0.00  0.00    -0.000 A 
ATOM      7  C   UNL     1       0.046   6.880 -10.064  0.00  0.00    -0.002 A 
ENDBRANCH   1   2
BRANCH   1   8
ATOM      8  C   UNL     1       0.132   5.699  -6.967  0.00  0.00    +0.009 A 
ATOM      9  C   UNL     1       0.317   6.536  -5.892  0.00  0.00    -0.002 A 
ATOM     10  C   UNL     1      -0.782   7.081  -5.241  0.00  0.00    -0.000 A 
ATOM     11  C   UNL     1      -2.054   6.615  -5.452  0.00  0.00    -0.000 A 
ATOM     12  C   UNL     1      -2.233   5.665  -6.421  0.00  0.00    -0.000 A 
ATOM     13  C   UNL     1      -1.137   5.166  -7.112  0.00  0.00    -0.002 A 
ENDBRANCH   1   8
BRANCH   1  14
ATOM     14  O   UNL     1       1.764   4.465  -8.126  0.00  0.00    -0.346 OA
BRANCH  14  15
ATOM     15  C   UNL     1       3.099   4.668  -7.823  0.00  0.00    +0.160 C 
BRANCH  15  16
ATOM     16  C   UNL     1       3.916   4.379  -9.053  0.00  0.00    +0.105 C 
BRANCH  16  18
ATOM     17  C   UNL     1       3.869   5.749 -10.959  0.00  0.00    +0.090 C 
ATOM     18  N   UNL     1       4.398   5.616  -9.619  0.00  0.00    -0.268 NA
ATOM     19  C   UNL     1       5.841   5.686  -9.613  0.00  0.00    +0.090 C 
ENDBRANCH  16  18
ENDBRANCH  15  16
ENDBRANCH  14  15
ENDBRANCH   1  14
TORSDOF 6
ENDMDL
MODEL 3
REMARK VINA RESULT:      -6.7      3.333      5.813
REMARK  Name = 
REMARK  6 active torsions:
REMARK  status: ('A' for Active; 'I' for Inactive)
REMARK    1  A    between atoms: N_2  and  C_4
REMARK    2  A    between atoms: C_4  and  C_5
REMARK    3  A    between atoms: C_5  and  O_6
REMARK    4  A    between atoms: O_6  and  C_7
REMARK    5  A    between atoms: C_7  and  C_8
REMARK    6  A    between atoms: C_7  and  C_14
REMARK                            x       y       z     vdW  Elec       q    Type
REMARK                         _______ _______ _______ _____ _____    ______ ____
ROOT
ATOM      1  C   UNL     1       1.282   6.073  -7.123  0.00  0.00    +0.160 C 
ENDROOT
BRANCH   1   2
ATOM      2  C   UNL     1       0.138   5.991  -6.171  0.00  0.00    +0.009 A 
ATOM      3  C   UNL     1      -1.029   5.304  -6.471  0.00  0.00    -0.002 A 
ATOM      4  C   UNL     1      -2.285   5.817  -6.205  0.00  0.00    -0.000 A 
ATOM      5  C   UNL     1      -2.400   6.958  -5.440  0.00  0.00    -0.000 A 
ATOM      6  C   UNL     1      -1.244   7.476  -4.868  0.00  0.00    -0.000 A 
ATOM      7  C   UNL     1       0.008   6.956  -5.178  0.00  0.00    -0.002 A 
ENDBRANCH   1   2
BRANCH   1   8
ATOM      8  C   UNL     1       2.589   5.968  -6.449  0.00  0.00    +0.009 A 
ATOM      9  C   UNL     1       3.414   7.031  -6.166  0.00  0.00    -0.002 A 
ATOM     10  C   UNL     1       4.171   7.030  -5.003  0.00  0.00    -0.000 A 
ATOM     11  C   UNL     1       4.339   5.897  -4.249  0.00  0.00    -0.000 A 
ATOM     12  C   UNL     1       3.637   4.779  -4.611  0.00  0.00    -0.000 A 
ATOM     13  C   UNL     1       2.832   4.804  -5.742  0.00  0.00    -0.002 A 
ENDBRANCH   1   8
BRANCH   1  14
ATOM     14  O   UNL     1       1.127   5.051  -8.047  0.00  0.00    -0.346 OA
BRANCH  14  15
ATOM     15  C   UNL     1       1.642   5.352  -9.295  0.00  0.00    +0.160 C 
BRANCH  15  16
ATOM     16  C   UNL     1       1.000   6.624  -9.781  0.00  0.00    +0.105 C 
BRANCH  16  18
ATOM     17  C   UNL     1       0.194   5.117 -11.391  0.00  0.00    +0.090 C 
ATOM     18  N   UNL     1      -0.120   6.309 -10.634  0.00  0.00    -0.268 NA
ATOM     19  C   UNL     1      -0.462   7.410 -11.506  0.00  0.00    +0.090 C 
ENDBRANCH  16  18
ENDBRANCH  15  16
ENDBRANCH  14  15
ENDBRANCH   1  14
TORSDOF 6
ENDMDL
MODEL 4
REMARK VINA RESULT:      -6.6      1.198      4.382
REMARK  Name = 
REMARK  6 active torsions:
REMARK  status: ('A' for Active; 'I' for Inactive)
REMARK    1  A    between atoms: N_2  and  C_4
REMARK    2  A    between atoms: C_4  and  C_5
REMARK    3  A    between atoms: C_5  and  O_6
REMARK    4  A    between atoms: O_6  and  C_7
REMARK    5  A    between atoms: C_7  and  C_8
REMARK    6  A    between atoms: C_7  and  C_14
REMARK                            x       y       z     vdW  Elec       q    Type
REMARK                         _______ _______ _______ _____ _____    ______ ____
ROOT
ATOM      1  C   UNL     1       4.187   6.514 -11.230  0.00  0.00    +0.160 C 
ENDROOT
BRANCH   1   2
ATOM      2  C   UNL     1       3.976   6.059  -9.826  0.00  0.00    +0.009 A 
ATOM      3  C   UNL     1       4.017   4.720  -9.466  0.00  0.00    -0.002 A 
ATOM      4  C   UNL     1       3.088   4.147  -8.617  0.00  0.00    -0.000 A 
ATOM      5  C   UNL     1       2.201   4.958  -7.942  0.00  0.00    -0.000 A 
ATOM      6  C   UNL     1       2.361   6.334  -8.057  0.00  0.00    -0.000 A 
ATOM      7  C   UNL     1       3.285   6.880  -8.941  0.00  0.00    -0.002 A 
ENDBRANCH   1   2
BRANCH   1   8
ATOM      8  C   UNL     1       5.614   6.595 -11.591  0.00  0.00    +0.009 A 
ATOM      9  C   UNL     1       6.550   7.348 -10.923  0.00  0.00    -0.002 A 
ATOM     10  C   UNL     1       7.852   6.882 -10.796  0.00  0.00    -0.000 A 
ATOM     11  C   UNL     1       8.319   5.827 -11.536  0.00  0.00    -0.000 A 
ATOM     12  C   UNL     1       7.425   5.158 -12.328  0.00  0.00    -0.000 A 
ATOM     13  C   UNL     1       6.108   5.591 -12.404  0.00  0.00    -0.002 A 
ENDBRANCH   1   8
BRANCH   1  14
ATOM     14  O   UNL     1       3.525   5.621 -12.059  0.00  0.00    -0.346 OA
BRANCH  14  15
ATOM     15  C   UNL     1       2.487   6.195 -12.771  0.00  0.00    +0.160 C 
BRANCH  15  16
ATOM     16  C   UNL     1       1.247   5.368 -12.556  0.00  0.00    +0.105 C 
BRANCH  16  18
ATOM     17  C   UNL     1      -0.066   4.454 -10.838  0.00  0.00    +0.090 C 
ATOM     18  N   UNL     1       0.736   5.593 -11.225  0.00  0.00    -0.268 NA
ATOM     19  C   UNL     1      -0.019   6.823 -11.138  0.00  0.00    +0.090 C 
ENDBRANCH  16  18
ENDBRANCH  15  16
ENDBRANCH  14  15
ENDBRANCH   1  14
TORSDOF 6
ENDMDL
MODEL 5
REMARK VINA RESULT:      -6.6      2.312      4.285
REMARK  Name = 
REMARK  6 active torsions:
REMARK  status: ('A' for Active; 'I' for Inactive)
REMARK    1  A    between atoms: N_2  and  C_4
REMARK    2  A    between atoms: C_4  and  C_5
REMARK    3  A    between atoms: C_5  and  O_6
REMARK    4  A    between atoms: O_6  and  C_7
REMARK    5  A    between atoms: C_7  and  C_8
REMARK    6  A    between atoms: C_7  and  C_14
REMARK                            x       y       z     vdW  Elec       q    Type
REMARK                         _______ _______ _______ _____ _____    ______ ____
ROOT
ATOM      1  C   UNL     1       3.817   6.205  -8.347  0.00  0.00    +0.160 C 
ENDROOT
BRANCH   1   2
ATOM      2  C   UNL     1       4.811   6.086  -9.452  0.00  0.00    +0.009 A 
ATOM      3  C   UNL     1       6.052   5.492  -9.273  0.00  0.00    -0.002 A 
ATOM      4  C   UNL     1       7.218   6.039  -9.775  0.00  0.00    -0.000 A 
ATOM      5  C   UNL     1       7.144   7.101 -10.649  0.00  0.00    -0.000 A 
ATOM      6  C   UNL     1       5.885   7.502 -11.082  0.00  0.00    -0.000 A 
ATOM      7  C   UNL     1       4.729   6.952 -10.537  0.00  0.00    -0.002 A 
ENDBRANCH   1   2
BRANCH   1   8
ATOM      8  C   UNL     1       2.437   5.948  -8.796  0.00  0.00    +0.009 A 
ATOM      9  C   UNL     1       1.520   6.923  -9.109  0.00  0.00    -0.002 A 
ATOM     10  C   UNL     1       0.607   6.712 -10.134  0.00  0.00    -0.000 A 
ATOM     11  C   UNL     1       0.401   5.469 -10.676  0.00  0.00    -0.000 A 
ATOM     12  C   UNL     1       1.211   4.449 -10.258  0.00  0.00    -0.000 A 
ATOM     13  C   UNL     1       2.164   4.680  -9.276  0.00  0.00    -0.002 A 
ENDBRANCH   1   8
BRANCH   1  14
ATOM     14  O   UNL     1       4.184   5.302  -7.361  0.00  0.00    -0.346 OA
BRANCH  14  15
ATOM     15  C   UNL     1       3.999   5.784  -6.076  0.00  0.00    +0.160 C 
BRANCH  15  16
ATOM     16  C   UNL     1       3.285   4.731  -5.271  0.00  0.00    +0.105 C 
BRANCH  16  18
ATOM     17  C   UNL     1       1.001   4.476  -5.749  0.00  0.00    +0.090 C 
ATOM     18  N   UNL     1       1.959   5.191  -4.935  0.00  0.00    -0.268 NA
ATOM     19  C   UNL     1       1.827   6.621  -5.100  0.00  0.00    +0.090 C 
ENDBRANCH  16  18
ENDBRANCH  15  16
ENDBRANCH  14  15
ENDBRANCH   1  14
TORSDOF 6
ENDMDL
MODEL 6
REMARK VINA RESULT:      -6.6      2.944      6.195
REMARK  Name = 
REMARK  6 active torsions:
REMARK  status: ('A' for Active; 'I' for Inactive)
REMARK    1  A    between atoms: N_2  and  C_4
REMARK    2  A    between atoms: C_4  and  C_5
REMARK    3  A    between atoms: C_5  and  O_6
REMARK    4  A    between atoms: O_6  and  C_7
REMARK    5  A    between atoms: C_7  and  C_8
REMARK    6  A    between atoms: C_7  and  C_14
REMARK                            x       y       z     vdW  Elec       q    Type
REMARK                         _______ _______ _______ _____ _____    ______ ____
ROOT
ATOM      1  C   UNL     1       1.470   6.609  -6.905  0.00  0.00    +0.160 C 
ENDROOT
BRANCH   1   2
ATOM      2  C   UNL     1       0.279   6.235  -6.091  0.00  0.00    +0.009 A 
ATOM      3  C   UNL     1      -0.723   5.407  -6.577  0.00  0.00    -0.002 A 
ATOM      4  C   UNL     1      -2.066   5.677  -6.395  0.00  0.00    -0.000 A 
ATOM      5  C   UNL     1      -2.441   6.689  -5.539  0.00  0.00    -0.000 A 
ATOM      6  C   UNL     1      -1.446   7.320  -4.801  0.00  0.00    -0.000 A 
ATOM      7  C   UNL     1      -0.101   7.047  -5.027  0.00  0.00    -0.002 A 
ENDBRANCH   1   2
BRANCH   1   8
ATOM      8  C   UNL     1       2.740   6.255  -6.246  0.00  0.00    +0.009 A 
ATOM      9  C   UNL     1       3.628   7.162  -5.716  0.00  0.00    -0.002 A 
ATOM     10  C   UNL     1       4.340   6.843  -4.567  0.00  0.00    -0.000 A 
ATOM     11  C   UNL     1       4.399   5.562  -4.084  0.00  0.00    -0.000 A 
ATOM     12  C   UNL     1       3.633   4.610  -4.701  0.00  0.00    -0.000 A 
ATOM     13  C   UNL     1       2.875   4.948  -5.813  0.00  0.00    -0.002 A 
ENDBRANCH   1   8
BRANCH   1  14
ATOM     14  O   UNL     1       1.358   5.960  -8.125  0.00  0.00    -0.346 OA
BRANCH  14  15
ATOM     15  C   UNL     1       1.684   6.760  -9.207  0.00  0.00    +0.160 C 
BRANCH  15  16
ATOM     16  C   UNL     1       2.705   6.036 -10.043  0.00  0.00    +0.105 C 
BRANCH  16  18
ATOM     17  C   UNL     1       4.744   7.049 -10.618  0.00  0.00    +0.090 C 
ATOM     18  N   UNL     1       4.032   6.349  -9.571  0.00  0.00    -0.268 NA
ATOM     19  C   UNL     1       4.747   5.166  -9.148  0.00  0.00    +0.090 C 
ENDBRANCH  16  18
ENDBRANCH  15  16
ENDBRANCH  14  15
ENDBRANCH   1  14
TORSDOF 6
ENDMDL
MODEL 7
REMARK VINA RESULT:      -6.5      1.391      1.696
REMARK  Name = 
REMARK  6 active torsions:
REMARK  status: ('A' for Active; 'I' for Inactive)
REMARK    1  A    between atoms: N_2  and  C_4
REMARK    2  A    between atoms: C_4  and  C_5
REMARK    3  A    between atoms: C_5  and  O_6
REMARK    4  A    between atoms: O_6  and  C_7
REMARK    5  A    between atoms: C_7  and  C_8
REMARK    6  A    between atoms: C_7  and  C_14
REMARK                            x       y       z     vdW  Elec       q    Type
REMARK                         _______ _______ _______ _____ _____    ______ ____
ROOT
ATOM      1  C   UNL     1       3.681   5.862 -10.443  0.00  0.00    +0.160 C 
ENDROOT
BRANCH   1   2
ATOM      2  C   UNL     1       5.000   6.481 -10.129  0.00  0.00    +0.009 A 
ATOM      3  C   UNL     1       5.542   7.503 -10.894  0.00  0.00    -0.002 A 
ATOM      4  C   UNL     1       6.871   7.526 -11.274  0.00  0.00    -0.000 A 
ATOM      5  C   UNL     1       7.746   6.616 -10.722  0.00  0.00    -0.000 A 
ATOM      6  C   UNL     1       7.272   5.788  -9.711  0.00  0.00    -0.000 A 
ATOM      7  C   UNL     1       5.924   5.768  -9.371  0.00  0.00    -0.002 A 
ENDBRANCH   1   2
BRANCH   1   8
ATOM      8  C   UNL     1       2.736   5.938  -9.314  0.00  0.00    +0.009 A 
ATOM      9  C   UNL     1       2.366   4.872  -8.528  0.00  0.00    -0.002 A 
ATOM     10  C   UNL     1       2.121   5.061  -7.175  0.00  0.00    -0.000 A 
ATOM     11  C   UNL     1       1.970   6.312  -6.634  0.00  0.00    -0.000 A 
ATOM     12  C   UNL     1       2.188   7.390  -7.449  0.00  0.00    -0.000 A 
ATOM     13  C   UNL     1       2.493   7.194  -8.789  0.00  0.00    -0.002 A 
ENDBRANCH   1   8
BRANCH   1  14
ATOM     14  O   UNL     1       3.169   6.519 -11.551  0.00  0.00    -0.346 OA
BRANCH  14  15
ATOM     15  C   UNL     1       2.257   5.764 -12.268  0.00  0.00    +0.160 C 
BRANCH  15  16
ATOM     16  C   UNL     1       2.749   5.641 -13.685  0.00  0.00    +0.105 C 
BRANCH  16  18
ATOM     17  C   UNL     1       0.867   6.485 -14.807  0.00  0.00    +0.090 C 
ATOM     18  N   UNL     1       1.650   5.295 -14.554  0.00  0.00    -0.268 NA
ATOM     19  C   UNL     1       0.836   4.237 -14.000  0.00  0.00    +0.090 C 
ENDBRANCH  16  18
ENDBRANCH  15  16
ENDBRANCH  14  15
ENDBRANCH   1  14
TORSDOF 6
ENDMDL
MODEL 8
REMARK VINA RESULT:      -6.4      5.982      8.574
REMARK  Name = 
REMARK  6 active torsions:
REMARK  status: ('A' for Active; 'I' for Inactive)
REMARK    1  A    between atoms: N_2  and  C_4
REMARK    2  A    between atoms: C_4  and  C_5
REMARK    3  A    between atoms: C_5  and  O_6
REMARK    4  A    between atoms: O_6  and  C_7
REMARK    5  A    between atoms: C_7  and  C_8
REMARK    6  A    between atoms: C_7  and  C_14
REMARK                            x       y       z     vdW  Elec       q    Type
REMARK                         _______ _______ _______ _____ _____    ______ ____
ROOT
ATOM      1  C   UNL     1       1.043   5.554  -4.253  0.00  0.00    +0.160 C 
ENDROOT
BRANCH   1   2
ATOM      2  C   UNL     1       0.054   6.067  -5.244  0.00  0.00    +0.009 A 
ATOM      3  C   UNL     1      -0.970   6.932  -4.890  0.00  0.00    -0.002 A 
ATOM      4  C   UNL     1      -2.268   6.774  -5.341  0.00  0.00    -0.000 A 
ATOM      5  C   UNL     1      -2.532   5.850  -6.328  0.00  0.00    -0.000 A 
ATOM      6  C   UNL     1      -1.453   5.197  -6.913  0.00  0.00    -0.000 A 
ATOM      7  C   UNL     1      -0.163   5.355  -6.419  0.00  0.00    -0.002 A 
ENDBRANCH   1   2
BRANCH   1   8
ATOM      8  C   UNL     1       2.432   5.892  -4.611  0.00  0.00    +0.009 A 
ATOM      9  C   UNL     1       2.967   7.158  -4.569  0.00  0.00    -0.002 A 
ATOM     10  C   UNL     1       4.294   7.337  -4.204  0.00  0.00    -0.000 A 
ATOM     11  C   UNL     1       5.176   6.289  -4.141  0.00  0.00    -0.000 A 
ATOM     12  C   UNL     1       4.683   5.027  -4.334  0.00  0.00    -0.000 A 
ATOM     13  C   UNL     1       3.340   4.849  -4.638  0.00  0.00    -0.002 A 
ENDBRANCH   1   8
BRANCH   1  14
ATOM     14  O   UNL     1       0.713   6.096  -3.020  0.00  0.00    -0.346 OA
BRANCH  14  15
ATOM     15  C   UNL     1       0.677   5.162  -1.999  0.00  0.00    +0.160 C 
BRANCH  15  16
ATOM     16  C   UNL     1       1.161   5.820  -0.735  0.00  0.00    +0.105 C 
BRANCH  16  18
ATOM     17  C   UNL     1       3.493   5.583  -0.875  0.00  0.00    +0.090 C 
ATOM     18  N   UNL     1       2.397   6.519  -0.992  0.00  0.00    -0.268 NA
ATOM     19  C   UNL     1       2.572   7.648  -0.106  0.00  0.00    +0.090 C 
ENDBRANCH  16  18
ENDBRANCH  15  16
ENDBRANCH  14  15
ENDBRANCH   1  14
TORSDOF 6
ENDMDL
MODEL 9
REMARK VINA RESULT:      -6.4      2.765      6.397
REMARK  Name = 
REMARK  6 active torsions:
REMARK  status: ('A' for Active; 'I' for Inactive)
REMARK    1  A    between atoms: N_2  and  C_4
REMARK    2  A    between atoms: C_4  and  C_5
REMARK    3  A    between atoms: C_5  and  O_6
REMARK    4  A    between atoms: O_6  and  C_7
REMARK    5  A    between atoms: C_7  and  C_8
REMARK    6  A    between atoms: C_7  and  C_14
REMARK                            x       y       z     vdW  Elec       q    Type
REMARK                         _______ _______ _______ _____ _____    ______ ____
ROOT
ATOM      1  C   UNL     1       1.010   5.659  -8.006  0.00  0.00    +0.160 C 
ENDROOT
BRANCH   1   2
ATOM      2  C   UNL     1       0.045   5.578  -6.871  0.00  0.00    +0.009 A 
ATOM      3  C   UNL     1      -1.246   5.095  -7.028  0.00  0.00    -0.002 A 
ATOM      4  C   UNL     1      -2.346   5.716  -6.466  0.00  0.00    -0.000 A 
ATOM      5  C   UNL     1      -2.156   6.734  -5.558  0.00  0.00    -0.000 A 
ATOM      6  C   UNL     1      -0.855   7.013  -5.155  0.00  0.00    -0.000 A 
ATOM      7  C   UNL     1       0.233   6.392  -5.760  0.00  0.00    -0.002 A 
ENDBRANCH   1   2
BRANCH   1   8
ATOM      8  C   UNL     1       0.339   5.714  -9.317  0.00  0.00    +0.009 A 
ATOM      9  C   UNL     1      -0.020   6.871  -9.967  0.00  0.00    -0.002 A 
ATOM     10  C   UNL     1       0.049   6.937 -11.352  0.00  0.00    -0.000 A 
ATOM     11  C   UNL     1       0.203   5.815 -12.124  0.00  0.00    -0.000 A 
ATOM     12  C   UNL     1       0.409   4.623 -11.484  0.00  0.00    -0.000 A 
ATOM     13  C   UNL     1       0.401   4.572 -10.097  0.00  0.00    -0.002 A 
ENDBRANCH   1   8
BRANCH   1  14
ATOM     14  O   UNL     1       1.786   6.790  -7.809  0.00  0.00    -0.346 OA
BRANCH  14  15
ATOM     15  C   UNL     1       3.065   6.678  -8.327  0.00  0.00    +0.160 C 
BRANCH  15  16
ATOM     16  C   UNL     1       3.649   5.366  -7.876  0.00  0.00    +0.105 C 
BRANCH  16  18
ATOM     17  C   UNL     1       5.852   5.298  -8.685  0.00  0.00    +0.090 C 
ATOM     18  N   UNL     1       4.502   4.832  -8.911  0.00  0.00    -0.268 NA
ATOM     19  C   UNL     1       4.035   5.188 -10.232  0.00  0.00    +0.090 C 
ENDBRANCH  16  18
ENDBRANCH  15  16
ENDBRANCH  14  15
ENDBRANCH   1  14
TORSDOF 6
ENDMDL
