MODEL 1
REMARK VINA RESULT:      -6.6      0.000      0.000
REMARK  Name = 
REMARK  10 active torsions:
REMARK  status: ('A' for Active; 'I' for Inactive)
REMARK    1  A    between atoms: O_2  and  C_3
REMARK    2  A    between atoms: C_3  and  C_5
REMARK    3  A    between atoms: C_5  and  C_6
REMARK    4  A    between atoms: C_6  and  C_7
REMARK    5  A    between atoms: C_10  and  O_11
REMARK    6  A    between atoms: O_11  and  C_12
REMARK    7  A    between atoms: C_12  and  C_13
REMARK    8  A    between atoms: C_13  and  C_15
REMARK    9  A    between atoms: C_15  and  N_16
REMARK   10  A    between atoms: N_16  and  C_17
REMARK                            x       y       z     vdW  Elec       q    Type
REMARK                         _______ _______ _______ _____ _____    ______ ____
ROOT
ATOM      1  C   UNL     1       6.919   6.724 -10.557  0.00  0.00    -0.021 A 
ATOM      2  C   UNL     1       5.754   7.409 -10.819  0.00  0.00    -0.001 A 
ATOM      3  C   UNL     1       4.528   6.913 -10.393  0.00  0.00    +0.037 A 
ATOM      4  C   UNL     1       4.457   5.766  -9.629  0.00  0.00    +0.139 A 
ATOM      5  C   UNL     1       5.640   5.301  -9.072  0.00  0.00    +0.037 A 
ATOM      6  C   UNL     1       6.854   5.820  -9.504  0.00  0.00    -0.001 A 
ENDROOT
BRANCH   1   7
ATOM      7  C   UNL     1       8.078   6.663 -11.465  0.00  0.00    +0.038 C 
BRANCH   7   8
ATOM      8  C   UNL     1       8.163   5.377 -12.234  0.00  0.00    +0.114 C 
BRANCH   8   9
ATOM      9  C   UNL     1       7.225   5.474 -13.393  0.00  0.00    +0.317 C 
ATOM     10  O   UNL     1       7.268   6.462 -14.186  0.00  0.00    -0.250 OA
BRANCH   9  12
ATOM     11  C   UNL     1       4.926   5.306 -13.707  0.00  0.00    +0.256 C 
ATOM     12  O   UNL     1       6.014   4.775 -13.357  0.00  0.00    -0.444 OA
ENDBRANCH   9  12
ENDBRANCH   8   9
ENDBRANCH   7   8
ENDBRANCH   1   7
BRANCH   4  13
ATOM     13  O   UNL     1       3.393   4.878  -9.686  0.00  0.00    -0.473 OA
BRANCH  13  14
ATOM     14  C   UNL     1       2.765   4.439  -8.501  0.00  0.00    +0.240 C 
BRANCH  14  15
ATOM     15  C   UNL     1       2.024   5.839  -7.932  0.00  0.00    +0.213 C 
ATOM     16  O   UNL     1       1.220   5.024  -6.888  0.00  0.00    -0.218 OA
BRANCH  15  17
ATOM     17  C   UNL     1       0.798   5.687  -9.072  0.00  0.00    +0.125 C 
BRANCH  17  18
ATOM     18  N   UNL     1       0.813   6.946  -9.775  0.00  0.00    -0.217 NA
BRANCH  18  19
ATOM     19  C   UNL     1       0.493   6.628 -11.165  0.00  0.00    +0.073 C 
ATOM     20  C   UNL     1      -0.612   7.555 -11.591  0.00  0.00    +0.019 C 
ATOM     21  C   UNL     1       0.179   5.176 -11.368  0.00  0.00    +0.019 C 
ENDBRANCH  18  19
ENDBRANCH  17  18
ENDBRANCH  15  17
ENDBRANCH  14  15
ENDBRANCH  13  14
ENDBRANCH   4  13
TORSDOF 10
ENDMDL
MODEL 2
REMARK VINA RESULT:      -6.5      2.572      3.492
REMARK  Name = 
REMARK  10 active torsions:
REMARK  status: ('A' for Active; 'I' for Inactive)
REMARK    1  A    between atoms: O_2  and  C_3
REMARK    2  A    between atoms: C_3  and  C_5
REMARK    3  A    between atoms: C_5  and  C_6
REMARK    4  A    between atoms: C_6  and  C_7
REMARK    5  A    between atoms: C_10  and  O_11
REMARK    6  A    between atoms: O_11  and  C_12
REMARK    7  A    between atoms: C_12  and  C_13
REMARK    8  A    between atoms: C_13  and  C_15
REMARK    9  A    between atoms: C_15  and  N_16
REMARK   10  A    between atoms: N_16  and  C_17
REMARK                            x       y       z     vdW  Elec       q    Type
REMARK                         _______ _______ _______ _____ _____    ______ ____
ROOT
ATOM      1  C   UNL     1       5.730   6.202 -10.006  0.00  0.00    -0.021 A 
ATOM      2  C   UNL     1       5.795   5.321  -8.949  0.00  0.00    -0.001 A 
ATOM      3  C   UNL     1       4.834   5.344  -7.948  0.00  0.00    +0.037 A 
ATOM      4  C   UNL     1       3.748   6.191  -8.028  0.00  0.00    +0.139 A 
ATOM      5  C   UNL     1       3.505   6.796  -9.254  0.00  0.00    +0.037 A 
ATOM      6  C   UNL     1       4.477   6.751 -10.247  0.00  0.00    -0.001 A 
ENDROOT
BRANCH   1   7
ATOM      7  C   UNL     1       6.900   6.804 -10.670  0.00  0.00    +0.038 C 
BRANCH   7   8
ATOM      8  C   UNL     1       6.834   6.734 -12.167  0.00  0.00    +0.114 C 
BRANCH   8   9
ATOM      9  C   UNL     1       6.826   5.291 -12.558  0.00  0.00    +0.317 C 
ATOM     10  O   UNL     1       7.896   4.612 -12.567  0.00  0.00    -0.250 OA
BRANCH   9  12
ATOM     11  C   UNL     1       4.832   5.534 -13.731  0.00  0.00    +0.256 C 
ATOM     12  O   UNL     1       5.787   4.802 -13.357  0.00  0.00    -0.444 OA
ENDBRANCH   9  12
ENDBRANCH   8   9
ENDBRANCH   7   8
ENDBRANCH   1   7
BRANCH   4  13
ATOM     13  O   UNL     1       3.129   6.745  -6.917  0.00  0.00    -0.473 OA
BRANCH  13  14
ATOM     14  C   UNL     1       1.803   6.393  -6.588  0.00  0.00    +0.240 C 
BRANCH  14  15
ATOM     15  C   UNL     1       2.009   5.346  -5.287  0.00  0.00    +0.213 C 
ATOM     16  O   UNL     1       0.999   4.342  -5.897  0.00  0.00    -0.218 OA
BRANCH  15  17
ATOM     17  C   UNL     1       0.792   6.128  -4.429  0.00  0.00    +0.125 C 
BRANCH  17  18
ATOM     18  N   UNL     1      -0.010   6.756  -5.450  0.00  0.00    -0.217 NA
BRANCH  18  19
ATOM     19  C   UNL     1      -1.379   6.753  -4.937  0.00  0.00    +0.073 C 
ATOM     20  C   UNL     1      -2.235   6.053  -5.956  0.00  0.00    +0.019 C 
ATOM     21  C   UNL     1      -1.863   8.126  -4.578  0.00  0.00    +0.019 C 
ENDBRANCH  18  19
ENDBRANCH  17  18
ENDBRANCH  15  17
ENDBRANCH  14  15
ENDBRANCH  13  14
ENDBRANCH   4  13
TORSDOF 10
ENDMDL
MODEL 3
REMARK VINA RESULT:      -6.3      2.892      4.340
REMARK  Name = 
REMARK  10 active torsions:
REMARK  status: ('A' for Active; 'I' for Inactive)
REMARK    1  A    between atoms: O_2  and  C_3
REMARK    2  A    between atoms: C_3  and  C_5
REMARK    3  A    between atoms: C_5  and  C_6
REMARK    4  A    between atoms: C_6  and  C_7
REMARK    5  A    between atoms: C_10  and  O_11
REMARK    6  A    between atoms: O_11  and  C_12
REMARK    7  A    between atoms: C_12  and  C_13
REMARK    8  A    between atoms: C_13  and  C_15
REMARK    9  A    between atoms: C_15  and  N_16
REMARK   10  A    between atoms: N_16  and  C_17
REMARK                            x       y       z     vdW  Elec       q    Type
REMARK                         _______ _______ _______ _____ _____    ______ ____
ROOT
ATOM      1  C   UNL     1       5.716   6.097  -9.865  0.00  0.00    -0.021 A 
ATOM      2  C   UNL     1       5.655   5.274  -8.762  0.00  0.00    -0.001 A 
ATOM      3  C   UNL     1       4.647   5.427  -7.819  0.00  0.00    +0.037 A 
ATOM      4  C   UNL     1       3.639   6.351  -8.005  0.00  0.00    +0.139 A 
ATOM      5  C   UNL     1       3.510   6.903  -9.272  0.00  0.00    +0.037 A 
ATOM      6  C   UNL     1       4.526   6.728 -10.204  0.00  0.00    -0.001 A 
ENDROOT
BRANCH   1   7
ATOM      7  C   UNL     1       6.964   6.568 -10.492  0.00  0.00    +0.038 C 
BRANCH   7   8
ATOM      8  C   UNL     1       6.879   6.663 -11.986  0.00  0.00    +0.114 C 
BRANCH   8   9
ATOM      9  C   UNL     1       6.862   5.272 -12.533  0.00  0.00    +0.317 C 
ATOM     10  O   UNL     1       7.941   4.659 -12.792  0.00  0.00    -0.250 OA
BRANCH   9  12
ATOM     11  C   UNL     1       4.892   5.603 -13.726  0.00  0.00    +0.256 C 
ATOM     12  O   UNL     1       5.725   4.813 -13.207  0.00  0.00    -0.444 OA
ENDBRANCH   9  12
ENDBRANCH   8   9
ENDBRANCH   7   8
ENDBRANCH   1   7
BRANCH   4  13
ATOM     13  O   UNL     1       3.010   7.013  -6.961  0.00  0.00    -0.473 OA
BRANCH  13  14
ATOM     14  C   UNL     1       1.628   6.838  -6.734  0.00  0.00    +0.240 C 
BRANCH  14  15
ATOM     15  C   UNL     1       1.594   5.971  -5.293  0.00  0.00    +0.213 C 
ATOM     16  O   UNL     1       0.396   6.810  -4.782  0.00  0.00    -0.218 OA
BRANCH  15  17
ATOM     17  C   UNL     1       2.699   7.030  -4.597  0.00  0.00    +0.125 C 
BRANCH  17  18
ATOM     18  N   UNL     1       3.131   6.351  -3.400  0.00  0.00    -0.217 NA
BRANCH  18  19
ATOM     19  C   UNL     1       4.579   6.196  -3.533  0.00  0.00    +0.073 C 
ATOM     20  C   UNL     1       5.089   7.396  -4.283  0.00  0.00    +0.019 C 
ATOM     21  C   UNL     1       4.964   4.885  -4.151  0.00  0.00    +0.019 C 
ENDBRANCH  18  19
ENDBRANCH  17  18
ENDBRANCH  15  17
ENDBRANCH  14  15
ENDBRANCH  13  14
ENDBRANCH   4  13
TORSDOF 10
ENDMDL
MODEL 4
REMARK VINA RESULT:      -6.3      3.686      8.715
REMARK  Name = 
REMARK  10 active torsions:
REMARK  status: ('A' for Active; 'I' for Inactive)
REMARK    1  A    between atoms: O_2  and  C_3
REMARK    2  A    between atoms: C_3  and  C_5
REMARK    3  A    between atoms: C_5  and  C_6
REMARK    4  A    between atoms: C_6  and  C_7
REMARK    5  A    between atoms: C_10  and  O_11
REMARK    6  A    between atoms: O_11  and  C_12
REMARK    7  A    between atoms: C_12  and  C_13
REMARK    8  A    between atoms: C_13  and  C_15
REMARK    9  A    between atoms: C_15  and  N_16
REMARK   10  A    between atoms: N_16  and  C_17
REMARK                            x       y       z     vdW  Elec       q    Type
REMARK                         _______ _______ _______ _____ _____    ______ ____
ROOT
ATOM      1  C   UNL     1      -1.044   6.240  -5.603  0.00  0.00    -0.021 A 
ATOM      2  C   UNL     1      -1.140   5.379  -6.673  0.00  0.00    -0.001 A 
ATOM      3  C   UNL     1      -0.207   5.421  -7.701  0.00  0.00    +0.037 A 
ATOM      4  C   UNL     1       0.879   6.269  -7.637  0.00  0.00    +0.139 A 
ATOM      5  C   UNL     1       1.157   6.851  -6.408  0.00  0.00    +0.037 A 
ATOM      6  C   UNL     1       0.214   6.787  -5.388  0.00  0.00    -0.001 A 
ENDROOT
BRANCH   1   7
ATOM      7  C   UNL     1      -2.195   6.828  -4.894  0.00  0.00    +0.038 C 
BRANCH   7   8
ATOM      8  C   UNL     1      -2.018   6.869  -3.405  0.00  0.00    +0.114 C 
BRANCH   8   9
ATOM      9  C   UNL     1      -2.003   5.459  -2.907  0.00  0.00    +0.317 C 
ATOM     10  O   UNL     1      -3.019   4.711  -3.036  0.00  0.00    -0.250 OA
BRANCH   9  12
ATOM     11  C   UNL     1       0.143   5.197  -2.048  0.00  0.00    +0.256 C 
ATOM     12  O   UNL     1      -1.105   5.096  -1.898  0.00  0.00    -0.444 OA
ENDBRANCH   9  12
ENDBRANCH   8   9
ENDBRANCH   7   8
ENDBRANCH   1   7
BRANCH   4  13
ATOM     13  O   UNL     1       1.465   6.844  -8.755  0.00  0.00    -0.473 OA
BRANCH  13  14
ATOM     14  C   UNL     1       2.854   6.726  -8.975  0.00  0.00    +0.240 C 
BRANCH  14  15
ATOM     15  C   UNL     1       3.099   5.062  -8.915  0.00  0.00    +0.213 C 
ATOM     16  O   UNL     1       4.157   5.229  -7.795  0.00  0.00    -0.218 OA
BRANCH  15  17
ATOM     17  C   UNL     1       4.275   5.164 -10.112  0.00  0.00    +0.125 C 
BRANCH  17  18
ATOM     18  N   UNL     1       4.729   6.531 -10.044  0.00  0.00    -0.217 NA
BRANCH  18  19
ATOM     19  C   UNL     1       6.003   6.563 -10.758  0.00  0.00    +0.073 C 
ATOM     20  C   UNL     1       7.029   5.914  -9.869  0.00  0.00    +0.019 C 
ATOM     21  C   UNL     1       6.378   7.942 -11.210  0.00  0.00    +0.019 C 
ENDBRANCH  18  19
ENDBRANCH  17  18
ENDBRANCH  15  17
ENDBRANCH  14  15
ENDBRANCH  13  14
ENDBRANCH   4  13
TORSDOF 10
ENDMDL
MODEL 5
REMARK VINA RESULT:      -6.2      4.829      9.687
REMARK  Name = 
REMARK  10 active torsions:
REMARK  status: ('A' for Active; 'I' for Inactive)
REMARK    1  A    between atoms: O_2  and  C_3
REMARK    2  A    between atoms: C_3  and  C_5
REMARK    3  A    between atoms: C_5  and  C_6
REMARK    4  A    between atoms: C_6  and  C_7
REMARK    5  A    between atoms: C_10  and  O_11
REMARK    6  A    between atoms: O_11  and  C_12
REMARK    7  A    between atoms: C_12  and  C_13
REMARK    8  A    between atoms: C_13  and  C_15
REMARK    9  A    between atoms: C_15  and  N_16
REMARK   10  A    between atoms: N_16  and  C_17
REMARK                            x       y       z     vdW  Elec       q    Type
REMARK                         _______ _______ _______ _____ _____    ______ ____
ROOT
ATOM      1  C   UNL     1      -2.337   6.499  -4.602  0.00  0.00    -0.021 A 
ATOM      2  C   UNL     1      -1.171   7.231  -4.651  0.00  0.00    -0.001 A 
ATOM      3  C   UNL     1      -0.163   6.898  -5.546  0.00  0.00    +0.037 A 
ATOM      4  C   UNL     1      -0.336   5.881  -6.461  0.00  0.00    +0.139 A 
ATOM      5  C   UNL     1      -1.629   5.407  -6.645  0.00  0.00    +0.037 A 
ATOM      6  C   UNL     1      -2.625   5.762  -5.744  0.00  0.00    -0.001 A 
ENDROOT
BRANCH   1   7
ATOM      7  C   UNL     1      -3.100   6.218  -3.373  0.00  0.00    +0.038 C 
BRANCH   7   8
ATOM      8  C   UNL     1      -2.573   6.941  -2.169  0.00  0.00    +0.114 C 
BRANCH   8   9
ATOM      9  C   UNL     1      -1.931   5.931  -1.273  0.00  0.00    +0.317 C 
ATOM     10  O   UNL     1      -1.823   6.140  -0.027  0.00  0.00    -0.250 OA
BRANCH   9  12
ATOM     11  C   UNL     1       0.213   5.137  -1.703  0.00  0.00    +0.256 C 
ATOM     12  O   UNL     1      -1.036   5.004  -1.815  0.00  0.00    -0.444 OA
ENDBRANCH   9  12
ENDBRANCH   8   9
ENDBRANCH   7   8
ENDBRANCH   1   7
BRANCH   4  13
ATOM     13  O   UNL     1       0.700   5.081  -6.918  0.00  0.00    -0.473 OA
BRANCH  13  14
ATOM     14  C   UNL     1       1.168   5.205  -8.244  0.00  0.00    +0.240 C 
BRANCH  14  15
ATOM     15  C   UNL     1       2.719   4.558  -8.152  0.00  0.00    +0.213 C 
ATOM     16  O   UNL     1       2.336   3.744  -6.890  0.00  0.00    -0.218 OA
BRANCH  15  17
ATOM     17  C   UNL     1       3.237   5.858  -7.221  0.00  0.00    +0.125 C 
BRANCH  17  18
ATOM     18  N   UNL     1       4.516   5.434  -6.706  0.00  0.00    -0.217 NA
BRANCH  18  19
ATOM     19  C   UNL     1       4.619   6.016  -5.370  0.00  0.00    +0.073 C 
ATOM     20  C   UNL     1       4.548   4.882  -4.383  0.00  0.00    +0.019 C 
ATOM     21  C   UNL     1       3.605   7.093  -5.129  0.00  0.00    +0.019 C 
ENDBRANCH  18  19
ENDBRANCH  17  18
ENDBRANCH  15  17
ENDBRANCH  14  15
ENDBRANCH  13  14
ENDBRANCH   4  13
TORSDOF 10
ENDMDL
MODEL 6
REMARK VINA RESULT:      -6.1      3.931      8.660
REMARK  Name = 
REMARK  10 active torsions:
REMARK  status: ('A' for Active; 'I' for Inactive)
REMARK    1  A    between atoms: O_2  and  C_3
REMARK    2  A    between atoms: C_3  and  C_5
REMARK    3  A    between atoms: C_5  and  C_6
REMARK    4  A    between atoms: C_6  and  C_7
REMARK    5  A    between atoms: C_10  and  O_11
REMARK    6  A    between atoms: O_11  and  C_12
REMARK    7  A    between atoms: C_12  and  C_13
REMARK    8  A    between atoms: C_13  and  C_15
REMARK    9  A    between atoms: C_15  and  N_16
REMARK   10  A    between atoms: N_16  and  C_17
REMARK                            x       y       z     vdW  Elec       q    Type
REMARK                         _______ _______ _______ _____ _____    ______ ____
ROOT
ATOM      1  C   UNL     1      -1.821   6.799  -5.312  0.00  0.00    -0.021 A 
ATOM      2  C   UNL     1      -0.550   7.329  -5.349  0.00  0.00    -0.001 A 
ATOM      3  C   UNL     1       0.482   6.650  -5.985  0.00  0.00    +0.037 A 
ATOM      4  C   UNL     1       0.242   5.472  -6.662  0.00  0.00    +0.139 A 
ATOM      5  C   UNL     1      -1.083   5.150  -6.925  0.00  0.00    +0.037 A 
ATOM      6  C   UNL     1      -2.100   5.850  -6.287  0.00  0.00    -0.001 A 
ENDROOT
BRANCH   1   7
ATOM      7  C   UNL     1      -2.754   6.938  -4.179  0.00  0.00    +0.038 C 
BRANCH   7   8
ATOM      8  C   UNL     1      -2.067   6.996  -2.847  0.00  0.00    +0.114 C 
BRANCH   8   9
ATOM      9  C   UNL     1      -1.771   5.593  -2.424  0.00  0.00    +0.317 C 
ATOM     10  O   UNL     1      -2.506   4.997  -1.580  0.00  0.00    -0.250 OA
BRANCH   9  12
ATOM     11  C   UNL     1       0.310   4.998  -1.570  0.00  0.00    +0.256 C 
ATOM     12  O   UNL     1      -0.470   5.096  -2.555  0.00  0.00    -0.444 OA
ENDBRANCH   9  12
ENDBRANCH   8   9
ENDBRANCH   7   8
ENDBRANCH   1   7
BRANCH   4  13
ATOM     13  O   UNL     1       1.173   4.449  -6.765  0.00  0.00    -0.473 OA
BRANCH  13  14
ATOM     14  C   UNL     1       2.458   4.703  -7.289  0.00  0.00    +0.240 C 
BRANCH  14  15
ATOM     15  C   UNL     1       2.351   4.083  -8.850  0.00  0.00    +0.213 C 
ATOM     16  O   UNL     1       3.894   3.975  -8.944  0.00  0.00    -0.218 OA
BRANCH  15  17
ATOM     17  C   UNL     1       2.369   5.635  -9.498  0.00  0.00    +0.125 C 
BRANCH  17  18
ATOM     18  N   UNL     1       2.082   5.435 -10.897  0.00  0.00    -0.217 NA
BRANCH  18  19
ATOM     19  C   UNL     1       1.166   6.511 -11.272  0.00  0.00    +0.073 C 
ATOM     20  C   UNL     1      -0.033   6.410 -10.370  0.00  0.00    +0.019 C 
ATOM     21  C   UNL     1       0.829   6.499 -12.733  0.00  0.00    +0.019 C 
ENDBRANCH  18  19
ENDBRANCH  17  18
ENDBRANCH  15  17
ENDBRANCH  14  15
ENDBRANCH  13  14
ENDBRANCH   4  13
TORSDOF 10
ENDMDL
MODEL 7
REMARK VINA RESULT:      -6.1      4.210      9.166
REMARK  Name = 
REMARK  10 active torsions:
REMARK  status: ('A' for Active; 'I' for Inactive)
REMARK    1  A    between atoms: O_2  and  C_3
REMARK    2  A    between atoms: C_3  and  C_5
REMARK    3  A    between atoms: C_5  and  C_6
REMARK    4  A    between atoms: C_6  and  C_7
REMARK    5  A    between atoms: C_10  and  O_11
REMARK    6  A    between atoms: O_11  and  C_12
REMARK    7  A    between atoms: C_12  and  C_13
REMARK    8  A    between atoms: C_13  and  C_15
REMARK    9  A    between atoms: C_15  and  N_16
REMARK   10  A    between atoms: N_16  and  C_17
REMARK                            x       y       z     vdW  Elec       q    Type
REMARK                         _______ _______ _______ _____ _____    ______ ____
ROOT
ATOM      1  C   UNL     1      -1.937   6.701  -5.120  0.00  0.00    -0.021 A 
ATOM      2  C   UNL     1      -0.686   7.276  -5.071  0.00  0.00    -0.001 A 
ATOM      3  C   UNL     1       0.390   6.687  -5.724  0.00  0.00    +0.037 A 
ATOM      4  C   UNL     1       0.216   5.560  -6.500  0.00  0.00    +0.139 A 
ATOM      5  C   UNL     1      -1.087   5.215  -6.833  0.00  0.00    +0.037 A 
ATOM      6  C   UNL     1      -2.149   5.825  -6.176  0.00  0.00    -0.001 A 
ENDROOT
BRANCH   1   7
ATOM      7  C   UNL     1      -2.909   6.715  -4.012  0.00  0.00    +0.038 C 
BRANCH   7   8
ATOM      8  C   UNL     1      -2.942   5.433  -3.234  0.00  0.00    +0.114 C 
BRANCH   8   9
ATOM      9  C   UNL     1      -2.286   5.682  -1.914  0.00  0.00    +0.317 C 
ATOM     10  O   UNL     1      -2.466   6.772  -1.292  0.00  0.00    -0.250 OA
BRANCH   9  12
ATOM     11  C   UNL     1       0.015   5.341  -1.963  0.00  0.00    +0.256 C 
ATOM     12  O   UNL     1      -1.128   4.973  -1.578  0.00  0.00    -0.444 OA
ENDBRANCH   9  12
ENDBRANCH   8   9
ENDBRANCH   7   8
ENDBRANCH   1   7
BRANCH   4  13
ATOM     13  O   UNL     1       1.187   4.582  -6.653  0.00  0.00    -0.473 OA
BRANCH  13  14
ATOM     14  C   UNL     1       2.531   4.940  -6.892  0.00  0.00    +0.240 C 
BRANCH  14  15
ATOM     15  C   UNL     1       2.588   5.070  -8.568  0.00  0.00    +0.213 C 
ATOM     16  O   UNL     1       2.724   3.533  -8.712  0.00  0.00    -0.218 OA
BRANCH  15  17
ATOM     17  C   UNL     1       4.257   5.266  -8.525  0.00  0.00    +0.125 C 
BRANCH  17  18
ATOM     18  N   UNL     1       4.519   6.274  -9.522  0.00  0.00    -0.217 NA
BRANCH  18  19
ATOM     19  C   UNL     1       5.466   5.670 -10.458  0.00  0.00    +0.073 C 
ATOM     20  C   UNL     1       6.686   6.549 -10.486  0.00  0.00    +0.019 C 
ATOM     21  C   UNL     1       4.865   5.423 -11.809  0.00  0.00    +0.019 C 
ENDBRANCH  18  19
ENDBRANCH  17  18
ENDBRANCH  15  17
ENDBRANCH  14  15
ENDBRANCH  13  14
ENDBRANCH   4  13
TORSDOF 10
ENDMDL
MODEL 8
REMARK VINA RESULT:      -6.1      6.423     10.187
REMARK  Name = 
REMARK  10 active torsions:
REMARK  status: ('A' for Active; 'I' for Inactive)
REMARK    1  A    between atoms: O_2  and  C_3
REMARK    2  A    between atoms: C_3  and  C_5
REMARK    3  A    between atoms: C_5  and  C_6
REMARK    4  A    between atoms: C_6  and  C_7
REMARK    5  A    between atoms: C_10  and  O_11
REMARK    6  A    between atoms: O_11  and  C_12
REMARK    7  A    between atoms: C_12  and  C_13
REMARK    8  A    between atoms: C_13  and  C_15
REMARK    9  A    between atoms: C_15  and  N_16
REMARK   10  A    between atoms: N_16  and  C_17
REMARK                            x       y       z     vdW  Elec       q    Type
REMARK                         _______ _______ _______ _____ _____    ______ ____
ROOT
ATOM      1  C   UNL     1      -2.409   6.093  -5.123  0.00  0.00    -0.021 A 
ATOM      2  C   UNL     1      -2.949   5.377  -4.078  0.00  0.00    -0.001 A 
ATOM      3  C   UNL     1      -2.866   5.853  -2.776  0.00  0.00    +0.037 A 
ATOM      4  C   UNL     1      -2.315   7.089  -2.508  0.00  0.00    +0.139 A 
ATOM      5  C   UNL     1      -2.117   7.942  -3.586  0.00  0.00    +0.037 A 
ATOM      6  C   UNL     1      -2.216   7.447  -4.881  0.00  0.00    -0.001 A 
ENDROOT
BRANCH   1   7
ATOM      7  C   UNL     1      -1.771   5.494  -6.309  0.00  0.00    +0.038 C 
BRANCH   7   8
ATOM      8  C   UNL     1      -0.311   5.818  -6.426  0.00  0.00    +0.114 C 
BRANCH   8   9
ATOM      9  C   UNL     1       0.431   4.938  -5.472  0.00  0.00    +0.317 C 
ATOM     10  O   UNL     1       0.836   5.382  -4.356  0.00  0.00    -0.250 OA
BRANCH   9  12
ATOM     11  C   UNL     1       2.190   3.897  -6.582  0.00  0.00    +0.256 C 
ATOM     12  O   UNL     1       1.099   3.809  -5.957  0.00  0.00    -0.444 OA
ENDBRANCH   9  12
ENDBRANCH   8   9
ENDBRANCH   7   8
ENDBRANCH   1   7
BRANCH   4  13
ATOM     13  O   UNL     1      -1.631   7.382  -1.338  0.00  0.00    -0.473 OA
BRANCH  13  14
ATOM     14  C   UNL     1      -0.722   6.451  -0.790  0.00  0.00    +0.240 C 
BRANCH  14  15
ATOM     15  C   UNL     1      -0.313   7.154   0.683  0.00  0.00    +0.213 C 
ATOM     16  O   UNL     1      -0.721   8.555   0.161  0.00  0.00    -0.218 OA
BRANCH  15  17
ATOM     17  C   UNL     1       1.274   7.369   0.173  0.00  0.00    +0.125 C 
BRANCH  17  18
ATOM     18  N   UNL     1       1.711   6.042  -0.185  0.00  0.00    -0.217 NA
BRANCH  18  19
ATOM     19  C   UNL     1       3.027   6.208  -0.797  0.00  0.00    +0.073 C 
ATOM     20  C   UNL     1       3.522   4.838  -1.171  0.00  0.00    +0.019 C 
ATOM     21  C   UNL     1       3.975   6.978   0.073  0.00  0.00    +0.019 C 
ENDBRANCH  18  19
ENDBRANCH  17  18
ENDBRANCH  15  17
ENDBRANCH  14  15
ENDBRANCH  13  14
ENDBRANCH   4  13
TORSDOF 10
ENDMDL
MODEL 9
REMARK VINA RESULT:      -5.9      2.534      3.581
REMARK  Name = 
REMARK  10 active torsions:
REMARK  status: ('A' for Active; 'I' for Inactive)
REMARK    1  A    between atoms: O_2  and  C_3
REMARK    2  A    between atoms: C_3  and  C_5
REMARK    3  A    between atoms: C_5  and  C_6
REMARK    4  A    between atoms: C_6  and  C_7
REMARK    5  A    between atoms: C_10  and  O_11
REMARK    6  A    between atoms: O_11  and  C_12
REMARK    7  A    between atoms: C_12  and  C_13
REMARK    8  A    between atoms: C_13  and  C_15
REMARK    9  A    between atoms: C_15  and  N_16
REMARK   10  A    between atoms: N_16  and  C_17
REMARK                            x       y       z     vdW  Elec       q    Type
REMARK                         _______ _______ _______ _____ _____    ______ ____
ROOT
ATOM      1  C   UNL     1       5.433   6.075  -9.748  0.00  0.00    -0.021 A 
ATOM      2  C   UNL     1       5.464   5.318  -8.598  0.00  0.00    -0.001 A 
ATOM      3  C   UNL     1       4.496   5.482  -7.616  0.00  0.00    +0.037 A 
ATOM      4  C   UNL     1       3.437   6.347  -7.803  0.00  0.00    +0.139 A 
ATOM      5  C   UNL     1       3.222   6.816  -9.092  0.00  0.00    +0.037 A 
ATOM      6  C   UNL     1       4.199   6.631 -10.062  0.00  0.00    -0.001 A 
ENDROOT
BRANCH   1   7
ATOM      7  C   UNL     1       6.626   6.564 -10.462  0.00  0.00    +0.038 C 
BRANCH   7   8
ATOM      8  C   UNL     1       6.393   6.776 -11.929  0.00  0.00    +0.114 C 
BRANCH   8   9
ATOM      9  C   UNL     1       6.965   5.602 -12.658  0.00  0.00    +0.317 C 
ATOM     10  O   UNL     1       6.214   4.795 -13.285  0.00  0.00    -0.250 OA
BRANCH   9  12
ATOM     11  C   UNL     1       9.258   5.806 -12.327  0.00  0.00    +0.256 C 
ATOM     12  O   UNL     1       8.215   5.101 -12.279  0.00  0.00    -0.444 OA
ENDBRANCH   9  12
ENDBRANCH   8   9
ENDBRANCH   7   8
ENDBRANCH   1   7
BRANCH   4  13
ATOM     13  O   UNL     1       2.828   7.041  -6.768  0.00  0.00    -0.473 OA
BRANCH  13  14
ATOM     14  C   UNL     1       3.214   6.813  -5.430  0.00  0.00    +0.240 C 
BRANCH  14  15
ATOM     15  C   UNL     1       1.743   6.805  -4.614  0.00  0.00    +0.213 C 
ATOM     16  O   UNL     1       2.442   6.389  -3.296  0.00  0.00    -0.218 OA
BRANCH  15  17
ATOM     17  C   UNL     1       1.482   5.201  -5.043  0.00  0.00    +0.125 C 
BRANCH  17  18
ATOM     18  N   UNL     1       0.048   5.054  -4.999  0.00  0.00    -0.217 NA
BRANCH  18  19
ATOM     19  C   UNL     1      -0.478   6.002  -5.979  0.00  0.00    +0.073 C 
ATOM     20  C   UNL     1      -1.859   6.391  -5.526  0.00  0.00    +0.019 C 
ATOM     21  C   UNL     1      -0.427   5.472  -7.381  0.00  0.00    +0.019 C 
ENDBRANCH  18  19
ENDBRANCH  17  18
ENDBRANCH  15  17
ENDBRANCH  14  15
ENDBRANCH  13  14
ENDBRANCH   4  13
TORSDOF 10
ENDMDL
