MODEL 1
REMARK VINA RESULT:      -6.4      0.000      0.000
REMARK  Name = 
REMARK  13 active torsions:
REMARK  status: ('A' for Active; 'I' for Inactive)
REMARK    1  A    between atoms: C_2  and  C_3
REMARK    2  A    between atoms: C_3  and  C_4
REMARK    3  A    between atoms: C_4  and  O_5
REMARK    4  A    between atoms: O_5  and  C_6
REMARK    5  A    between atoms: C_6  and  C_7
REMARK    6  A    between atoms: C_7  and  O_8
REMARK    7  A    between atoms: O_8  and  C_9
REMARK    8  A    between atoms: C_9  and  C_10
REMARK    9  A    between atoms: C_10  and  O_11
REMARK   10  A    between atoms: O_11  and  C_12
REMARK   11  A    between atoms: C_12  and  C_13
REMARK   12  A    between atoms: C_18  and  C_19
REMARK   13  A    between atoms: C_19  and  C_20
REMARK                            x       y       z     vdW  Elec       q    Type
REMARK                         _______ _______ _______ _____ _____    ______ ____
ROOT
ATOM      1  C   UNL     1       3.044   4.989  -9.229  0.00  0.00    +0.168 C 
ENDROOT
BRANCH   1   2
ATOM      2  C   UNL     1       1.820   4.982  -8.379  0.00  0.00    +0.007 A 
ATOM      3  C   UNL     1       0.553   5.191  -8.886  0.00  0.00    -0.021 A 
ATOM      4  C   UNL     1      -0.464   5.408  -7.978  0.00  0.00    +0.036 A 
ATOM      5  C   UNL     1      -0.228   5.414  -6.614  0.00  0.00    +0.176 A 
ATOM      6  O   UNL     1      -0.853   5.993  -5.519  0.00  0.00    -0.435 OA
ATOM      7  C   UNL     1      -0.200   5.531  -4.357  0.00  0.00    +0.429 C 
ATOM      8  O   UNL     1       0.950   4.838  -4.782  0.00  0.00    -0.435 OA
ATOM      9  C   UNL     1       0.932   4.820  -6.170  0.00  0.00    +0.176 A 
ATOM     10  C   UNL     1       1.986   4.678  -7.052  0.00  0.00    +0.038 A 
BRANCH   3  11
ATOM     11  C   UNL     1       0.450   5.520 -10.326  0.00  0.00    +0.026 C 
BRANCH  11  12
ATOM     12  C   UNL     1       0.332   7.006 -10.551  0.00  0.00    +0.005 C 
ATOM     13  C   UNL     1      -0.456   7.294 -11.809  0.00  0.00    +0.000 C 
ENDBRANCH  11  12
ENDBRANCH   3  11
ENDBRANCH   1   2
BRANCH   1  14
ATOM     14  O   UNL     1       3.691   6.227  -9.090  0.00  0.00    -0.346 OA
BRANCH  14  15
ATOM     15  C   UNL     1       4.055   6.608 -10.388  0.00  0.00    +0.175 C 
BRANCH  15  16
ATOM     16  C   UNL     1       4.253   5.367 -11.219  0.00  0.00    +0.174 C 
BRANCH  16  17
ATOM     17  O   UNL     1       3.870   5.561 -12.540  0.00  0.00    -0.348 OA
BRANCH  17  18
ATOM     18  C   UNL     1       4.767   4.926 -13.379  0.00  0.00    +0.174 C 
BRANCH  18  19
ATOM     19  C   UNL     1       6.110   5.598 -13.441  0.00  0.00    +0.174 C 
BRANCH  19  20
ATOM     20  O   UNL     1       7.161   4.773 -13.087  0.00  0.00    -0.351 OA
BRANCH  20  21
ATOM     21  C   UNL     1       8.019   5.332 -12.156  0.00  0.00    +0.142 C 
BRANCH  21  22
ATOM     22  C   UNL     1       7.627   6.721 -11.737  0.00  0.00    +0.032 C 
BRANCH  22  24
ATOM     23  C   UNL     1       7.549   5.579  -9.592  0.00  0.00    +0.000 C 
ATOM     24  C   UNL     1       7.787   6.911 -10.254  0.00  0.00    +0.003 C 
ENDBRANCH  22  24
ENDBRANCH  21  22
ENDBRANCH  20  21
ENDBRANCH  19  20
ENDBRANCH  18  19
ENDBRANCH  17  18
ENDBRANCH  16  17
ENDBRANCH  15  16
ENDBRANCH  14  15
ENDBRANCH   1  14
TORSDOF 13
ENDMDL
MODEL 2
REMARK VINA RESULT:      -6.3      3.779      8.969
REMARK  Name = 
REMARK  13 active torsions:
REMARK  status: ('A' for Active; 'I' for Inactive)
REMARK    1  A    between atoms: C_2  and  C_3
REMARK    2  A    between atoms: C_3  and  C_4
REMARK    3  A    between atoms: C_4  and  O_5
REMARK    4  A    between atoms: O_5  and  C_6
REMARK    5  A    between atoms: C_6  and  C_7
REMARK    6  A    between atoms: C_7  and  O_8
REMARK    7  A    between atoms: O_8  and  C_9
REMARK    8  A    between atoms: C_9  and  C_10
REMARK    9  A    between atoms: C_10  and  O_11
REMARK   10  A    between atoms: O_11  and  C_12
REMARK   11  A    between atoms: C_12  and  C_13
REMARK   12  A    between atoms: C_18  and  C_19
REMARK   13  A    between atoms: C_19  and  C_20
REMARK                            x       y       z     vdW  Elec       q    Type
REMARK                         _______ _______ _______ _____ _____    ______ ____
ROOT
ATOM      1  C   UNL     1       1.540   6.783  -4.267  0.00  0.00    +0.168 C 
ENDROOT
BRANCH   1   2
ATOM      2  C   UNL     1       1.786   6.519  -5.713  0.00  0.00    +0.007 A 
ATOM      3  C   UNL     1       3.003   6.748  -6.321  0.00  0.00    -0.021 A 
ATOM      4  C   UNL     1       3.041   6.704  -7.701  0.00  0.00    +0.036 A 
ATOM      5  C   UNL     1       1.905   6.438  -8.448  0.00  0.00    +0.176 A 
ATOM      6  O   UNL     1       1.498   6.733  -9.740  0.00  0.00    -0.435 OA
ATOM      7  C   UNL     1       0.267   6.080  -9.963  0.00  0.00    +0.429 C 
ATOM      8  O   UNL     1      -0.154   5.566  -8.721  0.00  0.00    -0.435 OA
ATOM      9  C   UNL     1       0.848   5.840  -7.800  0.00  0.00    +0.176 A 
ATOM     10  C   UNL     1       0.759   5.953  -6.426  0.00  0.00    +0.038 A 
BRANCH   3  11
ATOM     11  C   UNL     1       4.064   7.364  -5.493  0.00  0.00    +0.026 C 
BRANCH  11  12
ATOM     12  C   UNL     1       4.818   6.332  -4.693  0.00  0.00    +0.005 C 
ATOM     13  C   UNL     1       5.286   6.912  -3.378  0.00  0.00    +0.000 C 
ENDBRANCH  11  12
ENDBRANCH   3  11
ENDBRANCH   1   2
BRANCH   1  14
ATOM     14  O   UNL     1       1.450   5.558  -3.587  0.00  0.00    -0.346 OA
BRANCH  14  15
ATOM     15  C   UNL     1       1.867   5.825  -2.277  0.00  0.00    +0.175 C 
BRANCH  15  16
ATOM     16  C   UNL     1       1.201   4.844  -1.347  0.00  0.00    +0.174 C 
BRANCH  16  17
ATOM     17  O   UNL     1      -0.162   4.742  -1.592  0.00  0.00    -0.348 OA
BRANCH  17  18
ATOM     18  C   UNL     1      -0.825   5.768  -0.943  0.00  0.00    +0.174 C 
BRANCH  18  19
ATOM     19  C   UNL     1      -2.187   6.056  -1.510  0.00  0.00    +0.174 C 
BRANCH  19  20
ATOM     20  O   UNL     1      -2.742   4.988  -2.190  0.00  0.00    -0.351 OA
BRANCH  20  21
ATOM     21  C   UNL     1      -3.254   5.323  -3.431  0.00  0.00    +0.142 C 
BRANCH  21  22
ATOM     22  C   UNL     1      -2.202   5.739  -4.421  0.00  0.00    +0.032 C 
BRANCH  22  24
ATOM     23  C   UNL     1      -1.832   8.137  -4.579  0.00  0.00    +0.000 C 
ATOM     24  C   UNL     1      -2.607   6.984  -5.161  0.00  0.00    +0.003 C 
ENDBRANCH  22  24
ENDBRANCH  21  22
ENDBRANCH  20  21
ENDBRANCH  19  20
ENDBRANCH  18  19
ENDBRANCH  17  18
ENDBRANCH  16  17
ENDBRANCH  15  16
ENDBRANCH  14  15
ENDBRANCH   1  14
TORSDOF 13
ENDMDL
MODEL 3
REMARK VINA RESULT:      -6.1      1.801      7.831
REMARK  Name = 
REMARK  13 active torsions:
REMARK  status: ('A' for Active; 'I' for Inactive)
REMARK    1  A    between atoms: C_2  and  C_3
REMARK    2  A    between atoms: C_3  and  C_4
REMARK    3  A    between atoms: C_4  and  O_5
REMARK    4  A    between atoms: O_5  and  C_6
REMARK    5  A    between atoms: C_6  and  C_7
REMARK    6  A    between atoms: C_7  and  O_8
REMARK    7  A    between atoms: O_8  and  C_9
REMARK    8  A    between atoms: C_9  and  C_10
REMARK    9  A    between atoms: C_10  and  O_11
REMARK   10  A    between atoms: O_11  and  C_12
REMARK   11  A    between atoms: C_12  and  C_13
REMARK   12  A    between atoms: C_18  and  C_19
REMARK   13  A    between atoms: C_19  and  C_20
REMARK                            x       y       z     vdW  Elec       q    Type
REMARK                         _______ _______ _______ _____ _____    ______ ____
ROOT
ATOM      1  C   UNL     1       3.781   5.129  -7.652  0.00  0.00    +0.168 C 
ENDROOT
BRANCH   1   2
ATOM      2  C   UNL     1       4.256   5.425  -9.033  0.00  0.00    +0.007 A 
ATOM      3  C   UNL     1       3.398   5.603 -10.099  0.00  0.00    -0.021 A 
ATOM      4  C   UNL     1       3.955   5.624 -11.363  0.00  0.00    +0.036 A 
ATOM      5  C   UNL     1       5.317   5.475 -11.557  0.00  0.00    +0.176 A 
ATOM      6  O   UNL     1       6.110   5.030 -12.604  0.00  0.00    -0.435 OA
ATOM      7  C   UNL     1       7.458   5.226 -12.237  0.00  0.00    +0.429 C 
ATOM      8  O   UNL     1       7.462   5.598 -10.879  0.00  0.00    -0.435 OA
ATOM      9  C   UNL     1       6.138   5.700 -10.475  0.00  0.00    +0.176 A 
ATOM     10  C   UNL     1       5.607   5.596  -9.203  0.00  0.00    +0.038 A 
BRANCH   3  11
ATOM     11  C   UNL     1       1.955   5.399  -9.844  0.00  0.00    +0.026 C 
BRANCH  11  12
ATOM     12  C   UNL     1       1.210   6.708  -9.775  0.00  0.00    +0.005 C 
ATOM     13  C   UNL     1       0.219   6.819 -10.911  0.00  0.00    +0.000 C 
ENDBRANCH  11  12
ENDBRANCH   3  11
ENDBRANCH   1   2
BRANCH   1  14
ATOM     14  O   UNL     1       4.627   5.767  -6.731  0.00  0.00    -0.346 OA
BRANCH  14  15
ATOM     15  C   UNL     1       4.022   5.587  -5.480  0.00  0.00    +0.175 C 
BRANCH  15  16
ATOM     16  C   UNL     1       3.451   6.905  -5.024  0.00  0.00    +0.174 C 
BRANCH  16  17
ATOM     17  O   UNL     1       2.067   6.863  -4.924  0.00  0.00    -0.348 OA
BRANCH  17  18
ATOM     18  C   UNL     1       1.662   5.565  -4.669  0.00  0.00    +0.174 C 
BRANCH  18  19
ATOM     19  C   UNL     1       0.614   5.463  -3.596  0.00  0.00    +0.174 C 
BRANCH  19  20
ATOM     20  O   UNL     1      -0.328   6.473  -3.643  0.00  0.00    -0.351 OA
BRANCH  20  21
ATOM     21  C   UNL     1      -1.596   6.037  -3.984  0.00  0.00    +0.142 C 
BRANCH  21  22
ATOM     22  C   UNL     1      -2.093   6.597  -5.287  0.00  0.00    +0.032 C 
BRANCH  22  24
ATOM     23  C   UNL     1      -1.124   5.334  -7.125  0.00  0.00    +0.000 C 
ATOM     24  C   UNL     1      -2.364   5.506  -6.286  0.00  0.00    +0.003 C 
ENDBRANCH  22  24
ENDBRANCH  21  22
ENDBRANCH  20  21
ENDBRANCH  19  20
ENDBRANCH  18  19
ENDBRANCH  17  18
ENDBRANCH  16  17
ENDBRANCH  15  16
ENDBRANCH  14  15
ENDBRANCH   1  14
TORSDOF 13
ENDMDL
MODEL 4
REMARK VINA RESULT:      -6.1      2.281      4.239
REMARK  Name = 
REMARK  13 active torsions:
REMARK  status: ('A' for Active; 'I' for Inactive)
REMARK    1  A    between atoms: C_2  and  C_3
REMARK    2  A    between atoms: C_3  and  C_4
REMARK    3  A    between atoms: C_4  and  O_5
REMARK    4  A    between atoms: O_5  and  C_6
REMARK    5  A    between atoms: C_6  and  C_7
REMARK    6  A    between atoms: C_7  and  O_8
REMARK    7  A    between atoms: O_8  and  C_9
REMARK    8  A    between atoms: C_9  and  C_10
REMARK    9  A    between atoms: C_10  and  O_11
REMARK   10  A    between atoms: O_11  and  C_12
REMARK   11  A    between atoms: C_12  and  C_13
REMARK   12  A    between atoms: C_18  and  C_19
REMARK   13  A    between atoms: C_19  and  C_20
REMARK                            x       y       z     vdW  Elec       q    Type
REMARK                         _______ _______ _______ _____ _____    ______ ____
ROOT
ATOM      1  C   UNL     1       1.759   6.491  -6.609  0.00  0.00    +0.168 C 
ENDROOT
BRANCH   1   2
ATOM      2  C   UNL     1       0.935   6.390  -5.371  0.00  0.00    +0.007 A 
ATOM      3  C   UNL     1       1.485   6.286  -4.110  0.00  0.00    -0.021 A 
ATOM      4  C   UNL     1       0.636   5.951  -3.074  0.00  0.00    +0.036 A 
ATOM      5  C   UNL     1      -0.714   5.730  -3.287  0.00  0.00    +0.176 A 
ATOM      6  O   UNL     1      -1.697   5.001  -2.635  0.00  0.00    -0.435 OA
ATOM      7  C   UNL     1      -2.926   5.265  -3.276  0.00  0.00    +0.429 C 
ATOM      8  O   UNL     1      -2.629   5.993  -4.444  0.00  0.00    -0.435 OA
ATOM      9  C   UNL     1      -1.260   6.225  -4.450  0.00  0.00    +0.176 A 
ATOM     10  C   UNL     1      -0.426   6.483  -5.521  0.00  0.00    +0.038 A 
BRANCH   3  11
ATOM     11  C   UNL     1       2.960   6.187  -4.025  0.00  0.00    +0.026 C 
BRANCH  11  12
ATOM     12  C   UNL     1       3.577   7.467  -3.522  0.00  0.00    +0.005 C 
ATOM     13  C   UNL     1       4.897   7.730  -4.211  0.00  0.00    +0.000 C 
ENDBRANCH  11  12
ENDBRANCH   3  11
ENDBRANCH   1   2
BRANCH   1  14
ATOM     14  O   UNL     1       1.428   5.430  -7.467  0.00  0.00    -0.346 OA
BRANCH  14  15
ATOM     15  C   UNL     1       2.452   4.487  -7.309  0.00  0.00    +0.175 C 
BRANCH  15  16
ATOM     16  C   UNL     1       2.812   3.932  -8.663  0.00  0.00    +0.174 C 
BRANCH  16  17
ATOM     17  O   UNL     1       2.776   4.909  -9.650  0.00  0.00    -0.348 OA
BRANCH  17  18
ATOM     18  C   UNL     1       4.067   5.243 -10.016  0.00  0.00    +0.174 C 
BRANCH  18  19
ATOM     19  C   UNL     1       4.151   6.491 -10.850  0.00  0.00    +0.174 C 
BRANCH  19  20
ATOM     20  O   UNL     1       5.312   6.584 -11.594  0.00  0.00    -0.351 OA
BRANCH  20  21
ATOM     21  C   UNL     1       6.162   7.592 -11.176  0.00  0.00    +0.142 C 
BRANCH  21  22
ATOM     22  C   UNL     1       7.467   7.088 -10.629  0.00  0.00    +0.032 C 
BRANCH  22  24
ATOM     23  C   UNL     1       8.807   5.860 -12.243  0.00  0.00    +0.000 C 
ATOM     24  C   UNL     1       7.785   5.713 -11.146  0.00  0.00    +0.003 C 
ENDBRANCH  22  24
ENDBRANCH  21  22
ENDBRANCH  20  21
ENDBRANCH  19  20
ENDBRANCH  18  19
ENDBRANCH  17  18
ENDBRANCH  16  17
ENDBRANCH  15  16
ENDBRANCH  14  15
ENDBRANCH   1  14
TORSDOF 13
ENDMDL
MODEL 5
REMARK VINA RESULT:      -6.0      1.710      2.734
REMARK  Name = 
REMARK  13 active torsions:
REMARK  status: ('A' for Active; 'I' for Inactive)
REMARK    1  A    between atoms: C_2  and  C_3
REMARK    2  A    between atoms: C_3  and  C_4
REMARK    3  A    between atoms: C_4  and  O_5
REMARK    4  A    between atoms: O_5  and  C_6
REMARK    5  A    between atoms: C_6  and  C_7
REMARK    6  A    between atoms: C_7  and  O_8
REMARK    7  A    between atoms: O_8  and  C_9
REMARK    8  A    between atoms: C_9  and  C_10
REMARK    9  A    between atoms: C_10  and  O_11
REMARK   10  A    between atoms: O_11  and  C_12
REMARK   11  A    between atoms: C_12  and  C_13
REMARK   12  A    between atoms: C_18  and  C_19
REMARK   13  A    between atoms: C_19  and  C_20
REMARK                            x       y       z     vdW  Elec       q    Type
REMARK                         _______ _______ _______ _____ _____    ______ ____
ROOT
ATOM      1  C   UNL     1       2.077   7.336  -7.271  0.00  0.00    +0.168 C 
ENDROOT
BRANCH   1   2
ATOM      2  C   UNL     1       0.894   6.642  -6.688  0.00  0.00    +0.007 A 
ATOM      3  C   UNL     1       0.231   5.618  -7.332  0.00  0.00    -0.021 A 
ATOM      4  C   UNL     1      -0.987   5.226  -6.813  0.00  0.00    +0.036 A 
ATOM      5  C   UNL     1      -1.524   5.832  -5.689  0.00  0.00    +0.176 A 
ATOM      6  O   UNL     1      -2.808   6.002  -5.193  0.00  0.00    -0.435 OA
ATOM      7  C   UNL     1      -2.702   6.612  -3.926  0.00  0.00    +0.429 C 
ATOM      8  O   UNL     1      -1.355   6.993  -3.766  0.00  0.00    -0.435 OA
ATOM      9  C   UNL     1      -0.664   6.543  -4.882  0.00  0.00    +0.176 A 
ATOM     10  C   UNL     1       0.519   7.012  -5.421  0.00  0.00    +0.038 A 
BRANCH   3  11
ATOM     11  C   UNL     1       0.686   5.276  -8.699  0.00  0.00    +0.026 C 
BRANCH  11  12
ATOM     12  C   UNL     1      -0.272   5.780  -9.748  0.00  0.00    +0.005 C 
ATOM     13  C   UNL     1       0.168   5.343 -11.127  0.00  0.00    +0.000 C 
ENDBRANCH  11  12
ENDBRANCH   3  11
ENDBRANCH   1   2
BRANCH   1  14
ATOM     14  O   UNL     1       3.110   7.356  -6.322  0.00  0.00    -0.346 OA
BRANCH  14  15
ATOM     15  C   UNL     1       3.855   6.193  -6.553  0.00  0.00    +0.175 C 
BRANCH  15  16
ATOM     16  C   UNL     1       4.233   6.141  -8.011  0.00  0.00    +0.174 C 
BRANCH  16  17
ATOM     17  O   UNL     1       4.409   4.837  -8.455  0.00  0.00    -0.348 OA
BRANCH  17  18
ATOM     18  C   UNL     1       4.047   4.750  -9.787  0.00  0.00    +0.174 C 
BRANCH  18  19
ATOM     19  C   UNL     1       3.841   6.088 -10.441  0.00  0.00    +0.174 C 
BRANCH  19  20
ATOM     20  O   UNL     1       4.186   6.110 -11.779  0.00  0.00    -0.351 OA
BRANCH  20  21
ATOM     21  C   UNL     1       5.499   6.480 -12.009  0.00  0.00    +0.142 C 
BRANCH  21  22
ATOM     22  C   UNL     1       5.953   7.639 -11.166  0.00  0.00    +0.032 C 
BRANCH  22  24
ATOM     23  C   UNL     1       7.483   6.200  -9.943  0.00  0.00    +0.000 C 
ATOM     24  C   UNL     1       7.384   7.477 -10.736  0.00  0.00    +0.003 C 
ENDBRANCH  22  24
ENDBRANCH  21  22
ENDBRANCH  20  21
ENDBRANCH  19  20
ENDBRANCH  18  19
ENDBRANCH  17  18
ENDBRANCH  16  17
ENDBRANCH  15  16
ENDBRANCH  14  15
ENDBRANCH   1  14
TORSDOF 13
ENDMDL
MODEL 6
REMARK VINA RESULT:      -6.0      1.795      3.252
REMARK  Name = 
REMARK  13 active torsions:
REMARK  status: ('A' for Active; 'I' for Inactive)
REMARK    1  A    between atoms: C_2  and  C_3
REMARK    2  A    between atoms: C_3  and  C_4
REMARK    3  A    between atoms: C_4  and  O_5
REMARK    4  A    between atoms: O_5  and  C_6
REMARK    5  A    between atoms: C_6  and  C_7
REMARK    6  A    between atoms: C_7  and  O_8
REMARK    7  A    between atoms: O_8  and  C_9
REMARK    8  A    between atoms: C_9  and  C_10
REMARK    9  A    between atoms: C_10  and  O_11
REMARK   10  A    between atoms: O_11  and  C_12
REMARK   11  A    between atoms: C_12  and  C_13
REMARK   12  A    between atoms: C_18  and  C_19
REMARK   13  A    between atoms: C_19  and  C_20
REMARK                            x       y       z     vdW  Elec       q    Type
REMARK                         _______ _______ _______ _____ _____    ______ ____
ROOT
ATOM      1  C   UNL     1      -0.149   5.762  -8.940  0.00  0.00    +0.168 C 
ENDROOT
BRANCH   1   2
ATOM      2  C   UNL     1       0.469   5.378  -7.639  0.00  0.00    +0.007 A 
ATOM      3  C   UNL     1      -0.270   5.133  -6.500  0.00  0.00    -0.021 A 
ATOM      4  C   UNL     1       0.419   5.031  -5.308  0.00  0.00    +0.036 A 
ATOM      5  C   UNL     1       1.796   5.167  -5.253  0.00  0.00    +0.176 A 
ATOM      6  O   UNL     1       2.700   5.544  -4.272  0.00  0.00    -0.435 OA
ATOM      7  C   UNL     1       3.999   5.370  -4.794  0.00  0.00    +0.429 C 
ATOM      8  O   UNL     1       3.854   5.086  -6.165  0.00  0.00    -0.435 OA
ATOM      9  C   UNL     1       2.494   5.011  -6.430  0.00  0.00    +0.176 A 
ATOM     10  C   UNL     1       1.829   5.196  -7.627  0.00  0.00    +0.038 A 
BRANCH   3  11
ATOM     11  C   UNL     1      -1.731   5.354  -6.585  0.00  0.00    +0.026 C 
BRANCH  11  12
ATOM     12  C   UNL     1      -2.309   5.777  -5.258  0.00  0.00    +0.005 C 
ATOM     13  C   UNL     1      -2.471   7.279  -5.201  0.00  0.00    +0.000 C 
ENDBRANCH  11  12
ENDBRANCH   3  11
ENDBRANCH   1   2
BRANCH   1  14
ATOM     14  O   UNL     1       0.439   5.007  -9.967  0.00  0.00    -0.346 OA
BRANCH  14  15
ATOM     15  C   UNL     1       0.002   5.594 -11.161  0.00  0.00    +0.175 C 
BRANCH  15  16
ATOM     16  C   UNL     1       1.143   6.371 -11.765  0.00  0.00    +0.174 C 
BRANCH  16  17
ATOM     17  O   UNL     1       2.116   5.534 -12.297  0.00  0.00    -0.348 OA
BRANCH  17  18
ATOM     18  C   UNL     1       3.356   5.894 -11.801  0.00  0.00    +0.174 C 
BRANCH  18  19
ATOM     19  C   UNL     1       4.494   5.542 -12.718  0.00  0.00    +0.174 C 
BRANCH  19  20
ATOM     20  O   UNL     1       5.626   6.309 -12.516  0.00  0.00    -0.351 OA
BRANCH  20  21
ATOM     21  C   UNL     1       5.536   7.159 -11.428  0.00  0.00    +0.142 C 
BRANCH  21  22
ATOM     22  C   UNL     1       6.861   7.723 -10.997  0.00  0.00    +0.032 C 
BRANCH  22  24
ATOM     23  C   UNL     1       7.359   5.882  -9.490  0.00  0.00    +0.000 C 
ATOM     24  C   UNL     1       7.851   6.632 -10.700  0.00  0.00    +0.003 C 
ENDBRANCH  22  24
ENDBRANCH  21  22
ENDBRANCH  20  21
ENDBRANCH  19  20
ENDBRANCH  18  19
ENDBRANCH  17  18
ENDBRANCH  16  17
ENDBRANCH  15  16
ENDBRANCH  14  15
ENDBRANCH   1  14
TORSDOF 13
ENDMDL
MODEL 7
REMARK VINA RESULT:      -6.0      1.777      3.111
REMARK  Name = 
REMARK  13 active torsions:
REMARK  status: ('A' for Active; 'I' for Inactive)
REMARK    1  A    between atoms: C_2  and  C_3
REMARK    2  A    between atoms: C_3  and  C_4
REMARK    3  A    between atoms: C_4  and  O_5
REMARK    4  A    between atoms: O_5  and  C_6
REMARK    5  A    between atoms: C_6  and  C_7
REMARK    6  A    between atoms: C_7  and  O_8
REMARK    7  A    between atoms: O_8  and  C_9
REMARK    8  A    between atoms: C_9  and  C_10
REMARK    9  A    between atoms: C_10  and  O_11
REMARK   10  A    between atoms: O_11  and  C_12
REMARK   11  A    between atoms: C_12  and  C_13
REMARK   12  A    between atoms: C_18  and  C_19
REMARK   13  A    between atoms: C_19  and  C_20
REMARK                            x       y       z     vdW  Elec       q    Type
REMARK                         _______ _______ _______ _____ _____    ______ ____
ROOT
ATOM      1  C   UNL     1       0.929   5.277  -8.443  0.00  0.00    +0.168 C 
ENDROOT
BRANCH   1   2
ATOM      2  C   UNL     1       0.341   5.868  -7.208  0.00  0.00    +0.007 A 
ATOM      3  C   UNL     1       0.994   6.815  -6.445  0.00  0.00    -0.021 A 
ATOM      4  C   UNL     1       0.465   7.102  -5.203  0.00  0.00    +0.036 A 
ATOM      5  C   UNL     1      -0.676   6.470  -4.738  0.00  0.00    +0.176 A 
ATOM      6  O   UNL     1      -1.194   6.191  -3.482  0.00  0.00    -0.435 OA
ATOM      7  C   UNL     1      -2.470   5.617  -3.660  0.00  0.00    +0.429 C 
ATOM      8  O   UNL     1      -2.617   5.365  -5.037  0.00  0.00    -0.435 OA
ATOM      9  C   UNL     1      -1.483   5.857  -5.670  0.00  0.00    +0.176 A 
ATOM     10  C   UNL     1      -0.937   5.490  -6.885  0.00  0.00    +0.038 A 
BRANCH   3  11
ATOM     11  C   UNL     1       2.373   7.172  -6.850  0.00  0.00    +0.026 C 
BRANCH  11  12
ATOM     12  C   UNL     1       3.348   7.014  -5.710  0.00  0.00    +0.005 C 
ATOM     13  C   UNL     1       4.082   5.697  -5.815  0.00  0.00    +0.000 C 
ENDBRANCH  11  12
ENDBRANCH   3  11
ENDBRANCH   1   2
BRANCH   1  14
ATOM     14  O   UNL     1       0.200   5.722  -9.557  0.00  0.00    -0.346 OA
BRANCH  14  15
ATOM     15  C   UNL     1       0.766   5.073 -10.660  0.00  0.00    +0.175 C 
BRANCH  15  16
ATOM     16  C   UNL     1       1.740   6.011 -11.327  0.00  0.00    +0.174 C 
BRANCH  16  17
ATOM     17  O   UNL     1       2.316   5.443 -12.457  0.00  0.00    -0.348 OA
BRANCH  17  18
ATOM     18  C   UNL     1       3.594   5.944 -12.624  0.00  0.00    +0.174 C 
BRANCH  18  19
ATOM     19  C   UNL     1       4.476   5.069 -13.471  0.00  0.00    +0.174 C 
BRANCH  19  20
ATOM     20  O   UNL     1       5.760   4.935 -12.979  0.00  0.00    -0.351 OA
BRANCH  20  21
ATOM     21  C   UNL     1       5.965   5.581 -11.772  0.00  0.00    +0.142 C 
BRANCH  21  22
ATOM     22  C   UNL     1       7.127   6.533 -11.790  0.00  0.00    +0.032 C 
BRANCH  22  24
ATOM     23  C   UNL     1       6.988   5.809  -9.474  0.00  0.00    +0.000 C 
ATOM     24  C   UNL     1       7.640   6.800 -10.403  0.00  0.00    +0.003 C 
ENDBRANCH  22  24
ENDBRANCH  21  22
ENDBRANCH  20  21
ENDBRANCH  19  20
ENDBRANCH  18  19
ENDBRANCH  17  18
ENDBRANCH  16  17
ENDBRANCH  15  16
ENDBRANCH  14  15
ENDBRANCH   1  14
TORSDOF 13
ENDMDL
MODEL 8
REMARK VINA RESULT:      -5.9      1.805      7.961
REMARK  Name = 
REMARK  13 active torsions:
REMARK  status: ('A' for Active; 'I' for Inactive)
REMARK    1  A    between atoms: C_2  and  C_3
REMARK    2  A    between atoms: C_3  and  C_4
REMARK    3  A    between atoms: C_4  and  O_5
REMARK    4  A    between atoms: O_5  and  C_6
REMARK    5  A    between atoms: C_6  and  C_7
REMARK    6  A    between atoms: C_7  and  O_8
REMARK    7  A    between atoms: O_8  and  C_9
REMARK    8  A    between atoms: C_9  and  C_10
REMARK    9  A    between atoms: C_10  and  O_11
REMARK   10  A    between atoms: O_11  and  C_12
REMARK   11  A    between atoms: C_12  and  C_13
REMARK   12  A    between atoms: C_18  and  C_19
REMARK   13  A    between atoms: C_19  and  C_20
REMARK                            x       y       z     vdW  Elec       q    Type
REMARK                         _______ _______ _______ _____ _____    ______ ____
ROOT
ATOM      1  C   UNL     1       3.681   5.044  -7.816  0.00  0.00    +0.168 C 
ENDROOT
BRANCH   1   2
ATOM      2  C   UNL     1       4.172   5.373  -9.184  0.00  0.00    +0.007 A 
ATOM      3  C   UNL     1       3.328   5.564 -10.258  0.00  0.00    -0.021 A 
ATOM      4  C   UNL     1       3.902   5.616 -11.513  0.00  0.00    +0.036 A 
ATOM      5  C   UNL     1       5.269   5.486 -11.691  0.00  0.00    +0.176 A 
ATOM      6  O   UNL     1       6.081   5.070 -12.734  0.00  0.00    -0.435 OA
ATOM      7  C   UNL     1       7.421   5.273 -12.345  0.00  0.00    +0.429 C 
ATOM      8  O   UNL     1       7.402   5.618 -10.979  0.00  0.00    -0.435 OA
ATOM      9  C   UNL     1       6.071   5.696 -10.592  0.00  0.00    +0.176 A 
ATOM     10  C   UNL     1       5.523   5.561  -9.331  0.00  0.00    +0.038 A 
BRANCH   3  11
ATOM     11  C   UNL     1       1.883   5.339 -10.028  0.00  0.00    +0.026 C 
BRANCH  11  12
ATOM     12  C   UNL     1       1.120   6.638  -9.959  0.00  0.00    +0.005 C 
ATOM     13  C   UNL     1       0.304   6.846 -11.214  0.00  0.00    +0.000 C 
ENDBRANCH  11  12
ENDBRANCH   3  11
ENDBRANCH   1   2
BRANCH   1  14
ATOM     14  O   UNL     1       4.582   5.558  -6.870  0.00  0.00    -0.346 OA
BRANCH  14  15
ATOM     15  C   UNL     1       3.844   5.700  -5.688  0.00  0.00    +0.175 C 
BRANCH  15  16
ATOM     16  C   UNL     1       2.900   4.531  -5.563  0.00  0.00    +0.174 C 
BRANCH  16  17
ATOM     17  O   UNL     1       1.706   4.893  -4.951  0.00  0.00    -0.348 OA
BRANCH  17  18
ATOM     18  C   UNL     1       0.664   4.737  -5.846  0.00  0.00    +0.174 C 
BRANCH  18  19
ATOM     19  C   UNL     1      -0.123   5.997  -6.077  0.00  0.00    +0.174 C 
BRANCH  19  20
ATOM     20  O   UNL     1      -1.304   5.795  -6.766  0.00  0.00    -0.351 OA
BRANCH  20  21
ATOM     21  C   UNL     1      -2.378   5.481  -5.951  0.00  0.00    +0.142 C 
BRANCH  21  22
ATOM     22  C   UNL     1      -2.365   6.208  -4.636  0.00  0.00    +0.032 C 
BRANCH  22  24
ATOM     23  C   UNL     1      -3.558   6.385  -2.525  0.00  0.00    +0.000 C 
ATOM     24  C   UNL     1      -3.058   5.414  -3.563  0.00  0.00    +0.003 C 
ENDBRANCH  22  24
ENDBRANCH  21  22
ENDBRANCH  20  21
ENDBRANCH  19  20
ENDBRANCH  18  19
ENDBRANCH  17  18
ENDBRANCH  16  17
ENDBRANCH  15  16
ENDBRANCH  14  15
ENDBRANCH   1  14
TORSDOF 13
ENDMDL
MODEL 9
REMARK VINA RESULT:      -5.9      1.615      7.920
REMARK  Name = 
REMARK  13 active torsions:
REMARK  status: ('A' for Active; 'I' for Inactive)
REMARK    1  A    between atoms: C_2  and  C_3
REMARK    2  A    between atoms: C_3  and  C_4
REMARK    3  A    between atoms: C_4  and  O_5
REMARK    4  A    between atoms: O_5  and  C_6
REMARK    5  A    between atoms: C_6  and  C_7
REMARK    6  A    between atoms: C_7  and  O_8
REMARK    7  A    between atoms: O_8  and  C_9
REMARK    8  A    between atoms: C_9  and  C_10
REMARK    9  A    between atoms: C_10  and  O_11
REMARK   10  A    between atoms: O_11  and  C_12
REMARK   11  A    between atoms: C_12  and  C_13
REMARK   12  A    between atoms: C_18  and  C_19
REMARK   13  A    between atoms: C_19  and  C_20
REMARK                            x       y       z     vdW  Elec       q    Type
REMARK                         _______ _______ _______ _____ _____    ______ ____
ROOT
ATOM      1  C   UNL     1       2.302   5.375  -9.319  0.00  0.00    +0.168 C 
ENDROOT
BRANCH   1   2
ATOM      2  C   UNL     1       3.255   5.588 -10.445  0.00  0.00    +0.007 A 
ATOM      3  C   UNL     1       2.848   5.751 -11.753  0.00  0.00    -0.021 A 
ATOM      4  C   UNL     1       3.820   5.691 -12.731  0.00  0.00    +0.036 A 
ATOM      5  C   UNL     1       5.152   5.479 -12.417  0.00  0.00    +0.176 A 
ATOM      6  O   UNL     1       6.242   4.954 -13.094  0.00  0.00    -0.435 OA
ATOM      7  C   UNL     1       7.377   5.113 -12.273  0.00  0.00    +0.429 C 
ATOM      8  O   UNL     1       6.914   5.547 -11.016  0.00  0.00    -0.435 OA
ATOM      9  C   UNL     1       5.541   5.719 -11.118  0.00  0.00    +0.176 A 
ATOM     10  C   UNL     1       4.584   5.696 -10.121  0.00  0.00    +0.038 A 
BRANCH   3  11
ATOM     11  C   UNL     1       1.399   5.617 -12.028  0.00  0.00    +0.026 C 
BRANCH  11  12
ATOM     12  C   UNL     1       0.783   6.935 -12.425  0.00  0.00    +0.005 C 
ATOM     13  C   UNL     1      -0.348   7.297 -11.490  0.00  0.00    +0.000 C 
ENDBRANCH  11  12
ENDBRANCH   3  11
ENDBRANCH   1   2
BRANCH   1  14
ATOM     14  O   UNL     1       2.437   4.060  -8.847  0.00  0.00    -0.346 OA
BRANCH  14  15
ATOM     15  C   UNL     1       2.431   4.161  -7.450  0.00  0.00    +0.175 C 
BRANCH  15  16
ATOM     16  C   UNL     1       1.143   4.813  -7.017  0.00  0.00    +0.174 C 
BRANCH  16  17
ATOM     17  O   UNL     1       0.794   4.458  -5.720  0.00  0.00    -0.348 OA
BRANCH  17  18
ATOM     18  C   UNL     1       1.630   5.101  -4.825  0.00  0.00    +0.174 C 
BRANCH  18  19
ATOM     19  C   UNL     1       0.900   5.981  -3.848  0.00  0.00    +0.174 C 
BRANCH  19  20
ATOM     20  O   UNL     1      -0.253   5.411  -3.342  0.00  0.00    -0.351 OA
BRANCH  20  21
ATOM     21  C   UNL     1      -1.328   6.280  -3.290  0.00  0.00    +0.142 C 
BRANCH  21  22
ATOM     22  C   UNL     1      -1.331   7.297  -4.397  0.00  0.00    +0.032 C 
BRANCH  22  24
ATOM     23  C   UNL     1      -2.376   5.968  -6.144  0.00  0.00    +0.000 C 
ATOM     24  C   UNL     1      -2.559   7.170  -5.255  0.00  0.00    +0.003 C 
ENDBRANCH  22  24
ENDBRANCH  21  22
ENDBRANCH  20  21
ENDBRANCH  19  20
ENDBRANCH  18  19
ENDBRANCH  17  18
ENDBRANCH  16  17
ENDBRANCH  15  16
ENDBRANCH  14  15
ENDBRANCH   1  14
TORSDOF 13
ENDMDL
