MODEL 1
REMARK VINA RESULT:      -7.7      0.000      0.000
REMARK  Name = 
REMARK  7 active torsions:
REMARK  status: ('A' for Active; 'I' for Inactive)
REMARK    1  A    between atoms: C_2  and  C_12
REMARK    2  A    between atoms: N_3  and  C_4
REMARK    3  A    between atoms: C_15  and  O_16
REMARK    4  A    between atoms: O_16  and  C_17
REMARK    5  A    between atoms: C_20  and  O_21
REMARK    6  A    between atoms: O_21  and  C_22
REMARK    7  A    between atoms: C_22  and  C_23
REMARK                            x       y       z     vdW  Elec       q    Type
REMARK                         _______ _______ _______ _____ _____    ______ ____
ROOT
ATOM      1  C   UNL     1      -0.053   5.736  -7.517  0.00  0.00    +0.059 A 
ATOM      2  C   UNL     1       0.755   6.468  -6.655  0.00  0.00    +0.045 A 
ATOM      3  C   UNL     1       0.412   6.647  -5.321  0.00  0.00    +0.173 A 
ATOM      4  C   UNL     1      -0.939   6.483  -5.036  0.00  0.00    +0.178 A 
ATOM      5  C   UNL     1      -1.774   5.833  -5.936  0.00  0.00    +0.040 A 
ATOM      6  C   UNL     1      -1.251   5.204  -7.058  0.00  0.00    +0.008 A 
ENDROOT
BRANCH   1   8
ATOM      7  O   UNL     1      -0.240   4.781  -9.670  0.00  0.00    -0.268 OA
ATOM      8  C   UNL     1       0.357   5.595  -8.904  0.00  0.00    +0.269 C 
ATOM      9  N   UNL     1       1.487   6.245  -9.454  0.00  0.00    -0.174 NA
BRANCH   9  10
ATOM     10  C   UNL     1       2.352   5.629 -10.417  0.00  0.00    +0.098 A 
ATOM     11  C   UNL     1       2.360   6.133 -11.711  0.00  0.00    +0.093 A 
ATOM     12 CL   UNL     1       0.784   6.488 -12.404  0.00  0.00    -0.079 Cl
ATOM     13  C   UNL     1       3.531   6.260 -12.444  0.00  0.00    +0.112 A 
ATOM     14  N   UNL     1       4.719   5.915 -11.890  0.00  0.00    -0.240 NA
ATOM     15  C   UNL     1       4.726   5.214 -10.729  0.00  0.00    +0.112 A 
ATOM     16  C   UNL     1       3.593   5.234  -9.933  0.00  0.00    +0.093 A 
ATOM     17 CL   UNL     1       3.574   4.266  -8.462  0.00  0.00    -0.079 Cl
ENDBRANCH   9  10
ENDBRANCH   1   8
BRANCH   3  18
ATOM     18  O   UNL     1       1.371   6.561  -4.306  0.00  0.00    -0.472 OA
BRANCH  18  19
ATOM     19  C   UNL     1       2.199   5.442  -4.117  0.00  0.00    +0.205 C 
BRANCH  19  20
ATOM     20  C   UNL     1       3.633   5.956  -4.093  0.00  0.00    +0.044 C 
ATOM     21  C   UNL     1       4.706   4.935  -4.558  0.00  0.00    +0.004 C 
ATOM     22  C   UNL     1       4.330   6.157  -5.406  0.00  0.00    +0.004 C 
ENDBRANCH  19  20
ENDBRANCH  18  19
ENDBRANCH   3  18
BRANCH   4  23
ATOM     23  O   UNL     1      -1.318   6.483  -3.690  0.00  0.00    -0.421 OA
BRANCH  23  24
ATOM     24  C   UNL     1      -2.021   7.565  -3.119  0.00  0.00    +0.509 C 
ATOM     25  F   UNL     1      -3.248   7.214  -2.616  0.00  0.00    -0.155 F 
ATOM     26  F   UNL     1      -2.131   8.608  -4.001  0.00  0.00    -0.155 F 
ENDBRANCH  23  24
ENDBRANCH   4  23
TORSDOF 7
ENDMDL
MODEL 2
REMARK VINA RESULT:      -7.7      5.072      8.565
REMARK  Name = 
REMARK  7 active torsions:
REMARK  status: ('A' for Active; 'I' for Inactive)
REMARK    1  A    between atoms: C_2  and  C_12
REMARK    2  A    between atoms: N_3  and  C_4
REMARK    3  A    between atoms: C_15  and  O_16
REMARK    4  A    between atoms: O_16  and  C_17
REMARK    5  A    between atoms: C_20  and  O_21
REMARK    6  A    between atoms: O_21  and  C_22
REMARK    7  A    between atoms: C_22  and  C_23
REMARK                            x       y       z     vdW  Elec       q    Type
REMARK                         _______ _______ _______ _____ _____    ______ ____
ROOT
ATOM      1  C   UNL     1       5.176   5.534  -9.209  0.00  0.00    +0.059 A 
ATOM      2  C   UNL     1       4.658   6.119 -10.359  0.00  0.00    +0.045 A 
ATOM      3  C   UNL     1       5.484   6.514 -11.403  0.00  0.00    +0.173 A 
ATOM      4  C   UNL     1       6.811   6.730 -11.052  0.00  0.00    +0.178 A 
ATOM      5  C   UNL     1       7.315   6.226  -9.859  0.00  0.00    +0.040 A 
ATOM      6  C   UNL     1       6.550   5.374  -9.073  0.00  0.00    +0.008 A 
ENDROOT
BRANCH   1   8
ATOM      7  O   UNL     1       3.399   4.243  -8.338  0.00  0.00    -0.268 OA
ATOM      8  C   UNL     1       4.260   5.154  -8.148  0.00  0.00    +0.269 C 
ATOM      9  N   UNL     1       4.184   5.825  -6.905  0.00  0.00    -0.174 NA
BRANCH   9  10
ATOM     10  C   UNL     1       2.949   6.055  -6.214  0.00  0.00    +0.098 A 
ATOM     11  C   UNL     1       1.881   6.577  -6.932  0.00  0.00    +0.093 A 
ATOM     12 CL   UNL     1       2.264   7.908  -8.016  0.00  0.00    -0.079 Cl
ATOM     13  C   UNL     1       0.579   6.138  -6.737  0.00  0.00    +0.112 A 
ATOM     14  N   UNL     1       0.323   5.150  -5.845  0.00  0.00    -0.240 NA
ATOM     15  C   UNL     1       1.293   4.782  -4.972  0.00  0.00    +0.112 A 
ATOM     16  C   UNL     1       2.609   5.094  -5.270  0.00  0.00    +0.093 A 
ATOM     17 CL   UNL     1       3.862   4.682  -4.104  0.00  0.00    -0.079 Cl
ENDBRANCH   9  10
ENDBRANCH   1   8
BRANCH   3  18
ATOM     18  O   UNL     1       5.126   6.290 -12.737  0.00  0.00    -0.472 OA
BRANCH  18  19
ATOM     19  C   UNL     1       4.367   5.185 -13.159  0.00  0.00    +0.205 C 
BRANCH  19  20
ATOM     20  C   UNL     1       3.184   5.738 -13.943  0.00  0.00    +0.044 C 
ATOM     21  C   UNL     1       1.917   4.843 -13.942  0.00  0.00    +0.004 C 
ATOM     22  C   UNL     1       1.971   6.169 -13.174  0.00  0.00    +0.004 C 
ENDBRANCH  19  20
ENDBRANCH  18  19
ENDBRANCH   3  18
BRANCH   4  23
ATOM     23  O   UNL     1       7.723   6.962 -12.087  0.00  0.00    -0.421 OA
BRANCH  23  24
ATOM     24  C   UNL     1       8.513   5.924 -12.625  0.00  0.00    +0.509 C 
ATOM     25  F   UNL     1       7.937   4.685 -12.508  0.00  0.00    -0.155 F 
ATOM     26  F   UNL     1       9.775   5.932 -12.092  0.00  0.00    -0.155 F 
ENDBRANCH  23  24
ENDBRANCH   4  23
TORSDOF 7
ENDMDL
MODEL 3
REMARK VINA RESULT:      -7.6      1.743      2.464
REMARK  Name = 
REMARK  7 active torsions:
REMARK  status: ('A' for Active; 'I' for Inactive)
REMARK    1  A    between atoms: C_2  and  C_12
REMARK    2  A    between atoms: N_3  and  C_4
REMARK    3  A    between atoms: C_15  and  O_16
REMARK    4  A    between atoms: O_16  and  C_17
REMARK    5  A    between atoms: C_20  and  O_21
REMARK    6  A    between atoms: O_21  and  C_22
REMARK    7  A    between atoms: C_22  and  C_23
REMARK                            x       y       z     vdW  Elec       q    Type
REMARK                         _______ _______ _______ _____ _____    ______ ____
ROOT
ATOM      1  C   UNL     1       1.186   6.129  -7.971  0.00  0.00    +0.059 A 
ATOM      2  C   UNL     1       1.414   6.919  -6.850  0.00  0.00    +0.045 A 
ATOM      3  C   UNL     1       0.611   6.819  -5.721  0.00  0.00    +0.173 A 
ATOM      4  C   UNL     1      -0.649   6.275  -5.943  0.00  0.00    +0.178 A 
ATOM      5  C   UNL     1      -0.912   5.561  -7.106  0.00  0.00    +0.040 A 
ATOM      6  C   UNL     1       0.112   5.248  -7.990  0.00  0.00    +0.008 A 
ENDROOT
BRANCH   1   8
ATOM      7  O   UNL     1       2.979   7.158  -9.117  0.00  0.00    -0.268 OA
ATOM      8  C   UNL     1       2.055   6.290  -9.124  0.00  0.00    +0.269 C 
ATOM      9  N   UNL     1       1.871   5.596 -10.343  0.00  0.00    -0.174 NA
BRANCH   9  10
ATOM     10  C   UNL     1       2.103   6.191 -11.626  0.00  0.00    +0.098 A 
ATOM     11  C   UNL     1       3.159   5.714 -12.391  0.00  0.00    +0.093 A 
ATOM     12 CL   UNL     1       4.668   5.443 -11.530  0.00  0.00    -0.079 Cl
ATOM     13  C   UNL     1       3.056   5.550 -13.765  0.00  0.00    +0.112 A 
ATOM     14  N   UNL     1       1.890   5.830 -14.397  0.00  0.00    -0.240 NA
ATOM     15  C   UNL     1       0.924   6.507 -13.727  0.00  0.00    +0.112 A 
ATOM     16  C   UNL     1       0.960   6.522 -12.343  0.00  0.00    +0.093 A 
ATOM     17 CL   UNL     1      -0.251   7.460 -11.474  0.00  0.00    -0.079 Cl
ENDBRANCH   9  10
ENDBRANCH   1   8
BRANCH   3  18
ATOM     18  O   UNL     1       1.159   6.846  -4.435  0.00  0.00    -0.472 OA
BRANCH  18  19
ATOM     19  C   UNL     1       2.542   6.839  -4.183  0.00  0.00    +0.205 C 
BRANCH  19  20
ATOM     20  C   UNL     1       2.938   5.389  -3.939  0.00  0.00    +0.044 C 
ATOM     21  C   UNL     1       4.125   4.877  -4.797  0.00  0.00    +0.004 C 
ATOM     22  C   UNL     1       4.263   5.121  -3.289  0.00  0.00    +0.004 C 
ENDBRANCH  19  20
ENDBRANCH  18  19
ENDBRANCH   3  18
BRANCH   4  23
ATOM     23  O   UNL     1      -1.437   5.993  -4.823  0.00  0.00    -0.421 OA
BRANCH  23  24
ATOM     24  C   UNL     1      -2.404   6.904  -4.349  0.00  0.00    +0.509 C 
ATOM     25  F   UNL     1      -3.397   6.311  -3.612  0.00  0.00    -0.155 F 
ATOM     26  F   UNL     1      -2.930   7.647  -5.373  0.00  0.00    -0.155 F 
ENDBRANCH  23  24
ENDBRANCH   4  23
TORSDOF 7
ENDMDL
MODEL 4
REMARK VINA RESULT:      -7.5      4.376      7.881
REMARK  Name = 
REMARK  7 active torsions:
REMARK  status: ('A' for Active; 'I' for Inactive)
REMARK    1  A    between atoms: C_2  and  C_12
REMARK    2  A    between atoms: N_3  and  C_4
REMARK    3  A    between atoms: C_15  and  O_16
REMARK    4  A    between atoms: O_16  and  C_17
REMARK    5  A    between atoms: C_20  and  O_21
REMARK    6  A    between atoms: O_21  and  C_22
REMARK    7  A    between atoms: C_22  and  C_23
REMARK                            x       y       z     vdW  Elec       q    Type
REMARK                         _______ _______ _______ _____ _____    ______ ____
ROOT
ATOM      1  C   UNL     1       3.562   5.522  -7.756  0.00  0.00    +0.059 A 
ATOM      2  C   UNL     1       3.070   6.420  -8.695  0.00  0.00    +0.045 A 
ATOM      3  C   UNL     1       3.751   6.670  -9.881  0.00  0.00    +0.173 A 
ATOM      4  C   UNL     1       5.107   6.365  -9.854  0.00  0.00    +0.178 A 
ATOM      5  C   UNL     1       5.624   5.541  -8.862  0.00  0.00    +0.040 A 
ATOM      6  C   UNL     1       4.779   4.886  -7.976  0.00  0.00    +0.008 A 
ENDROOT
BRANCH   1   8
ATOM      7  O   UNL     1       2.902   4.219  -5.898  0.00  0.00    -0.268 OA
ATOM      8  C   UNL     1       2.809   5.313  -6.532  0.00  0.00    +0.269 C 
ATOM      9  N   UNL     1       1.858   6.235  -6.033  0.00  0.00    -0.174 NA
BRANCH   9  10
ATOM     10  C   UNL     1       0.635   5.834  -5.403  0.00  0.00    +0.098 A 
ATOM     11  C   UNL     1       0.482   6.082  -4.045  0.00  0.00    +0.093 A 
ATOM     12 CL   UNL     1       1.872   5.705  -3.037  0.00  0.00    -0.079 Cl
ATOM     13  C   UNL     1      -0.723   6.512  -3.507  0.00  0.00    +0.112 A 
ATOM     14  N   UNL     1      -1.788   6.731  -4.316  0.00  0.00    -0.240 NA
ATOM     15  C   UNL     1      -1.745   6.286  -5.596  0.00  0.00    +0.112 A 
ATOM     16  C   UNL     1      -0.512   6.015  -6.166  0.00  0.00    +0.093 A 
ATOM     17 CL   UNL     1      -0.459   5.368  -7.803  0.00  0.00    -0.079 Cl
ENDBRANCH   9  10
ENDBRANCH   1   8
BRANCH   3  18
ATOM     18  O   UNL     1       3.071   6.792 -11.097  0.00  0.00    -0.472 OA
BRANCH  18  19
ATOM     19  C   UNL     1       2.470   5.709 -11.760  0.00  0.00    +0.205 C 
BRANCH  19  20
ATOM     20  C   UNL     1       1.054   6.143 -12.118  0.00  0.00    +0.044 C 
ATOM     21  C   UNL     1      -0.076   5.379 -11.379  0.00  0.00    +0.004 C 
ATOM     22  C   UNL     1       0.247   6.846 -11.068  0.00  0.00    +0.004 C 
ENDBRANCH  19  20
ENDBRANCH  18  19
ENDBRANCH   3  18
BRANCH   4  23
ATOM     23  O   UNL     1       5.807   6.434 -11.063  0.00  0.00    -0.421 OA
BRANCH  23  24
ATOM     24  C   UNL     1       6.817   7.396 -11.279  0.00  0.00    +0.509 C 
ATOM     25  F   UNL     1       7.764   7.424 -10.287  0.00  0.00    -0.155 F 
ATOM     26  F   UNL     1       6.283   8.641 -11.484  0.00  0.00    -0.155 F 
ENDBRANCH  23  24
ENDBRANCH   4  23
TORSDOF 7
ENDMDL
MODEL 5
REMARK VINA RESULT:      -7.4      4.607      7.989
REMARK  Name = 
REMARK  7 active torsions:
REMARK  status: ('A' for Active; 'I' for Inactive)
REMARK    1  A    between atoms: C_2  and  C_12
REMARK    2  A    between atoms: N_3  and  C_4
REMARK    3  A    between atoms: C_15  and  O_16
REMARK    4  A    between atoms: O_16  and  C_17
REMARK    5  A    between atoms: C_20  and  O_21
REMARK    6  A    between atoms: O_21  and  C_22
REMARK    7  A    between atoms: C_22  and  C_23
REMARK                            x       y       z     vdW  Elec       q    Type
REMARK                         _______ _______ _______ _____ _____    ______ ____
ROOT
ATOM      1  C   UNL     1       4.302   5.841  -7.892  0.00  0.00    +0.059 A 
ATOM      2  C   UNL     1       3.630   6.617  -8.828  0.00  0.00    +0.045 A 
ATOM      3  C   UNL     1       4.055   6.684 -10.149  0.00  0.00    +0.173 A 
ATOM      4  C   UNL     1       5.387   6.346 -10.355  0.00  0.00    +0.178 A 
ATOM      5  C   UNL     1       6.094   5.649  -9.383  0.00  0.00    +0.040 A 
ATOM      6  C   UNL     1       5.447   5.146  -8.262  0.00  0.00    +0.008 A 
ENDROOT
BRANCH   1   8
ATOM      7  O   UNL     1       3.786   4.739  -5.866  0.00  0.00    -0.268 OA
ATOM      8  C   UNL     1       3.813   5.822  -6.524  0.00  0.00    +0.269 C 
ATOM      9  N   UNL     1       3.243   6.948  -5.883  0.00  0.00    -0.174 NA
BRANCH   9  10
ATOM     10  C   UNL     1       2.132   6.856  -4.983  0.00  0.00    +0.098 A 
ATOM     11  C   UNL     1       1.021   6.122  -5.381  0.00  0.00    +0.093 A 
ATOM     12 CL   UNL     1       0.484   6.383  -7.034  0.00  0.00    -0.079 Cl
ATOM     13  C   UNL     1       0.325   5.306  -4.501  0.00  0.00    +0.112 A 
ATOM     14  N   UNL     1       0.741   5.183  -3.216  0.00  0.00    -0.240 NA
ATOM     15  C   UNL     1       1.669   6.049  -2.738  0.00  0.00    +0.112 A 
ATOM     16  C   UNL     1       2.464   6.736  -3.639  0.00  0.00    +0.093 A 
ATOM     17 CL   UNL     1       3.619   7.914  -3.024  0.00  0.00    -0.079 Cl
ENDBRANCH   9  10
ENDBRANCH   1   8
BRANCH   3  18
ATOM     18  O   UNL     1       3.142   6.661 -11.208  0.00  0.00    -0.472 OA
BRANCH  18  19
ATOM     19  C   UNL     1       2.391   5.525 -11.558  0.00  0.00    +0.205 C 
BRANCH  19  20
ATOM     20  C   UNL     1       0.964   5.999 -11.802  0.00  0.00    +0.044 C 
ATOM     21  C   UNL     1      -0.121   5.285 -10.954  0.00  0.00    +0.004 C 
ATOM     22  C   UNL     1       0.273   6.745 -10.700  0.00  0.00    +0.004 C 
ENDBRANCH  19  20
ENDBRANCH  18  19
ENDBRANCH   3  18
BRANCH   4  23
ATOM     23  O   UNL     1       5.827   6.230 -11.677  0.00  0.00    -0.421 OA
BRANCH  23  24
ATOM     24  C   UNL     1       6.689   7.185 -12.258  0.00  0.00    +0.509 C 
ATOM     25  F   UNL     1       8.007   6.808 -12.246  0.00  0.00    -0.155 F 
ATOM     26  F   UNL     1       6.524   8.417 -11.682  0.00  0.00    -0.155 F 
ENDBRANCH  23  24
ENDBRANCH   4  23
TORSDOF 7
ENDMDL
MODEL 6
REMARK VINA RESULT:      -7.4      5.036      8.218
REMARK  Name = 
REMARK  7 active torsions:
REMARK  status: ('A' for Active; 'I' for Inactive)
REMARK    1  A    between atoms: C_2  and  C_12
REMARK    2  A    between atoms: N_3  and  C_4
REMARK    3  A    between atoms: C_15  and  O_16
REMARK    4  A    between atoms: O_16  and  C_17
REMARK    5  A    between atoms: C_20  and  O_21
REMARK    6  A    between atoms: O_21  and  C_22
REMARK    7  A    between atoms: C_22  and  C_23
REMARK                            x       y       z     vdW  Elec       q    Type
REMARK                         _______ _______ _______ _____ _____    ______ ____
ROOT
ATOM      1  C   UNL     1       3.666   6.034  -7.630  0.00  0.00    +0.059 A 
ATOM      2  C   UNL     1       3.347   6.794  -8.750  0.00  0.00    +0.045 A 
ATOM      3  C   UNL     1       4.059   6.666  -9.935  0.00  0.00    +0.173 A 
ATOM      4  C   UNL     1       5.335   6.132  -9.799  0.00  0.00    +0.178 A 
ATOM      5  C   UNL     1       5.692   5.450  -8.642  0.00  0.00    +0.040 A 
ATOM      6  C   UNL     1       4.742   5.157  -7.672  0.00  0.00    +0.008 A 
ENDROOT
BRANCH   1   8
ATOM      7  O   UNL     1       1.944   7.066  -6.383  0.00  0.00    -0.268 OA
ATOM      8  C   UNL     1       2.889   6.223  -6.417  0.00  0.00    +0.269 C 
ATOM      9  N   UNL     1       3.191   5.586  -5.190  0.00  0.00    -0.174 NA
BRANCH   9  10
ATOM     10  C   UNL     1       3.048   6.230  -3.918  0.00  0.00    +0.098 A 
ATOM     11  C   UNL     1       2.115   5.720  -3.024  0.00  0.00    +0.093 A 
ATOM     12 CL   UNL     1       0.551   5.299  -3.707  0.00  0.00    -0.079 Cl
ATOM     13  C   UNL     1       2.370   5.636  -1.663  0.00  0.00    +0.112 A 
ATOM     14  N   UNL     1       3.571   6.031  -1.172  0.00  0.00    -0.240 NA
ATOM     15  C   UNL     1       4.409   6.738  -1.969  0.00  0.00    +0.112 A 
ATOM     16  C   UNL     1       4.230   6.677  -3.342  0.00  0.00    +0.093 A 
ATOM     17 CL   UNL     1       5.270   7.652  -4.375  0.00  0.00    -0.079 Cl
ENDBRANCH   9  10
ENDBRANCH   1   8
BRANCH   3  18
ATOM     18  O   UNL     1       3.411   6.657 -11.175  0.00  0.00    -0.472 OA
BRANCH  18  19
ATOM     19  C   UNL     1       2.511   5.652 -11.570  0.00  0.00    +0.205 C 
BRANCH  19  20
ATOM     20  C   UNL     1       1.184   6.341 -11.861  0.00  0.00    +0.044 C 
ATOM     21  C   UNL     1      -0.078   5.538 -11.449  0.00  0.00    +0.004 C 
ATOM     22  C   UNL     1       0.359   6.800 -10.696  0.00  0.00    +0.004 C 
ENDBRANCH  19  20
ENDBRANCH  18  19
ENDBRANCH   3  18
BRANCH   4  23
ATOM     23  O   UNL     1       6.033   5.822 -10.970  0.00  0.00    -0.421 OA
BRANCH  23  24
ATOM     24  C   UNL     1       7.367   6.239 -11.169  0.00  0.00    +0.509 C 
ATOM     25  F   UNL     1       8.294   5.313 -10.763  0.00  0.00    -0.155 F 
ATOM     26  F   UNL     1       7.600   7.456 -10.585  0.00  0.00    -0.155 F 
ENDBRANCH  23  24
ENDBRANCH   4  23
TORSDOF 7
ENDMDL
MODEL 7
REMARK VINA RESULT:      -7.4      4.241      7.516
REMARK  Name = 
REMARK  7 active torsions:
REMARK  status: ('A' for Active; 'I' for Inactive)
REMARK    1  A    between atoms: C_2  and  C_12
REMARK    2  A    between atoms: N_3  and  C_4
REMARK    3  A    between atoms: C_15  and  O_16
REMARK    4  A    between atoms: O_16  and  C_17
REMARK    5  A    between atoms: C_20  and  O_21
REMARK    6  A    between atoms: O_21  and  C_22
REMARK    7  A    between atoms: C_22  and  C_23
REMARK                            x       y       z     vdW  Elec       q    Type
REMARK                         _______ _______ _______ _____ _____    ______ ____
ROOT
ATOM      1  C   UNL     1       1.043   5.395  -7.889  0.00  0.00    +0.059 A 
ATOM      2  C   UNL     1       2.343   5.500  -8.369  0.00  0.00    +0.045 A 
ATOM      3  C   UNL     1       2.598   5.736  -9.714  0.00  0.00    +0.173 A 
ATOM      4  C   UNL     1       1.564   5.392 -10.577  0.00  0.00    +0.178 A 
ATOM      5  C   UNL     1       0.278   5.194 -10.091  0.00  0.00    +0.040 A 
ATOM      6  C   UNL     1      -0.030   5.484  -8.768  0.00  0.00    +0.008 A 
ENDROOT
BRANCH   1   8
ATOM      7  O   UNL     1       1.057   3.983  -5.994  0.00  0.00    -0.268 OA
ATOM      8  C   UNL     1       0.843   5.136  -6.473  0.00  0.00    +0.269 C 
ATOM      9  N   UNL     1       0.303   6.087  -5.575  0.00  0.00    -0.174 NA
BRANCH   9  10
ATOM     10  C   UNL     1      -0.590   5.738  -4.510  0.00  0.00    +0.098 A 
ATOM     11  C   UNL     1      -0.161   5.929  -3.202  0.00  0.00    +0.093 A 
ATOM     12 CL   UNL     1       1.482   5.413  -2.852  0.00  0.00    -0.079 Cl
ATOM     13  C   UNL     1      -1.008   6.410  -2.214  0.00  0.00    +0.112 A 
ATOM     14  N   UNL     1      -2.288   6.737  -2.517  0.00  0.00    -0.240 NA
ATOM     15  C   UNL     1      -2.802   6.353  -3.711  0.00  0.00    +0.112 A 
ATOM     16  C   UNL     1      -1.929   6.030  -4.738  0.00  0.00    +0.093 A 
ATOM     17 CL   UNL     1      -2.592   5.461  -6.266  0.00  0.00    -0.079 Cl
ENDBRANCH   9  10
ENDBRANCH   1   8
BRANCH   3  18
ATOM     18  O   UNL     1       3.598   6.627 -10.118  0.00  0.00    -0.472 OA
BRANCH  18  19
ATOM     19  C   UNL     1       4.895   6.224 -10.479  0.00  0.00    +0.205 C 
BRANCH  19  20
ATOM     20  C   UNL     1       5.637   7.477 -10.926  0.00  0.00    +0.044 C 
ATOM     21  C   UNL     1       7.182   7.406 -10.803  0.00  0.00    +0.004 C 
ATOM     22  C   UNL     1       6.478   7.392 -12.165  0.00  0.00    +0.004 C 
ENDBRANCH  19  20
ENDBRANCH  18  19
ENDBRANCH   3  18
BRANCH   4  23
ATOM     23  O   UNL     1       1.694   5.762 -11.920  0.00  0.00    -0.421 OA
BRANCH  23  24
ATOM     24  C   UNL     1       0.605   6.279 -12.653  0.00  0.00    +0.509 C 
ATOM     25  F   UNL     1       0.675   6.009 -13.996  0.00  0.00    -0.155 F 
ATOM     26  F   UNL     1       0.448   7.622 -12.430  0.00  0.00    -0.155 F 
ENDBRANCH  23  24
ENDBRANCH   4  23
TORSDOF 7
ENDMDL
MODEL 8
REMARK VINA RESULT:      -7.3      4.411      7.696
REMARK  Name = 
REMARK  7 active torsions:
REMARK  status: ('A' for Active; 'I' for Inactive)
REMARK    1  A    between atoms: C_2  and  C_12
REMARK    2  A    between atoms: N_3  and  C_4
REMARK    3  A    between atoms: C_15  and  O_16
REMARK    4  A    between atoms: O_16  and  C_17
REMARK    5  A    between atoms: C_20  and  O_21
REMARK    6  A    between atoms: O_21  and  C_22
REMARK    7  A    between atoms: C_22  and  C_23
REMARK                            x       y       z     vdW  Elec       q    Type
REMARK                         _______ _______ _______ _____ _____    ______ ____
ROOT
ATOM      1  C   UNL     1       3.272   6.367  -8.764  0.00  0.00    +0.059 A 
ATOM      2  C   UNL     1       4.082   5.871  -9.779  0.00  0.00    +0.045 A 
ATOM      3  C   UNL     1       3.685   5.922 -11.109  0.00  0.00    +0.173 A 
ATOM      4  C   UNL     1       2.315   6.039 -11.309  0.00  0.00    +0.178 A 
ATOM      5  C   UNL     1       1.484   6.446 -10.272  0.00  0.00    +0.040 A 
ATOM      6  C   UNL     1       2.021   6.889  -9.069  0.00  0.00    +0.008 A 
ENDROOT
BRANCH   1   8
ATOM      7  O   UNL     1       4.736   5.547  -7.101  0.00  0.00    -0.268 OA
ATOM      8  C   UNL     1       3.740   6.274  -7.392  0.00  0.00    +0.269 C 
ATOM      9  N   UNL     1       3.072   6.873  -6.297  0.00  0.00    -0.174 NA
BRANCH   9  10
ATOM     10  C   UNL     1       2.968   6.253  -5.009  0.00  0.00    +0.098 A 
ATOM     11  C   UNL     1       3.516   6.912  -3.916  0.00  0.00    +0.093 A 
ATOM     12 CL   UNL     1       5.111   7.609  -4.162  0.00  0.00    -0.079 Cl
ATOM     13  C   UNL     1       2.884   6.937  -2.681  0.00  0.00    +0.112 A 
ATOM     14  N   UNL     1       1.682   6.332  -2.521  0.00  0.00    -0.240 NA
ATOM     15  C   UNL     1       1.231   5.495  -3.488  0.00  0.00    +0.112 A 
ATOM     16  C   UNL     1       1.768   5.599  -4.761  0.00  0.00    +0.093 A 
ATOM     17 CL   UNL     1       1.238   4.465  -5.999  0.00  0.00    -0.079 Cl
ENDBRANCH   9  10
ENDBRANCH   1   8
BRANCH   3  18
ATOM     18  O   UNL     1       4.585   6.266 -12.123  0.00  0.00    -0.472 OA
BRANCH  18  19
ATOM     19  C   UNL     1       5.778   5.564 -12.370  0.00  0.00    +0.205 C 
BRANCH  19  20
ATOM     20  C   UNL     1       6.919   6.553 -12.172  0.00  0.00    +0.044 C 
ATOM     21  C   UNL     1       7.790   6.311 -10.910  0.00  0.00    +0.004 C 
ATOM     22  C   UNL     1       8.323   6.047 -12.324  0.00  0.00    +0.004 C 
ENDBRANCH  19  20
ENDBRANCH  18  19
ENDBRANCH   3  18
BRANCH   4  23
ATOM     23  O   UNL     1       1.870   6.265 -12.615  0.00  0.00    -0.421 OA
BRANCH  23  24
ATOM     24  C   UNL     1       1.417   5.211 -13.436  0.00  0.00    +0.509 C 
ATOM     25  F   UNL     1       0.671   4.278 -12.763  0.00  0.00    -0.155 F 
ATOM     26  F   UNL     1       2.457   4.620 -14.105  0.00  0.00    -0.155 F 
ENDBRANCH  23  24
ENDBRANCH   4  23
TORSDOF 7
ENDMDL
MODEL 9
REMARK VINA RESULT:      -7.2      2.894      4.508
REMARK  Name = 
REMARK  7 active torsions:
REMARK  status: ('A' for Active; 'I' for Inactive)
REMARK    1  A    between atoms: C_2  and  C_12
REMARK    2  A    between atoms: N_3  and  C_4
REMARK    3  A    between atoms: C_15  and  O_16
REMARK    4  A    between atoms: O_16  and  C_17
REMARK    5  A    between atoms: C_20  and  O_21
REMARK    6  A    between atoms: O_21  and  C_22
REMARK    7  A    between atoms: C_22  and  C_23
REMARK                            x       y       z     vdW  Elec       q    Type
REMARK                         _______ _______ _______ _____ _____    ______ ____
ROOT
ATOM      1  C   UNL     1       3.518   5.321  -7.117  0.00  0.00    +0.059 A 
ATOM      2  C   UNL     1       2.371   4.780  -6.549  0.00  0.00    +0.045 A 
ATOM      3  C   UNL     1       2.118   4.893  -5.187  0.00  0.00    +0.173 A 
ATOM      4  C   UNL     1       3.239   5.129  -4.400  0.00  0.00    +0.178 A 
ATOM      5  C   UNL     1       4.420   5.582  -4.974  0.00  0.00    +0.040 A 
ATOM      6  C   UNL     1       4.459   5.953  -6.312  0.00  0.00    +0.008 A 
ENDROOT
BRANCH   1   8
ATOM      7  O   UNL     1       3.486   4.052  -9.110  0.00  0.00    -0.268 OA
ATOM      8  C   UNL     1       3.730   5.160  -8.545  0.00  0.00    +0.269 C 
ATOM      9  N   UNL     1       4.313   6.155  -9.365  0.00  0.00    -0.174 NA
BRANCH   9  10
ATOM     10  C   UNL     1       5.209   5.856 -10.443  0.00  0.00    +0.098 A 
ATOM     11  C   UNL     1       4.802   6.149 -11.738  0.00  0.00    +0.093 A 
ATOM     12 CL   UNL     1       3.150   5.705 -12.141  0.00  0.00    -0.079 Cl
ATOM     13  C   UNL     1       5.674   6.673 -12.682  0.00  0.00    +0.112 A 
ATOM     14  N   UNL     1       6.959   6.942 -12.343  0.00  0.00    -0.240 NA
ATOM     15  C   UNL     1       7.447   6.462 -11.172  0.00  0.00    +0.112 A 
ATOM     16  C   UNL     1       6.553   6.093 -10.181  0.00  0.00    +0.093 A 
ATOM     17 CL   UNL     1       7.181   5.401  -8.688  0.00  0.00    -0.079 Cl
ENDBRANCH   9  10
ENDBRANCH   1   8
BRANCH   3  18
ATOM     18  O   UNL     1       0.836   5.181  -4.708  0.00  0.00    -0.472 OA
BRANCH  18  19
ATOM     19  C   UNL     1       0.041   6.227  -5.206  0.00  0.00    +0.205 C 
BRANCH  19  20
ATOM     20  C   UNL     1      -1.406   5.756  -5.127  0.00  0.00    +0.044 C 
ATOM     21  C   UNL     1      -2.471   6.877  -5.253  0.00  0.00    +0.004 C 
ATOM     22  C   UNL     1      -2.244   5.848  -6.367  0.00  0.00    +0.004 C 
ENDBRANCH  19  20
ENDBRANCH  18  19
ENDBRANCH   3  18
BRANCH   4  23
ATOM     23  O   UNL     1       3.028   5.419  -3.048  0.00  0.00    -0.421 OA
BRANCH  23  24
ATOM     24  C   UNL     1       3.941   5.012  -2.052  0.00  0.00    +0.509 C 
ATOM     25  F   UNL     1       3.349   4.342  -1.012  0.00  0.00    -0.155 F 
ATOM     26  F   UNL     1       4.686   6.068  -1.597  0.00  0.00    -0.155 F 
ENDBRANCH  23  24
ENDBRANCH   4  23
TORSDOF 7
ENDMDL
