MODEL 1
REMARK VINA RESULT:      -9.8      0.000      0.000
REMARK  Name = 
REMARK  0 active torsions:
REMARK  status: ('A' for Active; 'I' for Inactive)
REMARK                            x       y       z     vdW  Elec       q    Type
REMARK                         _______ _______ _______ _____ _____    ______ ____
ROOT
ATOM      1  C   UNL     1       4.053   4.847  -1.356  0.00  0.00    +0.090 C 
ATOM      2  N   UNL     1       3.428   5.374  -2.540  0.00  0.00    -0.271 NA
ATOM      3  C   UNL     1       4.425   6.055  -3.342  0.00  0.00    +0.077 C 
ATOM      4  C   UNL     1       3.817   6.450  -4.682  0.00  0.00    +0.039 C 
ATOM      5  C   UNL     1       2.369   6.189  -4.739  0.00  0.00    -0.041 C 
ATOM      6  C   UNL     1       1.742   5.825  -5.858  0.00  0.00    -0.008 C 
ATOM      7  C   UNL     1       0.280   5.938  -5.818  0.00  0.00    -0.001 A 
ATOM      8  C   UNL     1      -0.573   5.583  -6.846  0.00  0.00    -0.000 A 
ATOM      9  C   UNL     1      -1.928   5.706  -6.575  0.00  0.00    -0.000 A 
ATOM     10  C   UNL     1      -2.361   6.504  -5.523  0.00  0.00    -0.000 A 
ATOM     11  C   UNL     1      -1.452   7.265  -4.797  0.00  0.00    -0.000 A 
ATOM     12  C   UNL     1      -0.291   5.351  -8.263  0.00  0.00    -0.000 C 
ATOM     13  C   UNL     1       0.864   5.502  -8.912  0.00  0.00    -0.000 C 
ATOM     14  C   UNL     1       2.203   5.349  -8.329  0.00  0.00    -0.000 A 
ATOM     15  C   UNL     1       3.087   4.758  -9.221  0.00  0.00    -0.000 A 
ATOM     16  C   UNL     1       4.440   4.919  -8.969  0.00  0.00    -0.000 A 
ATOM     17  C   UNL     1       4.845   5.378  -7.745  0.00  0.00    -0.000 A 
ATOM     18  C   UNL     1       3.940   5.539  -6.704  0.00  0.00    -0.000 A 
ATOM     19  C   UNL     1      -0.146   6.789  -4.805  0.00  0.00    -0.000 A 
ATOM     20  C   UNL     1       2.594   5.611  -7.020  0.00  0.00    -0.001 A 
ATOM     21  C   UNL     1       1.563   6.476  -3.518  0.00  0.00    +0.039 C 
ATOM     22  C   UNL     1       2.389   6.340  -2.255  0.00  0.00    +0.077 C 
ENDROOT
TORSDOF 0
ENDMDL
MODEL 2
REMARK VINA RESULT:      -9.6      2.425      5.910
REMARK  Name = 
REMARK  0 active torsions:
REMARK  status: ('A' for Active; 'I' for Inactive)
REMARK                            x       y       z     vdW  Elec       q    Type
REMARK                         _______ _______ _______ _____ _____    ______ ____
ROOT
ATOM      1  C   UNL     1       2.467   6.416  -4.494  0.00  0.00    +0.090 C 
ATOM      2  N   UNL     1       2.909   5.979  -5.791  0.00  0.00    -0.271 NA
ATOM      3  C   UNL     1       2.084   4.869  -6.226  0.00  0.00    +0.077 C 
ATOM      4  C   UNL     1       2.417   4.524  -7.673  0.00  0.00    +0.039 C 
ATOM      5  C   UNL     1       3.575   5.282  -8.177  0.00  0.00    -0.041 C 
ATOM      6  C   UNL     1       3.686   5.674  -9.446  0.00  0.00    -0.008 C 
ATOM      7  C   UNL     1       5.029   6.107  -9.849  0.00  0.00    -0.001 A 
ATOM      8  C   UNL     1       5.367   6.587 -11.100  0.00  0.00    -0.000 A 
ATOM      9  C   UNL     1       6.681   7.008 -11.250  0.00  0.00    -0.000 A 
ATOM     10  C   UNL     1       7.655   6.590 -10.351  0.00  0.00    -0.000 A 
ATOM     11  C   UNL     1       7.346   5.671  -9.356  0.00  0.00    -0.000 A 
ATOM     12  C   UNL     1       4.650   6.484 -12.372  0.00  0.00    -0.000 C 
ATOM     13  C   UNL     1       3.519   5.828 -12.632  0.00  0.00    -0.000 C 
ATOM     14  C   UNL     1       2.435   5.570 -11.675  0.00  0.00    -0.000 A 
ATOM     15  C   UNL     1       1.188   5.658 -12.277  0.00  0.00    -0.000 A 
ATOM     16  C   UNL     1       0.126   5.056 -11.620  0.00  0.00    -0.000 A 
ATOM     17  C   UNL     1       0.276   4.672 -10.315  0.00  0.00    -0.000 A 
ATOM     18  C   UNL     1       1.413   5.010  -9.593  0.00  0.00    -0.000 A 
ATOM     19  C   UNL     1       6.008   5.633  -8.983  0.00  0.00    -0.000 A 
ATOM     20  C   UNL     1       2.542   5.386 -10.301  0.00  0.00    -0.001 A 
ATOM     21  C   UNL     1       4.722   5.495  -7.250  0.00  0.00    +0.039 C 
ATOM     22  C   UNL     1       4.278   5.512  -5.801  0.00  0.00    +0.077 C 
ENDROOT
TORSDOF 0
ENDMDL
MODEL 3
REMARK VINA RESULT:      -9.5      3.238      7.455
REMARK  Name = 
REMARK  0 active torsions:
REMARK  status: ('A' for Active; 'I' for Inactive)
REMARK                            x       y       z     vdW  Elec       q    Type
REMARK                         _______ _______ _______ _____ _____    ______ ____
ROOT
ATOM      1  C   UNL     1       0.626   4.345 -14.162  0.00  0.00    +0.090 C 
ATOM      2  N   UNL     1       1.245   4.966 -13.020  0.00  0.00    -0.271 NA
ATOM      3  C   UNL     1       0.253   5.750 -12.310  0.00  0.00    +0.077 C 
ATOM      4  C   UNL     1       0.848   6.254 -11.000  0.00  0.00    +0.039 C 
ATOM      5  C   UNL     1       2.286   5.958 -10.886  0.00  0.00    -0.041 C 
ATOM      6  C   UNL     1       2.879   5.686  -9.724  0.00  0.00    -0.008 C 
ATOM      7  C   UNL     1       4.344   5.753  -9.743  0.00  0.00    -0.001 A 
ATOM      8  C   UNL     1       5.166   5.474  -8.666  0.00  0.00    -0.000 A 
ATOM      9  C   UNL     1       6.530   5.532  -8.918  0.00  0.00    -0.000 A 
ATOM     10  C   UNL     1       7.006   6.211 -10.032  0.00  0.00    -0.000 A 
ATOM     11  C   UNL     1       6.136   6.924 -10.847  0.00  0.00    -0.000 A 
ATOM     12  C   UNL     1       4.850   5.388  -7.240  0.00  0.00    -0.000 C 
ATOM     13  C   UNL     1       3.687   5.634  -6.634  0.00  0.00    -0.000 C 
ATOM     14  C   UNL     1       2.356   5.464  -7.230  0.00  0.00    -0.000 A 
ATOM     15  C   UNL     1       1.438   4.987  -6.305  0.00  0.00    -0.000 A 
ATOM     16  C   UNL     1       0.095   5.162  -6.601  0.00  0.00    -0.000 A 
ATOM     17  C   UNL     1      -0.272   5.513  -7.872  0.00  0.00    -0.000 A 
ATOM     18  C   UNL     1       0.657   5.547  -8.903  0.00  0.00    -0.000 A 
ATOM     19  C   UNL     1       4.816   6.490 -10.823  0.00  0.00    -0.000 A 
ATOM     20  C   UNL     1       1.999   5.609  -8.566  0.00  0.00    -0.001 A 
ATOM     21  C   UNL     1       3.123   6.103 -12.111  0.00  0.00    +0.039 C 
ATOM     22  C   UNL     1       2.317   5.869 -13.373  0.00  0.00    +0.077 C 
ENDROOT
TORSDOF 0
ENDMDL
MODEL 4
REMARK VINA RESULT:      -9.4      1.068      4.334
REMARK  Name = 
REMARK  0 active torsions:
REMARK  status: ('A' for Active; 'I' for Inactive)
REMARK                            x       y       z     vdW  Elec       q    Type
REMARK                         _______ _______ _______ _____ _____    ______ ____
ROOT
ATOM      1  C   UNL     1       3.913   8.537  -1.882  0.00  0.00    +0.090 C 
ATOM      2  N   UNL     1       3.474   7.669  -2.943  0.00  0.00    -0.271 NA
ATOM      3  C   UNL     1       2.594   6.656  -2.395  0.00  0.00    +0.077 C 
ATOM      4  C   UNL     1       1.975   5.851  -3.532  0.00  0.00    +0.039 C 
ATOM      5  C   UNL     1       2.548   6.201  -4.842  0.00  0.00    -0.041 C 
ATOM      6  C   UNL     1       1.839   6.182  -5.971  0.00  0.00    -0.008 C 
ATOM      7  C   UNL     1       2.632   6.222  -7.205  0.00  0.00    -0.001 A 
ATOM      8  C   UNL     1       2.109   6.248  -8.484  0.00  0.00    -0.000 A 
ATOM      9  C   UNL     1       3.035   6.354  -9.512  0.00  0.00    -0.000 A 
ATOM     10  C   UNL     1       4.369   6.041  -9.285  0.00  0.00    -0.000 A 
ATOM     11  C   UNL     1       4.772   5.523  -8.060  0.00  0.00    -0.000 A 
ATOM     12  C   UNL     1       0.764   5.917  -8.957  0.00  0.00    -0.000 C 
ATOM     13  C   UNL     1      -0.264   5.436  -8.256  0.00  0.00    -0.000 C 
ATOM     14  C   UNL     1      -0.516   5.673  -6.829  0.00  0.00    -0.000 A 
ATOM     15  C   UNL     1      -1.872   5.814  -6.565  0.00  0.00    -0.000 A 
ATOM     16  C   UNL     1      -2.280   5.638  -5.252  0.00  0.00    -0.000 A 
ATOM     17  C   UNL     1      -1.344   5.626  -4.253  0.00  0.00    -0.000 A 
ATOM     18  C   UNL     1      -0.016   5.940  -4.512  0.00  0.00    -0.000 A 
ATOM     19  C   UNL     1       3.951   5.844  -6.986  0.00  0.00    -0.000 A 
ATOM     20  C   UNL     1       0.422   5.878  -5.824  0.00  0.00    -0.001 A 
ATOM     21  C   UNL     1       4.015   6.455  -4.912  0.00  0.00    +0.039 C 
ATOM     22  C   UNL     1       4.559   6.973  -3.596  0.00  0.00    +0.077 C 
ENDROOT
TORSDOF 0
ENDMDL
MODEL 5
REMARK VINA RESULT:      -9.3      1.684      4.794
REMARK  Name = 
REMARK  0 active torsions:
REMARK  status: ('A' for Active; 'I' for Inactive)
REMARK                            x       y       z     vdW  Elec       q    Type
REMARK                         _______ _______ _______ _____ _____    ______ ____
ROOT
ATOM      1  C   UNL     1       4.307   7.412  -1.422  0.00  0.00    +0.090 C 
ATOM      2  N   UNL     1       3.332   6.677  -2.185  0.00  0.00    -0.271 NA
ATOM      3  C   UNL     1       2.496   5.915  -1.279  0.00  0.00    +0.077 C 
ATOM      4  C   UNL     1       1.345   5.286  -2.057  0.00  0.00    +0.039 C 
ATOM      5  C   UNL     1       1.481   5.479  -3.511  0.00  0.00    -0.041 C 
ATOM      6  C   UNL     1       0.434   5.634  -4.321  0.00  0.00    -0.008 C 
ATOM      7  C   UNL     1       0.723   5.472  -5.750  0.00  0.00    -0.001 A 
ATOM      8  C   UNL     1      -0.198   5.624  -6.769  0.00  0.00    -0.000 A 
ATOM      9  C   UNL     1       0.302   5.494  -8.057  0.00  0.00    -0.000 A 
ATOM     10  C   UNL     1       1.519   4.861  -8.275  0.00  0.00    -0.000 A 
ATOM     11  C   UNL     1       2.198   4.262  -7.220  0.00  0.00    -0.000 A 
ATOM     12  C   UNL     1      -1.661   5.636  -6.720  0.00  0.00    -0.000 C 
ATOM     13  C   UNL     1      -2.454   5.427  -5.669  0.00  0.00    -0.000 C 
ATOM     14  C   UNL     1      -2.122   5.723  -4.270  0.00  0.00    -0.000 A 
ATOM     15  C   UNL     1      -3.224   6.196  -3.571  0.00  0.00    -0.000 A 
ATOM     16  C   UNL     1      -3.169   6.130  -2.187  0.00  0.00    -0.000 A 
ATOM     17  C   UNL     1      -1.970   5.890  -1.573  0.00  0.00    -0.000 A 
ATOM     18  C   UNL     1      -0.785   5.864  -2.299  0.00  0.00    -0.000 A 
ATOM     19  C   UNL     1       1.910   4.780  -5.964  0.00  0.00    -0.000 A 
ATOM     20  C   UNL     1      -0.868   5.691  -3.670  0.00  0.00    -0.001 A 
ATOM     21  C   UNL     1       2.844   5.362  -4.102  0.00  0.00    +0.039 C 
ATOM     22  C   UNL     1       3.923   5.731  -3.105  0.00  0.00    +0.077 C 
ENDROOT
TORSDOF 0
ENDMDL
MODEL 6
REMARK VINA RESULT:      -9.3      1.836      4.673
REMARK  Name = 
REMARK  0 active torsions:
REMARK  status: ('A' for Active; 'I' for Inactive)
REMARK                            x       y       z     vdW  Elec       q    Type
REMARK                         _______ _______ _______ _____ _____    ______ ____
ROOT
ATOM      1  C   UNL     1       3.303   5.977 -10.702  0.00  0.00    +0.090 C 
ATOM      2  N   UNL     1       2.636   5.627  -9.476  0.00  0.00    -0.271 NA
ATOM      3  C   UNL     1       3.351   4.537  -8.840  0.00  0.00    +0.077 C 
ATOM      4  C   UNL     1       2.767   4.287  -7.454  0.00  0.00    +0.039 C 
ATOM      5  C   UNL     1       1.557   5.088  -7.203  0.00  0.00    -0.041 C 
ATOM      6  C   UNL     1       1.239   5.559  -5.998  0.00  0.00    -0.008 C 
ATOM      7  C   UNL     1      -0.143   6.032  -5.859  0.00  0.00    -0.001 A 
ATOM      8  C   UNL     1      -0.680   6.593  -4.716  0.00  0.00    -0.000 A 
ATOM      9  C   UNL     1      -1.991   7.036  -4.820  0.00  0.00    -0.000 A 
ATOM     10  C   UNL     1      -2.805   6.575  -5.847  0.00  0.00    -0.000 A 
ATOM     11  C   UNL     1      -2.350   5.592  -6.717  0.00  0.00    -0.000 A 
ATOM     12  C   UNL     1      -0.194   6.562  -3.336  0.00  0.00    -0.000 C 
ATOM     13  C   UNL     1       0.862   5.910  -2.846  0.00  0.00    -0.000 C 
ATOM     14  C   UNL     1       2.087   5.581  -3.585  0.00  0.00    -0.000 A 
ATOM     15  C   UNL     1       3.214   5.692  -2.783  0.00  0.00    -0.000 A 
ATOM     16  C   UNL     1       4.360   5.039  -3.211  0.00  0.00    -0.000 A 
ATOM     17  C   UNL     1       4.428   4.576  -4.497  0.00  0.00    -0.000 A 
ATOM     18  C   UNL     1       3.438   4.881  -5.423  0.00  0.00    -0.000 A 
ATOM     19  C   UNL     1      -0.969   5.516  -6.851  0.00  0.00    -0.000 A 
ATOM     20  C   UNL     1       2.213   5.313  -4.943  0.00  0.00    -0.001 A 
ATOM     21  C   UNL     1       0.590   5.255  -8.326  0.00  0.00    +0.039 C 
ATOM     22  C   UNL     1       1.277   5.177  -9.674  0.00  0.00    +0.077 C 
ENDROOT
TORSDOF 0
ENDMDL
MODEL 7
REMARK VINA RESULT:      -9.2      1.833      4.752
REMARK  Name = 
REMARK  0 active torsions:
REMARK  status: ('A' for Active; 'I' for Inactive)
REMARK                            x       y       z     vdW  Elec       q    Type
REMARK                         _______ _______ _______ _____ _____    ______ ____
ROOT
ATOM      1  C   UNL     1      -2.748   7.387  -4.880  0.00  0.00    +0.090 C 
ATOM      2  N   UNL     1      -1.631   6.641  -5.395  0.00  0.00    -0.271 NA
ATOM      3  C   UNL     1      -2.104   5.714  -6.405  0.00  0.00    +0.077 C 
ATOM      4  C   UNL     1      -0.911   5.056  -7.090  0.00  0.00    +0.039 C 
ATOM      5  C   UNL     1       0.367   5.406  -6.447  0.00  0.00    -0.041 C 
ATOM      6  C   UNL     1       1.506   5.537  -7.125  0.00  0.00    -0.008 C 
ATOM      7  C   UNL     1       2.722   5.548  -6.305  0.00  0.00    -0.001 A 
ATOM      8  C   UNL     1       4.007   5.710  -6.789  0.00  0.00    -0.000 A 
ATOM      9  C   UNL     1       5.010   5.759  -5.832  0.00  0.00    -0.000 A 
ATOM     10  C   UNL     1       4.779   5.272  -4.552  0.00  0.00    -0.000 A 
ATOM     11  C   UNL     1       3.580   4.640  -4.245  0.00  0.00    -0.000 A 
ATOM     12  C   UNL     1       4.521   5.574  -8.153  0.00  0.00    -0.000 C 
ATOM     13  C   UNL     1       3.867   5.184  -9.248  0.00  0.00    -0.000 C 
ATOM     14  C   UNL     1       2.433   5.370  -9.504  0.00  0.00    -0.000 A 
ATOM     15  C   UNL     1       2.184   5.662 -10.838  0.00  0.00    -0.000 A 
ATOM     16  C   UNL     1       0.891   5.463 -11.296  0.00  0.00    -0.000 A 
ATOM     17  C   UNL     1      -0.121   5.281 -10.393  0.00  0.00    -0.000 A 
ATOM     18  C   UNL     1       0.096   5.444  -9.031  0.00  0.00    -0.000 A 
ATOM     19  C   UNL     1       2.503   5.000  -5.046  0.00  0.00    -0.000 A 
ATOM     20  C   UNL     1       1.402   5.401  -8.572  0.00  0.00    -0.001 A 
ATOM     21  C   UNL     1       0.397   5.481  -4.958  0.00  0.00    +0.039 C 
ATOM     22  C   UNL     1      -0.957   5.853  -4.387  0.00  0.00    +0.077 C 
ENDROOT
TORSDOF 0
ENDMDL
MODEL 8
REMARK VINA RESULT:      -9.1      3.385      5.999
REMARK  Name = 
REMARK  0 active torsions:
REMARK  status: ('A' for Active; 'I' for Inactive)
REMARK                            x       y       z     vdW  Elec       q    Type
REMARK                         _______ _______ _______ _____ _____    ______ ____
ROOT
ATOM      1  C   UNL     1       2.062   3.866  -6.369  0.00  0.00    +0.090 C 
ATOM      2  N   UNL     1       2.470   4.616  -7.528  0.00  0.00    -0.271 NA
ATOM      3  C   UNL     1       3.590   5.465  -7.174  0.00  0.00    +0.077 C 
ATOM      4  C   UNL     1       4.150   6.118  -8.432  0.00  0.00    +0.039 C 
ATOM      5  C   UNL     1       3.321   5.849  -9.619  0.00  0.00    -0.041 C 
ATOM      6  C   UNL     1       3.832   5.714 -10.843  0.00  0.00    -0.008 C 
ATOM      7  C   UNL     1       2.857   5.790 -11.937  0.00  0.00    -0.001 A 
ATOM      8  C   UNL     1       3.155   5.641 -13.278  0.00  0.00    -0.000 A 
ATOM      9  C   UNL     1       2.071   5.681 -14.144  0.00  0.00    -0.000 A 
ATOM     10  C   UNL     1       0.866   6.236 -13.731  0.00  0.00    -0.000 A 
ATOM     11  C   UNL     1       0.763   6.846 -12.487  0.00  0.00    -0.000 A 
ATOM     12  C   UNL     1       4.443   5.712 -13.969  0.00  0.00    -0.000 C 
ATOM     13  C   UNL     1       5.638   6.014 -13.460  0.00  0.00    -0.000 C 
ATOM     14  C   UNL     1       6.071   5.768 -12.079  0.00  0.00    -0.000 A 
ATOM     15  C   UNL     1       7.405   5.390 -12.019  0.00  0.00    -0.000 A 
ATOM     16  C   UNL     1       8.043   5.520 -10.796  0.00  0.00    -0.000 A 
ATOM     17  C   UNL     1       7.297   5.723  -9.667  0.00  0.00    -0.000 A 
ATOM     18  C   UNL     1       5.910   5.649  -9.701  0.00  0.00    -0.000 A 
ATOM     19  C   UNL     1       1.676   6.405 -11.537  0.00  0.00    -0.000 A 
ATOM     20  C   UNL     1       5.285   5.760 -10.932  0.00  0.00    -0.001 A 
ATOM     21  C   UNL     1       1.840   5.863  -9.450  0.00  0.00    +0.039 C 
ATOM     22  C   UNL     1       1.432   5.482  -8.041  0.00  0.00    +0.077 C 
ENDROOT
TORSDOF 0
ENDMDL
MODEL 9
REMARK VINA RESULT:      -9.1      4.334      7.697
REMARK  Name = 
REMARK  0 active torsions:
REMARK  status: ('A' for Active; 'I' for Inactive)
REMARK                            x       y       z     vdW  Elec       q    Type
REMARK                         _______ _______ _______ _____ _____    ______ ____
ROOT
ATOM      1  C   UNL     1       0.623   7.658 -14.039  0.00  0.00    +0.090 C 
ATOM      2  N   UNL     1       1.577   6.874 -13.299  0.00  0.00    -0.271 NA
ATOM      3  C   UNL     1       2.355   6.074 -14.224  0.00  0.00    +0.077 C 
ATOM      4  C   UNL     1       3.490   5.388 -13.472  0.00  0.00    +0.039 C 
ATOM      5  C   UNL     1       3.396   5.584 -12.016  0.00  0.00    -0.041 C 
ATOM      6  C   UNL     1       4.467   5.685 -11.229  0.00  0.00    -0.008 C 
ATOM      7  C   UNL     1       4.201   5.535  -9.794  0.00  0.00    -0.001 A 
ATOM      8  C   UNL     1       5.151   5.640  -8.795  0.00  0.00    -0.000 A 
ATOM      9  C   UNL     1       4.675   5.532  -7.496  0.00  0.00    -0.000 A 
ATOM     10  C   UNL     1       3.433   4.958  -7.253  0.00  0.00    -0.000 A 
ATOM     11  C   UNL     1       2.702   4.395  -8.293  0.00  0.00    -0.000 A 
ATOM     12  C   UNL     1       6.611   5.580  -8.876  0.00  0.00    -0.000 C 
ATOM     13  C   UNL     1       7.371   5.335  -9.945  0.00  0.00    -0.000 C 
ATOM     14  C   UNL     1       7.022   5.649 -11.336  0.00  0.00    -0.000 A 
ATOM     15  C   UNL     1       8.130   6.070 -12.059  0.00  0.00    -0.000 A 
ATOM     16  C   UNL     1       8.042   6.010 -13.441  0.00  0.00    -0.000 A 
ATOM     17  C   UNL     1       6.819   5.830 -14.029  0.00  0.00    -0.000 A 
ATOM     18  C   UNL     1       5.651   5.860 -13.277  0.00  0.00    -0.000 A 
ATOM     19  C   UNL     1       2.988   4.901  -9.555  0.00  0.00    -0.000 A 
ATOM     20  C   UNL     1       5.756   5.680 -11.908  0.00  0.00    -0.001 A 
ATOM     21  C   UNL     1       2.042   5.532 -11.394  0.00  0.00    +0.039 C 
ATOM     22  C   UNL     1       0.960   5.956 -12.367  0.00  0.00    +0.077 C 
ENDROOT
TORSDOF 0
ENDMDL
