MODEL 1
REMARK VINA RESULT:      -5.9      0.000      0.000
REMARK  Name = 
REMARK  9 active torsions:
REMARK  status: ('A' for Active; 'I' for Inactive)
REMARK    1  A    between atoms: C_2  and  C_3
REMARK    2  A    between atoms: C_2  and  C_18
REMARK    3  A    between atoms: C_3  and  C_4
REMARK    4  A    between atoms: C_4  and  C_5
REMARK    5  A    between atoms: N_7  and  C_8
REMARK    6  A    between atoms: C_8  and  C_9
REMARK    7  A    between atoms: C_8  and  C_11
REMARK    8  A    between atoms: N_13  and  CA_14
REMARK    9  A    between atoms: CA_14  and  C_15
REMARK                            x       y       z     vdW  Elec       q    Type
REMARK                         _______ _______ _______ _____ _____    ______ ____
ROOT
ATOM      1  C   UNK A   1       4.379   5.084  -8.563  0.00  0.00    +0.242 C 
ATOM      2  N   UNK A   1       3.442   5.830  -7.832  0.00  0.00    -0.197 NA
ATOM      3  O   UNK A   1       3.813   4.010  -8.834  0.00  0.00    -0.273 OA
ENDROOT
BRANCH   1   4
ATOM      4  C   UNK A   1       5.781   5.424  -8.875  0.00  0.00    +0.089 C 
BRANCH   4   5
ATOM      5  C   UNK A   1       5.821   5.794 -10.340  0.00  0.00    +0.040 C 
BRANCH   5   7
ATOM      6  N   UNK A   1       7.030   7.654 -11.069  0.00  0.00    -0.121 NA
ATOM      7  C   UNK A   1       7.392   6.173 -10.662  0.00  0.00    +0.195 C 
BRANCH   7   8
ATOM      8  C   UNK A   1       7.348   5.667 -12.191  0.00  0.00    +0.382 C 
ATOM      9  O   UNK A   1       7.157   6.656 -13.129  0.00  0.00    -0.244 OA
ATOM     10  O   UNK A   1       7.729   4.560 -12.491  0.00  0.00    -0.244 OA
ENDBRANCH   7   8
ENDBRANCH   5   7
ENDBRANCH   4   5
ENDBRANCH   1   4
BRANCH   2  11
ATOM     11  C   UNK A   1       3.284   5.431  -6.316  0.00  0.00    +0.184 C 
BRANCH  11  12
ATOM     12  C   UNK A   1       1.673   5.243  -6.303  0.00  0.00    +0.263 C 
ATOM     13  N   GLY A   2       0.978   5.995  -5.282  0.00  0.00    -0.192 NA
ATOM     14  O   UNK A   1       1.550   3.997  -6.027  0.00  0.00    -0.271 OA
BRANCH  13  15
ATOM     15  CA  GLY A   2       0.346   5.343  -4.205  0.00  0.00    +0.228 C 
BRANCH  15  16
ATOM     16  C   GLY A   2       0.754   5.458  -2.851  0.00  0.00    +0.387 C 
ATOM     17  OXT GLY A   2       2.141   5.356  -2.637  0.00  0.00    -0.244 OA
ATOM     18  O   GLY A   2       0.107   4.699  -2.055  0.00  0.00    -0.244 OA
ENDBRANCH  15  16
ENDBRANCH  13  15
ENDBRANCH  11  12
BRANCH  11  19
ATOM     19  C   UNK A   1       3.222   7.018  -5.878  0.00  0.00    +0.100 C 
ATOM     20  S   UNK A   1       4.548   7.179  -4.632  0.00  0.00    -0.080 S 
ENDBRANCH  11  19
ENDBRANCH   2  11
TORSDOF 9
ENDMDL
MODEL 2
REMARK VINA RESULT:      -5.8      4.537      7.263
REMARK  Name = 
REMARK  9 active torsions:
REMARK  status: ('A' for Active; 'I' for Inactive)
REMARK    1  A    between atoms: C_2  and  C_3
REMARK    2  A    between atoms: C_2  and  C_18
REMARK    3  A    between atoms: C_3  and  C_4
REMARK    4  A    between atoms: C_4  and  C_5
REMARK    5  A    between atoms: N_7  and  C_8
REMARK    6  A    between atoms: C_8  and  C_9
REMARK    7  A    between atoms: C_8  and  C_11
REMARK    8  A    between atoms: N_13  and  CA_14
REMARK    9  A    between atoms: CA_14  and  C_15
REMARK                            x       y       z     vdW  Elec       q    Type
REMARK                         _______ _______ _______ _____ _____    ______ ____
ROOT
ATOM      1  C   UNK A   1       1.054   4.622  -5.912  0.00  0.00    +0.242 C 
ATOM      2  N   UNK A   1       2.159   5.144  -5.223  0.00  0.00    -0.197 NA
ATOM      3  O   UNK A   1       1.328   3.427  -6.125  0.00  0.00    -0.273 OA
ENDROOT
BRANCH   1   4
ATOM      4  C   UNK A   1      -0.149   5.330  -6.390  0.00  0.00    +0.089 C 
BRANCH   4   5
ATOM      5  C   UNK A   1      -0.603   6.223  -5.258  0.00  0.00    +0.040 C 
BRANCH   5   7
ATOM      6  N   UNK A   1      -2.592   7.176  -4.490  0.00  0.00    -0.121 NA
ATOM      7  C   UNK A   1      -2.124   5.718  -4.875  0.00  0.00    +0.195 C 
BRANCH   7   8
ATOM      8  C   UNK A   1      -1.771   5.352  -3.347  0.00  0.00    +0.382 C 
ATOM      9  O   UNK A   1      -2.770   4.708  -2.654  0.00  0.00    -0.244 OA
ATOM     10  O   UNK A   1      -0.632   5.393  -2.944  0.00  0.00    -0.244 OA
ENDBRANCH   7   8
ENDBRANCH   5   7
ENDBRANCH   4   5
ENDBRANCH   1   4
BRANCH   2  11
ATOM     11  C   UNK A   1       3.412   5.501  -6.111  0.00  0.00    +0.184 C 
BRANCH  11  12
ATOM     12  C   UNK A   1       4.502   5.626  -4.916  0.00  0.00    +0.263 C 
ATOM     13  N   GLY A   2       4.153   4.930  -3.697  0.00  0.00    -0.192 NA
ATOM     14  O   UNK A   1       4.487   6.884  -4.669  0.00  0.00    -0.271 OA
BRANCH  13  15
ATOM     15  CA  GLY A   2       3.841   5.640  -2.521  0.00  0.00    +0.228 C 
BRANCH  15  16
ATOM     16  C   GLY A   2       3.527   5.030  -1.279  0.00  0.00    +0.387 C 
ATOM     17  OXT GLY A   2       2.924   5.881  -0.334  0.00  0.00    -0.244 OA
ATOM     18  O   GLY A   2       4.502   4.387  -0.764  0.00  0.00    -0.244 OA
ENDBRANCH  15  16
ENDBRANCH  13  15
ENDBRANCH  11  12
BRANCH  11  19
ATOM     19  C   UNK A   1       3.013   7.099  -6.077  0.00  0.00    +0.100 C 
ATOM     20  S   UNK A   1       2.537   7.466  -7.802  0.00  0.00    -0.080 S 
ENDBRANCH  11  19
ENDBRANCH   2  11
TORSDOF 9
ENDMDL
MODEL 3
REMARK VINA RESULT:      -5.8      3.030      4.209
REMARK  Name = 
REMARK  9 active torsions:
REMARK  status: ('A' for Active; 'I' for Inactive)
REMARK    1  A    between atoms: C_2  and  C_3
REMARK    2  A    between atoms: C_2  and  C_18
REMARK    3  A    between atoms: C_3  and  C_4
REMARK    4  A    between atoms: C_4  and  C_5
REMARK    5  A    between atoms: N_7  and  C_8
REMARK    6  A    between atoms: C_8  and  C_9
REMARK    7  A    between atoms: C_8  and  C_11
REMARK    8  A    between atoms: N_13  and  CA_14
REMARK    9  A    between atoms: CA_14  and  C_15
REMARK                            x       y       z     vdW  Elec       q    Type
REMARK                         _______ _______ _______ _____ _____    ______ ____
ROOT
ATOM      1  C   UNK A   1       4.520   5.921  -9.465  0.00  0.00    +0.242 C 
ATOM      2  N   UNK A   1       3.659   6.694  -8.673  0.00  0.00    -0.197 NA
ATOM      3  O   UNK A   1       3.795   5.388 -10.325  0.00  0.00    -0.273 OA
ENDROOT
BRANCH   1   4
ATOM      4  C   UNK A   1       5.966   5.684  -9.288  0.00  0.00    +0.089 C 
BRANCH   4   5
ATOM      5  C   UNK A   1       6.533   5.424 -10.665  0.00  0.00    +0.040 C 
BRANCH   5   7
ATOM      6  N   UNK A   1       6.985   7.340 -11.922  0.00  0.00    -0.121 NA
ATOM      7  C   UNK A   1       7.773   6.495 -10.846  0.00  0.00    +0.195 C 
BRANCH   7   8
ATOM      8  C   UNK A   1       8.537   5.638 -11.975  0.00  0.00    +0.382 C 
ATOM      9  O   UNK A   1       7.793   4.632 -12.549  0.00  0.00    -0.244 OA
ATOM     10  O   UNK A   1       9.572   6.029 -12.460  0.00  0.00    -0.244 OA
ENDBRANCH   7   8
ENDBRANCH   5   7
ENDBRANCH   4   5
ENDBRANCH   1   4
BRANCH   2  11
ATOM     11  C   UNK A   1       2.822   5.900  -7.598  0.00  0.00    +0.184 C 
BRANCH  11  12
ATOM     12  C   UNK A   1       1.382   6.588  -7.887  0.00  0.00    +0.263 C 
ATOM     13  N   GLY A   2       0.563   5.903  -8.861  0.00  0.00    -0.192 NA
ATOM     14  O   UNK A   1       1.719   7.721  -8.383  0.00  0.00    -0.271 OA
BRANCH  13  15
ATOM     15  CA  GLY A   2       0.290   6.483 -10.116  0.00  0.00    +0.228 C 
BRANCH  15  16
ATOM     16  C   GLY A   2       0.186   5.754 -11.328  0.00  0.00    +0.387 C 
ATOM     17  OXT GLY A   2       0.090   4.358 -11.176  0.00  0.00    -0.244 OA
ATOM     18  O   GLY A   2       1.075   6.064 -12.190  0.00  0.00    -0.244 OA
ENDBRANCH  15  16
ENDBRANCH  13  15
ENDBRANCH  11  12
BRANCH  11  19
ATOM     19  C   UNK A   1       3.242   6.986  -6.432  0.00  0.00    +0.100 C 
ATOM     20  S   UNK A   1       4.337   6.033  -5.323  0.00  0.00    -0.080 S 
ENDBRANCH  11  19
ENDBRANCH   2  11
TORSDOF 9
ENDMDL
MODEL 4
REMARK VINA RESULT:      -5.8      2.890      8.367
REMARK  Name = 
REMARK  9 active torsions:
REMARK  status: ('A' for Active; 'I' for Inactive)
REMARK    1  A    between atoms: C_2  and  C_3
REMARK    2  A    between atoms: C_2  and  C_18
REMARK    3  A    between atoms: C_3  and  C_4
REMARK    4  A    between atoms: C_4  and  C_5
REMARK    5  A    between atoms: N_7  and  C_8
REMARK    6  A    between atoms: C_8  and  C_9
REMARK    7  A    between atoms: C_8  and  C_11
REMARK    8  A    between atoms: N_13  and  CA_14
REMARK    9  A    between atoms: CA_14  and  C_15
REMARK                            x       y       z     vdW  Elec       q    Type
REMARK                         _______ _______ _______ _____ _____    ______ ____
ROOT
ATOM      1  C   UNK A   1      -0.868   5.350  -6.823  0.00  0.00    +0.242 C 
ATOM      2  N   UNK A   1       0.164   4.758  -6.080  0.00  0.00    -0.197 NA
ATOM      3  O   UNK A   1      -0.439   5.428  -7.988  0.00  0.00    -0.273 OA
ENDROOT
BRANCH   1   4
ATOM      4  C   UNK A   1      -2.161   5.875  -6.343  0.00  0.00    +0.089 C 
BRANCH   4   5
ATOM      5  C   UNK A   1      -2.277   5.476  -4.890  0.00  0.00    +0.040 C 
BRANCH   5   7
ATOM      6  N   UNK A   1      -1.471   7.407  -3.853  0.00  0.00    -0.121 NA
ATOM      7  C   UNK A   1      -2.900   6.790  -4.115  0.00  0.00    +0.195 C 
BRANCH   7   8
ATOM      8  C   UNK A   1      -2.942   6.091  -2.664  0.00  0.00    +0.382 C 
ATOM      9  O   UNK A   1      -2.811   4.721  -2.670  0.00  0.00    -0.244 OA
ATOM     10  O   UNK A   1      -2.819   6.745  -1.654  0.00  0.00    -0.244 OA
ENDBRANCH   7   8
ENDBRANCH   5   7
ENDBRANCH   4   5
ENDBRANCH   1   4
BRANCH   2  11
ATOM     11  C   UNK A   1       1.348   5.715  -5.671  0.00  0.00    +0.184 C 
BRANCH  11  12
ATOM     12  C   UNK A   1       2.575   4.745  -6.099  0.00  0.00    +0.263 C 
ATOM     13  N   GLY A   2       3.287   5.151  -7.291  0.00  0.00    -0.192 NA
ATOM     14  O   UNK A   1       1.970   3.644  -6.358  0.00  0.00    -0.271 OA
BRANCH  13  15
ATOM     15  CA  GLY A   2       3.213   4.390  -8.474  0.00  0.00    +0.228 C 
BRANCH  15  16
ATOM     16  C   GLY A   2       3.700   4.824  -9.734  0.00  0.00    +0.387 C 
ATOM     17  OXT GLY A   2       5.047   5.231  -9.744  0.00  0.00    -0.244 OA
ATOM     18  O   GLY A   2       2.953   5.691 -10.300  0.00  0.00    -0.244 OA
ENDBRANCH  15  16
ENDBRANCH  13  15
ENDBRANCH  11  12
BRANCH  11  19
ATOM     19  C   UNK A   1       1.293   5.162  -4.121  0.00  0.00    +0.100 C 
ATOM     20  S   UNK A   1       2.790   5.872  -3.351  0.00  0.00    -0.080 S 
ENDBRANCH  11  19
ENDBRANCH   2  11
TORSDOF 9
ENDMDL
MODEL 5
REMARK VINA RESULT:      -5.8      1.897      2.270
REMARK  Name = 
REMARK  9 active torsions:
REMARK  status: ('A' for Active; 'I' for Inactive)
REMARK    1  A    between atoms: C_2  and  C_3
REMARK    2  A    between atoms: C_2  and  C_18
REMARK    3  A    between atoms: C_3  and  C_4
REMARK    4  A    between atoms: C_4  and  C_5
REMARK    5  A    between atoms: N_7  and  C_8
REMARK    6  A    between atoms: C_8  and  C_9
REMARK    7  A    between atoms: C_8  and  C_11
REMARK    8  A    between atoms: N_13  and  CA_14
REMARK    9  A    between atoms: CA_14  and  C_15
REMARK                            x       y       z     vdW  Elec       q    Type
REMARK                         _______ _______ _______ _____ _____    ______ ____
ROOT
ATOM      1  C   UNK A   1       4.133   4.934  -8.399  0.00  0.00    +0.242 C 
ATOM      2  N   UNK A   1       3.327   5.533  -7.419  0.00  0.00    -0.197 NA
ATOM      3  O   UNK A   1       3.441   4.025  -8.891  0.00  0.00    -0.273 OA
ENDROOT
BRANCH   1   4
ATOM      4  C   UNK A   1       5.541   5.225  -8.734  0.00  0.00    +0.089 C 
BRANCH   4   5
ATOM      5  C   UNK A   1       5.522   6.051  -9.999  0.00  0.00    +0.040 C 
BRANCH   5   7
ATOM      6  N   UNK A   1       6.927   7.516 -11.154  0.00  0.00    -0.121 NA
ATOM      7  C   UNK A   1       7.077   6.068 -10.544  0.00  0.00    +0.195 C 
BRANCH   7   8
ATOM      8  C   UNK A   1       6.741   5.362 -11.952  0.00  0.00    +0.382 C 
ATOM      9  O   UNK A   1       7.752   4.588 -12.475  0.00  0.00    -0.244 OA
ATOM     10  O   UNK A   1       5.605   5.300 -12.362  0.00  0.00    -0.244 OA
ENDBRANCH   7   8
ENDBRANCH   5   7
ENDBRANCH   4   5
ENDBRANCH   1   4
BRANCH   2  11
ATOM     11  C   UNK A   1       3.223   4.756  -6.051  0.00  0.00    +0.184 C 
BRANCH  11  12
ATOM     12  C   UNK A   1       1.979   5.585  -5.420  0.00  0.00    +0.263 C 
ATOM     13  N   GLY A   2       0.738   4.848  -5.332  0.00  0.00    -0.192 NA
ATOM     14  O   UNK A   1       1.819   6.524  -6.278  0.00  0.00    -0.271 OA
BRANCH  13  15
ATOM     15  CA  GLY A   2      -0.368   5.193  -6.134  0.00  0.00    +0.228 C 
BRANCH  15  16
ATOM     16  C   GLY A   2      -1.561   5.781  -5.641  0.00  0.00    +0.387 C 
ATOM     17  OXT GLY A   2      -2.690   5.617  -6.464  0.00  0.00    -0.244 OA
ATOM     18  O   GLY A   2      -1.422   6.999  -5.286  0.00  0.00    -0.244 OA
ENDBRANCH  15  16
ENDBRANCH  13  15
ENDBRANCH  11  12
BRANCH  11  19
ATOM     19  C   UNK A   1       4.369   5.731  -5.381  0.00  0.00    +0.100 C 
ATOM     20  S   UNK A   1       4.474   5.154  -3.650  0.00  0.00    -0.080 S 
ENDBRANCH  11  19
ENDBRANCH   2  11
TORSDOF 9
ENDMDL
MODEL 6
REMARK VINA RESULT:      -5.8      2.784      8.507
REMARK  Name = 
REMARK  9 active torsions:
REMARK  status: ('A' for Active; 'I' for Inactive)
REMARK    1  A    between atoms: C_2  and  C_3
REMARK    2  A    between atoms: C_2  and  C_18
REMARK    3  A    between atoms: C_3  and  C_4
REMARK    4  A    between atoms: C_4  and  C_5
REMARK    5  A    between atoms: N_7  and  C_8
REMARK    6  A    between atoms: C_8  and  C_9
REMARK    7  A    between atoms: C_8  and  C_11
REMARK    8  A    between atoms: N_13  and  CA_14
REMARK    9  A    between atoms: CA_14  and  C_15
REMARK                            x       y       z     vdW  Elec       q    Type
REMARK                         _______ _______ _______ _____ _____    ______ ____
ROOT
ATOM      1  C   UNK A   1       2.018   7.164  -7.523  0.00  0.00    +0.242 C 
ATOM      2  N   UNK A   1       2.484   6.356  -8.571  0.00  0.00    -0.197 NA
ATOM      3  O   UNK A   1       2.183   8.336  -7.907  0.00  0.00    -0.273 OA
ENDROOT
BRANCH   1   4
ATOM      4  C   UNK A   1       1.527   6.752  -6.194  0.00  0.00    +0.089 C 
BRANCH   4   5
ATOM      5  C   UNK A   1       0.100   6.291  -6.384  0.00  0.00    +0.040 C 
BRANCH   5   7
ATOM      6  N   UNK A   1      -0.054   5.554  -4.173  0.00  0.00    -0.121 NA
ATOM      7  C   UNK A   1      -0.697   6.729  -5.010  0.00  0.00    +0.195 C 
BRANCH   7   8
ATOM      8  C   UNK A   1      -2.020   5.869  -5.334  0.00  0.00    +0.382 C 
ATOM      9  O   UNK A   1      -2.119   5.413  -6.629  0.00  0.00    -0.244 OA
ATOM     10  O   UNK A   1      -2.714   5.435  -4.445  0.00  0.00    -0.244 OA
ENDBRANCH   7   8
ENDBRANCH   5   7
ENDBRANCH   4   5
ENDBRANCH   1   4
BRANCH   2  11
ATOM     11  C   UNK A   1       4.049   6.195  -8.667  0.00  0.00    +0.184 C 
BRANCH  11  12
ATOM     12  C   UNK A   1       4.179   6.263 -10.283  0.00  0.00    +0.263 C 
ATOM     13  N   GLY A   2       5.102   5.312 -10.861  0.00  0.00    -0.192 NA
ATOM     14  O   UNK A   1       4.659   7.438 -10.465  0.00  0.00    -0.271 OA
BRANCH  13  15
ATOM     15  CA  GLY A   2       6.303   5.740 -11.460  0.00  0.00    +0.228 C 
BRANCH  15  16
ATOM     16  C   GLY A   2       6.699   5.407 -12.781  0.00  0.00    +0.387 C 
ATOM     17  OXT GLY A   2       5.679   4.874 -13.592  0.00  0.00    -0.244 OA
ATOM     18  O   GLY A   2       7.753   4.689 -12.835  0.00  0.00    -0.244 OA
ENDBRANCH  15  16
ENDBRANCH  13  15
ENDBRANCH  11  12
BRANCH  11  19
ATOM     19  C   UNK A   1       3.909   4.554  -8.627  0.00  0.00    +0.100 C 
ATOM     20  S   UNK A   1       2.176   4.253  -9.124  0.00  0.00    -0.080 S 
ENDBRANCH  11  19
ENDBRANCH   2  11
TORSDOF 9
ENDMDL
MODEL 7
REMARK VINA RESULT:      -5.8      3.579      4.669
REMARK  Name = 
REMARK  9 active torsions:
REMARK  status: ('A' for Active; 'I' for Inactive)
REMARK    1  A    between atoms: C_2  and  C_3
REMARK    2  A    between atoms: C_2  and  C_18
REMARK    3  A    between atoms: C_3  and  C_4
REMARK    4  A    between atoms: C_4  and  C_5
REMARK    5  A    between atoms: N_7  and  C_8
REMARK    6  A    between atoms: C_8  and  C_9
REMARK    7  A    between atoms: C_8  and  C_11
REMARK    8  A    between atoms: N_13  and  CA_14
REMARK    9  A    between atoms: CA_14  and  C_15
REMARK                            x       y       z     vdW  Elec       q    Type
REMARK                         _______ _______ _______ _____ _____    ______ ____
ROOT
ATOM      1  C   UNK A   1      -0.490   5.549  -6.910  0.00  0.00    +0.242 C 
ATOM      2  N   UNK A   1       0.506   6.000  -6.030  0.00  0.00    -0.197 NA
ATOM      3  O   UNK A   1      -1.501   5.373  -6.208  0.00  0.00    -0.273 OA
ENDROOT
BRANCH   1   4
ATOM      4  C   UNK A   1      -0.373   5.239  -8.348  0.00  0.00    +0.089 C 
BRANCH   4   5
ATOM      5  C   UNK A   1       1.094   5.350  -8.697  0.00  0.00    +0.040 C 
BRANCH   5   7
ATOM      6  N   UNK A   1       2.248   6.119 -10.575  0.00  0.00    -0.121 NA
ATOM      7  C   UNK A   1       1.247   6.760  -9.536  0.00  0.00    +0.195 C 
BRANCH   7   8
ATOM      8  C   UNK A   1       2.446   7.335  -8.628  0.00  0.00    +0.382 C 
ATOM      9  O   UNK A   1       3.696   6.842  -8.929  0.00  0.00    -0.244 OA
ATOM     10  O   UNK A   1       2.290   8.315  -7.938  0.00  0.00    -0.244 OA
ENDBRANCH   7   8
ENDBRANCH   5   7
ENDBRANCH   4   5
ENDBRANCH   1   4
BRANCH   2  11
ATOM     11  C   UNK A   1       1.201   4.888  -5.157  0.00  0.00    +0.184 C 
BRANCH  11  12
ATOM     12  C   UNK A   1       1.093   5.635  -3.721  0.00  0.00    +0.263 C 
ATOM     13  N   GLY A   2      -0.042   5.244  -2.914  0.00  0.00    -0.192 NA
ATOM     14  O   UNK A   1       0.927   6.858  -4.066  0.00  0.00    -0.271 OA
BRANCH  13  15
ATOM     15  CA  GLY A   2      -1.094   6.145  -2.658  0.00  0.00    +0.228 C 
BRANCH  15  16
ATOM     16  C   GLY A   2      -2.467   5.847  -2.857  0.00  0.00    +0.387 C 
ATOM     17  OXT GLY A   2      -3.365   6.715  -2.208  0.00  0.00    -0.244 OA
ATOM     18  O   GLY A   2      -2.763   4.626  -2.632  0.00  0.00    -0.244 OA
ENDBRANCH  15  16
ENDBRANCH  13  15
ENDBRANCH  11  12
BRANCH  11  19
ATOM     19  C   UNK A   1       2.687   5.509  -5.503  0.00  0.00    +0.100 C 
ATOM     20  S   UNK A   1       3.773   4.776  -4.229  0.00  0.00    -0.080 S 
ENDBRANCH  11  19
ENDBRANCH   2  11
TORSDOF 9
ENDMDL
MODEL 8
REMARK VINA RESULT:      -5.7      2.316      2.602
REMARK  Name = 
REMARK  9 active torsions:
REMARK  status: ('A' for Active; 'I' for Inactive)
REMARK    1  A    between atoms: C_2  and  C_3
REMARK    2  A    between atoms: C_2  and  C_18
REMARK    3  A    between atoms: C_3  and  C_4
REMARK    4  A    between atoms: C_4  and  C_5
REMARK    5  A    between atoms: N_7  and  C_8
REMARK    6  A    between atoms: C_8  and  C_9
REMARK    7  A    between atoms: C_8  and  C_11
REMARK    8  A    between atoms: N_13  and  CA_14
REMARK    9  A    between atoms: CA_14  and  C_15
REMARK                            x       y       z     vdW  Elec       q    Type
REMARK                         _______ _______ _______ _____ _____    ______ ____
ROOT
ATOM      1  C   UNK A   1       4.886   5.232  -9.274  0.00  0.00    +0.242 C 
ATOM      2  N   UNK A   1       3.645   4.686  -8.914  0.00  0.00    -0.197 NA
ATOM      3  O   UNK A   1       5.627   5.052  -8.291  0.00  0.00    -0.273 OA
ENDROOT
BRANCH   1   4
ATOM      4  C   UNK A   1       5.247   5.961 -10.505  0.00  0.00    +0.089 C 
BRANCH   4   5
ATOM      5  C   UNK A   1       6.756   6.038 -10.536  0.00  0.00    +0.040 C 
BRANCH   5   7
ATOM      6  N   UNK A   1       5.911   6.137 -12.710  0.00  0.00    -0.121 NA
ATOM      7  C   UNK A   1       7.136   6.785 -11.955  0.00  0.00    +0.195 C 
BRANCH   7   8
ATOM      8  C   UNK A   1       8.145   5.634 -12.455  0.00  0.00    +0.382 C 
ATOM      9  O   UNK A   1       9.461   5.811 -12.091  0.00  0.00    -0.244 OA
ATOM     10  O   UNK A   1       7.729   4.578 -12.869  0.00  0.00    -0.244 OA
ENDBRANCH   7   8
ENDBRANCH   5   7
ENDBRANCH   4   5
ENDBRANCH   1   4
BRANCH   2  11
ATOM     11  C   UNK A   1       2.753   5.580  -7.971  0.00  0.00    +0.184 C 
BRANCH  11  12
ATOM     12  C   UNK A   1       2.536   4.498  -6.782  0.00  0.00    +0.263 C 
ATOM     13  N   GLY A   2       1.184   4.411  -6.277  0.00  0.00    -0.192 NA
ATOM     14  O   UNK A   1       3.275   4.972  -5.848  0.00  0.00    -0.271 OA
BRANCH  13  15
ATOM     15  CA  GLY A   2       0.868   4.840  -4.972  0.00  0.00    +0.228 C 
BRANCH  15  16
ATOM     16  C   GLY A   2      -0.019   5.907  -4.676  0.00  0.00    +0.387 C 
ATOM     17  OXT GLY A   2      -1.386   5.592  -4.787  0.00  0.00    -0.244 OA
ATOM     18  O   GLY A   2       0.257   6.989  -5.294  0.00  0.00    -0.244 OA
ENDBRANCH  15  16
ENDBRANCH  13  15
ENDBRANCH  11  12
BRANCH  11  19
ATOM     19  C   UNK A   1       1.395   5.133  -8.789  0.00  0.00    +0.100 C 
ATOM     20  S   UNK A   1       1.220   6.418 -10.077  0.00  0.00    -0.080 S 
ENDBRANCH  11  19
ENDBRANCH   2  11
TORSDOF 9
ENDMDL
MODEL 9
REMARK VINA RESULT:      -5.7      2.666      2.994
REMARK  Name = 
REMARK  9 active torsions:
REMARK  status: ('A' for Active; 'I' for Inactive)
REMARK    1  A    between atoms: C_2  and  C_3
REMARK    2  A    between atoms: C_2  and  C_18
REMARK    3  A    between atoms: C_3  and  C_4
REMARK    4  A    between atoms: C_4  and  C_5
REMARK    5  A    between atoms: N_7  and  C_8
REMARK    6  A    between atoms: C_8  and  C_9
REMARK    7  A    between atoms: C_8  and  C_11
REMARK    8  A    between atoms: N_13  and  CA_14
REMARK    9  A    between atoms: CA_14  and  C_15
REMARK                            x       y       z     vdW  Elec       q    Type
REMARK                         _______ _______ _______ _____ _____    ______ ____
ROOT
ATOM      1  C   UNK A   1       4.689   5.213  -9.393  0.00  0.00    +0.242 C 
ATOM      2  N   UNK A   1       3.459   4.637  -9.044  0.00  0.00    -0.197 NA
ATOM      3  O   UNK A   1       5.226   5.533  -8.317  0.00  0.00    -0.273 OA
ENDROOT
BRANCH   1   4
ATOM      4  C   UNK A   1       5.224   5.491 -10.740  0.00  0.00    +0.089 C 
BRANCH   4   5
ATOM      5  C   UNK A   1       6.667   5.902 -10.556  0.00  0.00    +0.040 C 
BRANCH   5   7
ATOM      6  N   UNK A   1       5.850   6.187 -12.725  0.00  0.00    -0.121 NA
ATOM      7  C   UNK A   1       7.054   6.781 -11.896  0.00  0.00    +0.195 C 
BRANCH   7   8
ATOM      8  C   UNK A   1       8.087   5.693 -12.484  0.00  0.00    +0.382 C 
ATOM      9  O   UNK A   1       9.379   5.803 -12.021  0.00  0.00    -0.244 OA
ATOM     10  O   UNK A   1       7.692   4.707 -13.060  0.00  0.00    -0.244 OA
ENDBRANCH   7   8
ENDBRANCH   5   7
ENDBRANCH   4   5
ENDBRANCH   1   4
BRANCH   2  11
ATOM     11  C   UNK A   1       2.310   5.651  -8.674  0.00  0.00    +0.184 C 
BRANCH  11  12
ATOM     12  C   UNK A   1       1.666   4.816  -7.441  0.00  0.00    +0.263 C 
ATOM     13  N   GLY A   2       1.700   5.491  -6.163  0.00  0.00    -0.192 NA
ATOM     14  O   UNK A   1       2.444   3.799  -7.370  0.00  0.00    -0.271 OA
BRANCH  13  15
ATOM     15  CA  GLY A   2       2.518   5.022  -5.117  0.00  0.00    +0.228 C 
BRANCH  15  16
ATOM     16  C   GLY A   2       3.760   5.602  -4.753  0.00  0.00    +0.387 C 
ATOM     17  OXT GLY A   2       4.067   6.809  -5.407  0.00  0.00    -0.244 OA
ATOM     18  O   GLY A   2       4.741   4.787  -4.806  0.00  0.00    -0.244 OA
ENDBRANCH  15  16
ENDBRANCH  13  15
ENDBRANCH  11  12
BRANCH  11  19
ATOM     19  C   UNK A   1       1.318   4.980  -9.805  0.00  0.00    +0.100 C 
ATOM     20  S   UNK A   1       1.275   6.226 -11.141  0.00  0.00    -0.080 S 
ENDBRANCH  11  19
ENDBRANCH   2  11
TORSDOF 9
ENDMDL
