MODEL 1
REMARK VINA RESULT:      -8.0      0.000      0.000
REMARK  Name = 
REMARK  4 active torsions:
REMARK  status: ('A' for Active; 'I' for Inactive)
REMARK    1  A    between atoms: C_2  and  C_4
REMARK    2  A    between atoms: C_6  and  N_7
REMARK    3  A    between atoms: N_8  and  C_9
REMARK    4  A    between atoms: C_14  and  C_15
REMARK                            x       y       z     vdW  Elec       q    Type
REMARK                         _______ _______ _______ _____ _____    ______ ____
ROOT
ATOM      1  N   UNL     1       4.212   4.852  -8.473  0.00  0.00    -0.148 NA
ATOM      2  N   UNL     1       5.403   5.275  -8.426  0.00  0.00    -0.148 NA
ENDROOT
BRANCH   1   8
ATOM      3  C   UNL     1       2.994   5.642  -5.134  0.00  0.00    +0.120 A 
ATOM      4  C   UNL     1       1.839   4.880  -5.043  0.00  0.00    +0.202 A 
ATOM      5  O   UNL     1       0.920   5.148  -4.024  0.00  0.00    -0.286 OA
ATOM      6  C   UNL     1       1.419   4.195  -6.170  0.00  0.00    +0.044 A 
ATOM      7  C   UNL     1       2.141   4.304  -7.350  0.00  0.00    +0.024 A 
ATOM      8  C   UNL     1       3.286   5.063  -7.399  0.00  0.00    +0.103 A 
ATOM      9  C   UNL     1       3.515   5.957  -6.382  0.00  0.00    +0.031 A 
BRANCH   3  11
ATOM     10  O   UNL     1       3.553   7.517  -3.847  0.00  0.00    -0.240 OA
ATOM     11  C   UNL     1       3.553   6.266  -3.930  0.00  0.00    +0.391 C 
ATOM     12  O   UNL     1       4.282   5.441  -3.084  0.00  0.00    -0.240 OA
ENDBRANCH   3  11
ENDBRANCH   1   8
BRANCH   2  13
ATOM     13  C   UNL     1       6.049   5.610  -9.654  0.00  0.00    +0.103 A 
ATOM     14  C   UNL     1       5.350   5.848 -10.825  0.00  0.00    +0.031 A 
ATOM     15  C   UNL     1       5.980   5.622 -12.023  0.00  0.00    +0.120 A 
ATOM     16  C   UNL     1       7.339   5.348 -12.042  0.00  0.00    +0.202 A 
ATOM     17  O   UNL     1       7.906   4.750 -13.147  0.00  0.00    -0.286 OA
ATOM     18  C   UNL     1       8.049   5.699 -10.906  0.00  0.00    +0.044 A 
ATOM     19  C   UNL     1       7.408   5.888  -9.689  0.00  0.00    +0.024 A 
BRANCH  15  20
ATOM     20  C   UNL     1       5.142   5.497 -13.217  0.00  0.00    +0.391 C 
ATOM     21  O   UNL     1       4.502   4.295 -13.448  0.00  0.00    -0.240 OA
ATOM     22  O   UNL     1       5.111   6.417 -14.074  0.00  0.00    -0.240 OA
ENDBRANCH  15  20
ENDBRANCH   2  13
TORSDOF 4
ENDMDL
MODEL 2
REMARK VINA RESULT:      -7.7      1.094      2.228
REMARK  Name = 
REMARK  4 active torsions:
REMARK  status: ('A' for Active; 'I' for Inactive)
REMARK    1  A    between atoms: C_2  and  C_4
REMARK    2  A    between atoms: C_6  and  N_7
REMARK    3  A    between atoms: N_8  and  C_9
REMARK    4  A    between atoms: C_14  and  C_15
REMARK                            x       y       z     vdW  Elec       q    Type
REMARK                         _______ _______ _______ _____ _____    ______ ____
ROOT
ATOM      1  N   UNL     1       4.032   6.012  -7.973  0.00  0.00    -0.148 NA
ATOM      2  N   UNL     1       4.839   5.151  -8.427  0.00  0.00    -0.148 NA
ENDROOT
BRANCH   1   8
ATOM      3  C   UNL     1       1.908   6.334  -5.034  0.00  0.00    +0.120 A 
ATOM      4  C   UNL     1       2.785   6.821  -4.076  0.00  0.00    +0.202 A 
ATOM      5  O   UNL     1       2.416   6.783  -2.728  0.00  0.00    -0.286 OA
ATOM      6  C   UNL     1       4.125   6.920  -4.409  0.00  0.00    +0.044 A 
ATOM      7  C   UNL     1       4.553   6.515  -5.665  0.00  0.00    +0.024 A 
ATOM      8  C   UNL     1       3.652   6.045  -6.592  0.00  0.00    +0.103 A 
ATOM      9  C   UNL     1       2.404   5.677  -6.152  0.00  0.00    +0.031 A 
BRANCH   3  11
ATOM     10  O   UNL     1      -0.068   5.321  -4.291  0.00  0.00    -0.240 OA
ATOM     11  C   UNL     1       0.465   6.348  -4.775  0.00  0.00    +0.391 C 
ATOM     12  O   UNL     1      -0.256   7.397  -5.328  0.00  0.00    -0.240 OA
ENDBRANCH   3  11
ENDBRANCH   1   8
BRANCH   2  13
ATOM     13  C   UNL     1       5.644   5.506  -9.551  0.00  0.00    +0.103 A 
ATOM     14  C   UNL     1       5.106   5.789 -10.795  0.00  0.00    +0.031 A 
ATOM     15  C   UNL     1       5.883   5.584 -11.908  0.00  0.00    +0.120 A 
ATOM     16  C   UNL     1       7.229   5.287 -11.760  0.00  0.00    +0.202 A 
ATOM     17  O   UNL     1       7.925   4.708 -12.799  0.00  0.00    -0.286 OA
ATOM     18  C   UNL     1       7.791   5.594 -10.532  0.00  0.00    +0.044 A 
ATOM     19  C   UNL     1       7.000   5.762  -9.402  0.00  0.00    +0.024 A 
BRANCH  15  20
ATOM     20  C   UNL     1       5.205   5.506 -13.203  0.00  0.00    +0.391 C 
ATOM     21  O   UNL     1       4.515   4.350 -13.516  0.00  0.00    -0.240 OA
ATOM     22  O   UNL     1       5.356   6.415 -14.058  0.00  0.00    -0.240 OA
ENDBRANCH  15  20
ENDBRANCH   2  13
TORSDOF 4
ENDMDL
MODEL 3
REMARK VINA RESULT:      -7.7      3.342      9.157
REMARK  Name = 
REMARK  4 active torsions:
REMARK  status: ('A' for Active; 'I' for Inactive)
REMARK    1  A    between atoms: C_2  and  C_4
REMARK    2  A    between atoms: C_6  and  N_7
REMARK    3  A    between atoms: N_8  and  C_9
REMARK    4  A    between atoms: C_14  and  C_15
REMARK                            x       y       z     vdW  Elec       q    Type
REMARK                         _______ _______ _______ _____ _____    ______ ____
ROOT
ATOM      1  N   UNL     1       0.877   5.813  -7.312  0.00  0.00    -0.148 NA
ATOM      2  N   UNL     1       0.272   4.946  -6.618  0.00  0.00    -0.148 NA
ENDROOT
BRANCH   1   8
ATOM      3  C   UNL     1       2.687   5.883 -10.471  0.00  0.00    +0.120 A 
ATOM      4  C   UNL     1       1.666   5.981 -11.404  0.00  0.00    +0.202 A 
ATOM      5  O   UNL     1       1.943   5.724 -12.750  0.00  0.00    -0.286 OA
ATOM      6  C   UNL     1       0.360   5.899 -10.954  0.00  0.00    +0.044 A 
ATOM      7  C   UNL     1       0.110   5.702  -9.604  0.00  0.00    +0.024 A 
ATOM      8  C   UNL     1       1.148   5.618  -8.706  0.00  0.00    +0.103 A 
ATOM      9  C   UNL     1       2.413   5.402  -9.197  0.00  0.00    +0.031 A 
BRANCH   3  11
ATOM     10  O   UNL     1       4.733   5.142 -11.335  0.00  0.00    -0.240 OA
ATOM     11  C   UNL     1       4.076   6.109 -10.882  0.00  0.00    +0.391 C 
ATOM     12  O   UNL     1       4.651   7.312 -10.497  0.00  0.00    -0.240 OA
ENDBRANCH   3  11
ENDBRANCH   1   8
BRANCH   2  13
ATOM     13  C   UNL     1      -0.504   5.393  -5.507  0.00  0.00    +0.103 A 
ATOM     14  C   UNL     1       0.052   5.663  -4.268  0.00  0.00    +0.031 A 
ATOM     15  C   UNL     1      -0.740   5.549  -3.154  0.00  0.00    +0.120 A 
ATOM     16  C   UNL     1      -2.105   5.356  -3.299  0.00  0.00    +0.202 A 
ATOM     17  O   UNL     1      -2.847   4.861  -2.248  0.00  0.00    -0.286 OA
ATOM     18  C   UNL     1      -2.639   5.676  -4.537  0.00  0.00    +0.044 A 
ATOM     19  C   UNL     1      -1.835   5.752  -5.667  0.00  0.00    +0.024 A 
BRANCH  15  20
ATOM     20  C   UNL     1      -0.072   5.450  -1.854  0.00  0.00    +0.391 C 
ATOM     21  O   UNL     1       0.024   6.587  -1.076  0.00  0.00    -0.240 OA
ATOM     22  O   UNL     1       0.511   4.389  -1.516  0.00  0.00    -0.240 OA
ENDBRANCH  15  20
ENDBRANCH   2  13
TORSDOF 4
ENDMDL
MODEL 4
REMARK VINA RESULT:      -7.6      3.499      9.222
REMARK  Name = 
REMARK  4 active torsions:
REMARK  status: ('A' for Active; 'I' for Inactive)
REMARK    1  A    between atoms: C_2  and  C_4
REMARK    2  A    between atoms: C_6  and  N_7
REMARK    3  A    between atoms: N_8  and  C_9
REMARK    4  A    between atoms: C_14  and  C_15
REMARK                            x       y       z     vdW  Elec       q    Type
REMARK                         _______ _______ _______ _____ _____    ______ ____
ROOT
ATOM      1  N   UNL     1       1.509   6.528  -6.907  0.00  0.00    -0.148 NA
ATOM      2  N   UNL     1       0.768   5.571  -6.541  0.00  0.00    -0.148 NA
ENDROOT
BRANCH   1   8
ATOM      3  C   UNL     1       1.659   6.242 -10.534  0.00  0.00    +0.120 A 
ATOM      4  C   UNL     1       3.013   6.060 -10.769  0.00  0.00    +0.202 A 
ATOM      5  O   UNL     1       3.510   6.218 -12.066  0.00  0.00    -0.286 OA
ATOM      6  C   UNL     1       3.881   6.158  -9.695  0.00  0.00    +0.044 A 
ATOM      7  C   UNL     1       3.383   6.454  -8.434  0.00  0.00    +0.024 A 
ATOM      8  C   UNL     1       2.033   6.620  -8.238  0.00  0.00    +0.103 A 
ATOM      9  C   UNL     1       1.238   6.815  -9.341  0.00  0.00    +0.031 A 
BRANCH   3  11
ATOM     10  O   UNL     1       0.046   6.980 -12.062  0.00  0.00    -0.240 OA
ATOM     11  C   UNL     1       0.693   6.005 -11.611  0.00  0.00    +0.391 C 
ATOM     12  O   UNL     1       0.369   4.682 -11.876  0.00  0.00    -0.240 OA
ENDBRANCH   3  11
ENDBRANCH   1   8
BRANCH   2  13
ATOM     13  C   UNL     1      -0.194   5.815  -5.516  0.00  0.00    +0.103 A 
ATOM     14  C   UNL     1       0.158   6.002  -4.190  0.00  0.00    +0.031 A 
ATOM     15  C   UNL     1      -0.759   5.689  -3.217  0.00  0.00    +0.120 A 
ATOM     16  C   UNL     1      -2.061   5.381  -3.576  0.00  0.00    +0.202 A 
ATOM     17  O   UNL     1      -2.877   4.704  -2.695  0.00  0.00    -0.286 OA
ATOM     18  C   UNL     1      -2.457   5.781  -4.842  0.00  0.00    +0.044 A 
ATOM     19  C   UNL     1      -1.524   6.058  -5.832  0.00  0.00    +0.024 A 
BRANCH  15  20
ATOM     20  C   UNL     1      -0.264   5.514  -1.850  0.00  0.00    +0.391 C 
ATOM     21  O   UNL     1      -0.392   6.567  -0.965  0.00  0.00    -0.240 OA
ATOM     22  O   UNL     1       0.377   4.481  -1.531  0.00  0.00    -0.240 OA
ENDBRANCH  15  20
ENDBRANCH   2  13
TORSDOF 4
ENDMDL
MODEL 5
REMARK VINA RESULT:      -7.3      2.192      8.537
REMARK  Name = 
REMARK  4 active torsions:
REMARK  status: ('A' for Active; 'I' for Inactive)
REMARK    1  A    between atoms: C_2  and  C_4
REMARK    2  A    between atoms: C_6  and  N_7
REMARK    3  A    between atoms: N_8  and  C_9
REMARK    4  A    between atoms: C_14  and  C_15
REMARK                            x       y       z     vdW  Elec       q    Type
REMARK                         _______ _______ _______ _____ _____    ______ ____
ROOT
ATOM      1  N   UNL     1       3.940   5.728  -6.537  0.00  0.00    -0.148 NA
ATOM      2  N   UNL     1       3.493   4.854  -5.741  0.00  0.00    -0.148 NA
ENDROOT
BRANCH   1   8
ATOM      3  C   UNL     1       5.788   5.675  -9.674  0.00  0.00    +0.120 A 
ATOM      4  C   UNL     1       4.779   5.570 -10.620  0.00  0.00    +0.202 A 
ATOM      5  O   UNL     1       5.105   5.211 -11.931  0.00  0.00    -0.286 OA
ATOM      6  C   UNL     1       3.481   5.396 -10.173  0.00  0.00    +0.044 A 
ATOM      7  C   UNL     1       3.229   5.309  -8.811  0.00  0.00    +0.024 A 
ATOM      8  C   UNL     1       4.254   5.426  -7.902  0.00  0.00    +0.103 A 
ATOM      9  C   UNL     1       5.543   5.297  -8.360  0.00  0.00    +0.031 A 
BRANCH   3  11
ATOM     10  O   UNL     1       8.067   5.177  -9.871  0.00  0.00    -0.240 OA
ATOM     11  C   UNL     1       7.153   6.004 -10.097  0.00  0.00    +0.391 C 
ATOM     12  O   UNL     1       7.386   7.319 -10.478  0.00  0.00    -0.240 OA
ENDBRANCH   3  11
ENDBRANCH   1   8
BRANCH   2  13
ATOM     13  C   UNL     1       2.639   5.281  -4.680  0.00  0.00    +0.103 A 
ATOM     14  C   UNL     1       3.110   5.554  -3.407  0.00  0.00    +0.031 A 
ATOM     15  C   UNL     1       2.250   5.419  -2.346  0.00  0.00    +0.120 A 
ATOM     16  C   UNL     1       0.901   5.203  -2.580  0.00  0.00    +0.202 A 
ATOM     17  O   UNL     1       0.102   4.689  -1.581  0.00  0.00    -0.286 OA
ATOM     18  C   UNL     1       0.442   5.521  -3.847  0.00  0.00    +0.044 A 
ATOM     19  C   UNL     1       1.315   5.617  -4.923  0.00  0.00    +0.024 A 
BRANCH  15  20
ATOM     20  C   UNL     1       2.835   5.324  -1.007  0.00  0.00    +0.391 C 
ATOM     21  O   UNL     1       2.659   6.383  -0.136  0.00  0.00    -0.240 OA
ATOM     22  O   UNL     1       3.586   4.362  -0.705  0.00  0.00    -0.240 OA
ENDBRANCH  15  20
ENDBRANCH   2  13
TORSDOF 4
ENDMDL
MODEL 6
REMARK VINA RESULT:      -7.3      1.537      8.097
REMARK  Name = 
REMARK  4 active torsions:
REMARK  status: ('A' for Active; 'I' for Inactive)
REMARK    1  A    between atoms: C_2  and  C_4
REMARK    2  A    between atoms: C_6  and  N_7
REMARK    3  A    between atoms: N_8  and  C_9
REMARK    4  A    between atoms: C_14  and  C_15
REMARK                            x       y       z     vdW  Elec       q    Type
REMARK                         _______ _______ _______ _____ _____    ______ ____
ROOT
ATOM      1  N   UNL     1       4.268   6.030  -9.655  0.00  0.00    -0.148 NA
ATOM      2  N   UNL     1       3.621   7.026  -9.221  0.00  0.00    -0.148 NA
ENDROOT
BRANCH   1   8
ATOM      3  C   UNL     1       6.917   6.099 -12.152  0.00  0.00    +0.120 A 
ATOM      4  C   UNL     1       8.027   5.690 -11.429  0.00  0.00    +0.202 A 
ATOM      5  O   UNL     1       9.303   5.886 -11.966  0.00  0.00    -0.286 OA
ATOM      6  C   UNL     1       7.887   5.511 -10.064  0.00  0.00    +0.044 A 
ATOM      7  C   UNL     1       6.664   5.762  -9.459  0.00  0.00    +0.024 A 
ATOM      8  C   UNL     1       5.583   6.159 -10.210  0.00  0.00    +0.103 A 
ATOM      9  C   UNL     1       5.812   6.614 -11.486  0.00  0.00    +0.031 A 
BRANCH   3  11
ATOM     10  O   UNL     1       6.596   7.207 -14.189  0.00  0.00    -0.240 OA
ATOM     11  C   UNL     1       6.982   6.162 -13.615  0.00  0.00    +0.391 C 
ATOM     12  O   UNL     1       7.217   4.965 -14.279  0.00  0.00    -0.240 OA
ENDBRANCH   3  11
ENDBRANCH   1   8
BRANCH   2  13
ATOM     13  C   UNL     1       2.683   6.815  -8.166  0.00  0.00    +0.103 A 
ATOM     14  C   UNL     1       2.993   7.038  -6.835  0.00  0.00    +0.031 A 
ATOM     15  C   UNL     1       2.310   6.335  -5.875  0.00  0.00    +0.120 A 
ATOM     16  C   UNL     1       1.211   5.571  -6.236  0.00  0.00    +0.202 A 
ATOM     17  O   UNL     1       0.757   4.577  -5.396  0.00  0.00    -0.286 OA
ATOM     18  C   UNL     1       0.638   5.866  -7.462  0.00  0.00    +0.044 A 
ATOM     19  C   UNL     1       1.350   6.544  -8.443  0.00  0.00    +0.024 A 
BRANCH  15  20
ATOM     20  C   UNL     1       2.892   6.280  -4.533  0.00  0.00    +0.391 C 
ATOM     21  O   UNL     1       2.299   7.018  -3.527  0.00  0.00    -0.240 OA
ATOM     22  O   UNL     1       3.978   5.679  -4.333  0.00  0.00    -0.240 OA
ENDBRANCH  15  20
ENDBRANCH   2  13
TORSDOF 4
ENDMDL
MODEL 7
REMARK VINA RESULT:      -7.3      2.106      8.137
REMARK  Name = 
REMARK  4 active torsions:
REMARK  status: ('A' for Active; 'I' for Inactive)
REMARK    1  A    between atoms: C_2  and  C_4
REMARK    2  A    between atoms: C_6  and  N_7
REMARK    3  A    between atoms: N_8  and  C_9
REMARK    4  A    between atoms: C_14  and  C_15
REMARK                            x       y       z     vdW  Elec       q    Type
REMARK                         _______ _______ _______ _____ _____    ______ ____
ROOT
ATOM      1  N   UNL     1       5.132   5.324  -6.990  0.00  0.00    -0.148 NA
ATOM      2  N   UNL     1       4.179   5.401  -6.163  0.00  0.00    -0.148 NA
ENDROOT
BRANCH   1   8
ATOM      3  C   UNL     1       5.521   6.345 -10.464  0.00  0.00    +0.120 A 
ATOM      4  C   UNL     1       4.256   6.127 -10.989  0.00  0.00    +0.202 A 
ATOM      5  O   UNL     1       4.085   6.109 -12.376  0.00  0.00    -0.286 OA
ATOM      6  C   UNL     1       3.311   5.516 -10.182  0.00  0.00    +0.044 A 
ATOM      7  C   UNL     1       3.655   5.125  -8.896  0.00  0.00    +0.024 A 
ATOM      8  C   UNL     1       4.917   5.366  -8.407  0.00  0.00    +0.103 A 
ATOM      9  C   UNL     1       5.908   5.690  -9.302  0.00  0.00    +0.031 A 
BRANCH   3  11
ATOM     10  O   UNL     1       6.323   8.348 -11.374  0.00  0.00    -0.240 OA
ATOM     11  C   UNL     1       6.506   7.116 -11.230  0.00  0.00    +0.391 C 
ATOM     12  O   UNL     1       7.430   6.387 -11.965  0.00  0.00    -0.240 OA
ENDBRANCH   3  11
ENDBRANCH   1   8
BRANCH   2  13
ATOM     13  C   UNL     1       4.440   5.974  -4.883  0.00  0.00    +0.103 A 
ATOM     14  C   UNL     1       4.336   5.251  -3.707  0.00  0.00    +0.031 A 
ATOM     15  C   UNL     1       4.058   5.926  -2.544  0.00  0.00    +0.120 A 
ATOM     16  C   UNL     1       4.075   7.312  -2.535  0.00  0.00    +0.202 A 
ATOM     17  O   UNL     1       3.439   8.002  -1.525  0.00  0.00    -0.286 OA
ATOM     18  C   UNL     1       4.744   7.922  -3.582  0.00  0.00    +0.044 A 
ATOM     19  C   UNL     1       4.988   7.244  -4.770  0.00  0.00    +0.024 A 
BRANCH  15  20
ATOM     20  C   UNL     1       3.570   5.144  -1.406  0.00  0.00    +0.391 C 
ATOM     21  O   UNL     1       2.223   4.845  -1.343  0.00  0.00    -0.240 OA
ATOM     22  O   UNL     1       4.336   4.865  -0.449  0.00  0.00    -0.240 OA
ENDBRANCH  15  20
ENDBRANCH   2  13
TORSDOF 4
ENDMDL
MODEL 8
REMARK VINA RESULT:      -7.3      3.456      8.719
REMARK  Name = 
REMARK  4 active torsions:
REMARK  status: ('A' for Active; 'I' for Inactive)
REMARK    1  A    between atoms: C_2  and  C_4
REMARK    2  A    between atoms: C_6  and  N_7
REMARK    3  A    between atoms: N_8  and  C_9
REMARK    4  A    between atoms: C_14  and  C_15
REMARK                            x       y       z     vdW  Elec       q    Type
REMARK                         _______ _______ _______ _____ _____    ______ ____
ROOT
ATOM      1  N   UNL     1       0.379   6.368 -10.119  0.00  0.00    -0.148 NA
ATOM      2  N   UNL     1       1.290   5.929  -9.360  0.00  0.00    -0.148 NA
ENDROOT
BRANCH   1   8
ATOM      3  C   UNL     1       1.824   5.760 -13.405  0.00  0.00    +0.120 A 
ATOM      4  C   UNL     1       1.362   6.837 -14.145  0.00  0.00    +0.202 A 
ATOM      5  O   UNL     1       1.449   6.797 -15.540  0.00  0.00    -0.286 OA
ATOM      6  C   UNL     1       0.459   7.700 -13.548  0.00  0.00    +0.044 A 
ATOM      7  C   UNL     1       0.030   7.455 -12.252  0.00  0.00    +0.024 A 
ATOM      8  C   UNL     1       0.517   6.381 -11.546  0.00  0.00    +0.103 A 
ATOM      9  C   UNL     1       1.164   5.389 -12.241  0.00  0.00    +0.031 A 
BRANCH   3  11
ATOM     10  O   UNL     1       2.564   3.863 -14.562  0.00  0.00    -0.240 OA
ATOM     11  C   UNL     1       2.887   4.906 -13.946  0.00  0.00    +0.391 C 
ATOM     12  O   UNL     1       4.179   5.171 -13.510  0.00  0.00    -0.240 OA
ENDBRANCH   3  11
ENDBRANCH   1   8
BRANCH   2  13
ATOM     13  C   UNL     1       0.910   5.360  -8.108  0.00  0.00    +0.103 A 
ATOM     14  C   UNL     1      -0.371   5.473  -7.595  0.00  0.00    +0.031 A 
ATOM     15  C   UNL     1      -0.541   5.413  -6.234  0.00  0.00    +0.120 A 
ATOM     16  C   UNL     1       0.526   5.055  -5.425  0.00  0.00    +0.202 A 
ATOM     17  O   UNL     1       0.502   5.355  -4.080  0.00  0.00    -0.286 OA
ATOM     18  C   UNL     1       1.579   4.408  -6.052  0.00  0.00    +0.044 A 
ATOM     19  C   UNL     1       1.765   4.506  -7.425  0.00  0.00    +0.024 A 
BRANCH  15  20
ATOM     20  C   UNL     1      -1.802   5.914  -5.686  0.00  0.00    +0.391 C 
ATOM     21  O   UNL     1      -2.907   5.085  -5.713  0.00  0.00    -0.240 OA
ATOM     22  O   UNL     1      -1.907   7.113  -5.320  0.00  0.00    -0.240 OA
ENDBRANCH  15  20
ENDBRANCH   2  13
TORSDOF 4
ENDMDL
MODEL 9
REMARK VINA RESULT:      -7.1      1.664      3.068
REMARK  Name = 
REMARK  4 active torsions:
REMARK  status: ('A' for Active; 'I' for Inactive)
REMARK    1  A    between atoms: C_2  and  C_4
REMARK    2  A    between atoms: C_6  and  N_7
REMARK    3  A    between atoms: N_8  and  C_9
REMARK    4  A    between atoms: C_14  and  C_15
REMARK                            x       y       z     vdW  Elec       q    Type
REMARK                         _______ _______ _______ _____ _____    ______ ____
ROOT
ATOM      1  N   UNL     1       3.933   5.487  -7.202  0.00  0.00    -0.148 NA
ATOM      2  N   UNL     1       5.079   5.461  -7.737  0.00  0.00    -0.148 NA
ENDROOT
BRANCH   1   8
ATOM      3  C   UNL     1       2.209   6.189  -4.073  0.00  0.00    +0.120 A 
ATOM      4  C   UNL     1       3.091   7.039  -3.423  0.00  0.00    +0.202 A 
ATOM      5  O   UNL     1       2.924   7.284  -2.057  0.00  0.00    -0.286 OA
ATOM      6  C   UNL     1       4.325   7.269  -4.006  0.00  0.00    +0.044 A 
ATOM      7  C   UNL     1       4.651   6.636  -5.197  0.00  0.00    +0.024 A 
ATOM      8  C   UNL     1       3.746   5.806  -5.817  0.00  0.00    +0.103 A 
ATOM      9  C   UNL     1       2.670   5.361  -5.088  0.00  0.00    +0.031 A 
BRANCH   3  11
ATOM     10  O   UNL     1       0.585   5.054  -2.825  0.00  0.00    -0.240 OA
ATOM     11  C   UNL     1       0.841   6.032  -3.567  0.00  0.00    +0.391 C 
ATOM     12  O   UNL     1      -0.135   6.823  -4.156  0.00  0.00    -0.240 OA
ENDBRANCH   3  11
ENDBRANCH   1   8
BRANCH   2  13
ATOM     13  C   UNL     1       5.182   5.768  -9.126  0.00  0.00    +0.103 A 
ATOM     14  C   UNL     1       6.125   5.181  -9.953  0.00  0.00    +0.031 A 
ATOM     15  C   UNL     1       6.538   5.866 -11.068  0.00  0.00    +0.120 A 
ATOM     16  C   UNL     1       5.878   7.025 -11.444  0.00  0.00    +0.202 A 
ATOM     17  O   UNL     1       6.488   7.920 -12.297  0.00  0.00    -0.286 OA
ATOM     18  C   UNL     1       4.614   7.210 -10.909  0.00  0.00    +0.044 A 
ATOM     19  C   UNL     1       4.218   6.542  -9.758  0.00  0.00    +0.024 A 
BRANCH  15  20
ATOM     20  C   UNL     1       7.785   5.436 -11.704  0.00  0.00    +0.391 C 
ATOM     21  O   UNL     1       7.710   4.570 -12.778  0.00  0.00    -0.240 OA
ATOM     22  O   UNL     1       8.896   5.745 -11.204  0.00  0.00    -0.240 OA
ENDBRANCH  15  20
ENDBRANCH   2  13
TORSDOF 4
ENDMDL
