MODEL 1
REMARK VINA RESULT:      -9.5      0.000      0.000
REMARK  Name = 
REMARK  3 active torsions:
REMARK  status: ('A' for Active; 'I' for Inactive)
REMARK    1  A    between atoms: O_2  and  C_3
REMARK    2  A    between atoms: C_12  and  C_14
REMARK    3  A    between atoms: C_31  and  O_32
REMARK                            x       y       z     vdW  Elec       q    Type
REMARK                         _______ _______ _______ _____ _____    ______ ____
ROOT
ATOM      1  C   UNL     1       1.935   6.925  -1.357  0.00  0.00    +0.174 A 
ATOM      2  C   UNL     1       3.066   7.660  -1.118  0.00  0.00    +0.173 A 
ATOM      3  C   UNL     1       3.973   7.892  -2.143  0.00  0.00    +0.044 A 
ATOM      4  C   UNL     1       3.737   7.368  -3.390  0.00  0.00    +0.056 A 
ATOM      5  C   UNL     1       2.489   6.843  -3.652  0.00  0.00    +0.090 A 
ATOM      6  N   UNL     1       2.189   6.584  -4.924  0.00  0.00    -0.213 NA
ATOM      7  C   UNL     1       3.080   6.662  -5.943  0.00  0.00    +0.221 A 
ATOM      8  N   UNL     1       4.377   6.817  -5.608  0.00  0.00    -0.195 NA
ATOM      9  N   UNL     1       2.672   5.950  -7.123  0.00  0.00    -0.275 N 
ATOM     10  C   UNL     1       1.341   6.326  -7.594  0.00  0.00    +0.115 C 
ATOM     11  C   UNL     1       0.800   5.324  -8.605  0.00  0.00    +0.115 C 
ATOM     12  N   UNL     1       2.004   4.748  -9.209  0.00  0.00    -0.273 N 
ATOM     13  C   UNL     1       2.826   5.697  -9.778  0.00  0.00    +0.270 C 
ATOM     14  O   UNL     1       2.572   6.908  -9.994  0.00  0.00    -0.271 OA
ATOM     15  C   UNL     1       2.609   3.778  -8.291  0.00  0.00    +0.115 C 
ATOM     16  C   UNL     1       3.176   4.592  -7.167  0.00  0.00    +0.115 C 
ATOM     17  C   UNL     1       4.698   7.290  -4.378  0.00  0.00    +0.174 A 
ATOM     18  N   UNL     1       6.060   7.283  -3.936  0.00  0.00    -0.107 NA
ATOM     19  C   UNL     1       1.585   6.584  -2.635  0.00  0.00    +0.059 A 
ENDROOT
BRANCH  13  20
ATOM     20  C   UNL     1       3.957   5.259 -10.872  0.00  0.00    +0.284 C 
ATOM     21  O   UNL     1       4.901   6.438 -10.450  0.00  0.00    -0.463 OA
ATOM     22  C   UNL     1       5.946   6.546 -11.378  0.00  0.00    +0.173 A 
ATOM     23  C   UNL     1       5.714   6.087 -12.670  0.00  0.00    +0.172 A 
ATOM     24  C   UNL     1       6.786   5.707 -13.465  0.00  0.00    +0.040 A 
ATOM     25  C   UNL     1       7.994   5.452 -12.825  0.00  0.00    +0.003 A 
ATOM     26  C   UNL     1       8.337   6.303 -11.779  0.00  0.00    +0.003 A 
ATOM     27  O   UNL     1       4.396   5.988 -13.058  0.00  0.00    -0.468 OA
ATOM     28  C   UNL     1       7.256   6.755 -11.026  0.00  0.00    +0.040 A 
ATOM     29  C   UNL     1       3.324   6.164 -12.134  0.00  0.00    +0.258 C 
ENDBRANCH  13  20
BRANCH   1  31
ATOM     30  C   UNL     1       0.817   6.062  -0.004  0.00  0.00    +0.253 C 
ATOM     31  O   UNL     1       1.349   6.209  -0.308  0.00  0.00    -0.468 OA
ENDBRANCH   1  31
BRANCH   2  32
ATOM     32  O   UNL     1       3.562   7.844   0.172  0.00  0.00    -0.468 OA
ATOM     33  C   UNL     1       4.753   7.227   0.611  0.00  0.00    +0.253 C 
ENDBRANCH   2  32
TORSDOF 3
ENDMDL
MODEL 2
REMARK VINA RESULT:      -9.5      1.400      1.755
REMARK  Name = 
REMARK  3 active torsions:
REMARK  status: ('A' for Active; 'I' for Inactive)
REMARK    1  A    between atoms: O_2  and  C_3
REMARK    2  A    between atoms: C_12  and  C_14
REMARK    3  A    between atoms: C_31  and  O_32
REMARK                            x       y       z     vdW  Elec       q    Type
REMARK                         _______ _______ _______ _____ _____    ______ ____
ROOT
ATOM      1  C   UNL     1      -0.286   6.090  -2.076  0.00  0.00    +0.174 A 
ATOM      2  C   UNL     1       0.848   6.358  -1.355  0.00  0.00    +0.173 A 
ATOM      3  C   UNL     1       2.079   6.427  -1.995  0.00  0.00    +0.044 A 
ATOM      4  C   UNL     1       2.152   6.209  -3.349  0.00  0.00    +0.056 A 
ATOM      5  C   UNL     1       0.978   6.179  -4.070  0.00  0.00    +0.090 A 
ATOM      6  N   UNL     1       1.074   6.233  -5.398  0.00  0.00    -0.213 NA
ATOM      7  C   UNL     1       2.246   6.163  -6.076  0.00  0.00    +0.221 A 
ATOM      8  N   UNL     1       3.340   5.821  -5.366  0.00  0.00    -0.195 NA
ATOM      9  N   UNL     1       2.092   5.818  -7.463  0.00  0.00    -0.275 N 
ATOM     10  C   UNL     1       1.155   6.685  -8.174  0.00  0.00    +0.115 C 
ATOM     11  C   UNL     1       0.746   6.089  -9.515  0.00  0.00    +0.115 C 
ATOM     12  N   UNL     1       1.883   5.243  -9.885  0.00  0.00    -0.273 N 
ATOM     13  C   UNL     1       3.072   5.936  -9.946  0.00  0.00    +0.270 C 
ATOM     14  O   UNL     1       3.242   7.181  -9.910  0.00  0.00    -0.271 OA
ATOM     15  C   UNL     1       1.852   3.998  -9.111  0.00  0.00    +0.115 C 
ATOM     16  C   UNL     1       2.196   4.393  -7.706  0.00  0.00    +0.115 C 
ATOM     17  C   UNL     1       3.335   5.966  -4.018  0.00  0.00    +0.174 A 
ATOM     18  N   UNL     1       4.408   5.435  -3.232  0.00  0.00    -0.107 NA
ATOM     19  C   UNL     1      -0.254   6.085  -3.444  0.00  0.00    +0.059 A 
ENDROOT
BRANCH  13  20
ATOM     20  C   UNL     1       4.348   5.318 -10.756  0.00  0.00    +0.284 C 
ATOM     21  O   UNL     1       5.137   6.669 -10.657  0.00  0.00    -0.463 OA
ATOM     22  C   UNL     1       6.264   6.607 -11.488  0.00  0.00    +0.173 A 
ATOM     23  C   UNL     1       6.212   5.751 -12.583  0.00  0.00    +0.172 A 
ATOM     24  C   UNL     1       7.392   5.272 -13.134  0.00  0.00    +0.040 A 
ATOM     25  C   UNL     1       8.541   5.365 -12.356  0.00  0.00    +0.003 A 
ATOM     26  C   UNL     1       8.696   6.528 -11.609  0.00  0.00    +0.003 A 
ATOM     27  O   UNL     1       4.957   5.389 -13.020  0.00  0.00    -0.468 OA
ATOM     28  C   UNL     1       7.505   7.062 -11.122  0.00  0.00    +0.040 A 
ATOM     29  C   UNL     1       3.780   5.715 -12.283  0.00  0.00    +0.258 C 
ENDBRANCH  13  20
BRANCH   1  31
ATOM     30  C   UNL     1      -1.987   5.366  -1.440  0.00  0.00    +0.253 C 
ATOM     31  O   UNL     1      -1.364   5.461  -1.447  0.00  0.00    -0.468 OA
ENDBRANCH   1  31
BRANCH   2  32
ATOM     32  O   UNL     1       0.903   6.167   0.024  0.00  0.00    -0.468 OA
ATOM     33  C   UNL     1       0.578   7.194   0.937  0.00  0.00    +0.253 C 
ENDBRANCH   2  32
TORSDOF 3
ENDMDL
MODEL 3
REMARK VINA RESULT:      -8.9      2.330      9.800
REMARK  Name = 
REMARK  3 active torsions:
REMARK  status: ('A' for Active; 'I' for Inactive)
REMARK    1  A    between atoms: O_2  and  C_3
REMARK    2  A    between atoms: C_12  and  C_14
REMARK    3  A    between atoms: C_31  and  O_32
REMARK                            x       y       z     vdW  Elec       q    Type
REMARK                         _______ _______ _______ _____ _____    ______ ____
ROOT
ATOM      1  C   UNL     1       6.332   5.614 -11.767  0.00  0.00    +0.174 A 
ATOM      2  C   UNL     1       5.258   5.895 -12.570  0.00  0.00    +0.173 A 
ATOM      3  C   UNL     1       3.996   6.056 -12.013  0.00  0.00    +0.044 A 
ATOM      4  C   UNL     1       3.831   5.918 -10.657  0.00  0.00    +0.056 A 
ATOM      5  C   UNL     1       4.957   5.874  -9.863  0.00  0.00    +0.090 A 
ATOM      6  N   UNL     1       4.784   6.006  -8.548  0.00  0.00    -0.213 NA
ATOM      7  C   UNL     1       3.571   6.029  -7.943  0.00  0.00    +0.221 A 
ATOM      8  N   UNL     1       2.506   5.700  -8.701  0.00  0.00    -0.195 NA
ATOM      9  N   UNL     1       3.624   5.755  -6.532  0.00  0.00    -0.275 N 
ATOM     10  C   UNL     1       4.559   6.616  -5.811  0.00  0.00    +0.115 C 
ATOM     11  C   UNL     1       4.857   6.077  -4.418  0.00  0.00    +0.115 C 
ATOM     12  N   UNL     1       3.658   5.307  -4.075  0.00  0.00    -0.273 N 
ATOM     13  C   UNL     1       2.504   6.058  -4.126  0.00  0.00    +0.270 C 
ATOM     14  O   UNL     1       2.399   7.305  -4.238  0.00  0.00    -0.271 OA
ATOM     15  C   UNL     1       3.673   4.021  -4.779  0.00  0.00    +0.115 C 
ATOM     16  C   UNL     1       3.434   4.353  -6.221  0.00  0.00    +0.115 C 
ATOM     17  C   UNL     1       2.599   5.769 -10.051  0.00  0.00    +0.174 A 
ATOM     18  N   UNL     1       1.550   5.246 -10.874  0.00  0.00    -0.107 NA
ATOM     19  C   UNL     1       6.218   5.687 -10.405  0.00  0.00    +0.059 A 
ENDROOT
BRANCH  13  20
ATOM     20  C   UNL     1       1.152   5.546  -3.365  0.00  0.00    +0.284 C 
ATOM     21  O   UNL     1       0.326   6.771  -3.892  0.00  0.00    -0.463 OA
ATOM     22  C   UNL     1      -0.907   6.815  -3.226  0.00  0.00    +0.173 A 
ATOM     23  C   UNL     1      -0.978   6.245  -1.960  0.00  0.00    +0.172 A 
ATOM     24  C   UNL     1      -2.203   5.815  -1.470  0.00  0.00    +0.040 A 
ATOM     25  C   UNL     1      -3.228   5.633  -2.392  0.00  0.00    +0.003 A 
ATOM     26  C   UNL     1      -3.324   6.574  -3.412  0.00  0.00    +0.003 A 
ATOM     27  O   UNL     1       0.214   6.094  -1.287  0.00  0.00    -0.468 OA
ATOM     28  C   UNL     1      -2.100   7.073  -3.852  0.00  0.00    +0.040 A 
ATOM     29  C   UNL     1       1.470   6.332  -1.919  0.00  0.00    +0.258 C 
ENDBRANCH  13  20
BRANCH   1  31
ATOM     30  C   UNL     1       8.034   4.889 -12.399  0.00  0.00    +0.253 C 
ATOM     31  O   UNL     1       7.413   4.901 -12.292  0.00  0.00    -0.468 OA
ENDBRANCH   1  31
BRANCH   2  32
ATOM     32  O   UNL     1       5.277   5.629 -13.938  0.00  0.00    -0.468 OA
ATOM     33  C   UNL     1       5.706   6.587 -14.882  0.00  0.00    +0.253 C 
ENDBRANCH   2  32
TORSDOF 3
ENDMDL
MODEL 4
REMARK VINA RESULT:      -8.9      2.945      5.339
REMARK  Name = 
REMARK  3 active torsions:
REMARK  status: ('A' for Active; 'I' for Inactive)
REMARK    1  A    between atoms: O_2  and  C_3
REMARK    2  A    between atoms: C_12  and  C_14
REMARK    3  A    between atoms: C_31  and  O_32
REMARK                            x       y       z     vdW  Elec       q    Type
REMARK                         _______ _______ _______ _____ _____    ______ ____
ROOT
ATOM      1  C   UNL     1       3.470   5.967  -5.061  0.00  0.00    +0.174 A 
ATOM      2  C   UNL     1       2.440   5.083  -5.246  0.00  0.00    +0.173 A 
ATOM      3  C   UNL     1       2.214   4.531  -6.500  0.00  0.00    +0.044 A 
ATOM      4  C   UNL     1       3.019   4.888  -7.553  0.00  0.00    +0.056 A 
ATOM      5  C   UNL     1       4.177   5.586  -7.283  0.00  0.00    +0.090 A 
ATOM      6  N   UNL     1       5.070   5.694  -8.266  0.00  0.00    -0.213 NA
ATOM      7  C   UNL     1       4.843   5.295  -9.542  0.00  0.00    +0.221 A 
ATOM      8  N   UNL     1       3.577   4.959  -9.859  0.00  0.00    -0.195 NA
ATOM      9  N   UNL     1       5.746   5.876 -10.498  0.00  0.00    -0.275 N 
ATOM     10  C   UNL     1       7.153   5.683 -10.156  0.00  0.00    +0.115 C 
ATOM     11  C   UNL     1       8.059   6.596 -10.972  0.00  0.00    +0.115 C 
ATOM     12  N   UNL     1       7.299   6.839 -12.201  0.00  0.00    -0.273 N 
ATOM     13  C   UNL     1       6.967   5.679 -12.866  0.00  0.00    +0.270 C 
ATOM     14  O   UNL     1       7.389   4.516 -12.647  0.00  0.00    -0.271 OA
ATOM     15  C   UNL     1       6.234   7.814 -11.945  0.00  0.00    +0.115 C 
ATOM     16  C   UNL     1       5.233   7.095 -11.091  0.00  0.00    +0.115 C 
ATOM     17  C   UNL     1       2.705   4.633  -8.873  0.00  0.00    +0.174 A 
ATOM     18  N   UNL     1       1.314   4.459  -9.170  0.00  0.00    -0.107 NA
ATOM     19  C   UNL     1       4.402   6.163  -6.043  0.00  0.00    +0.059 A 
ENDROOT
BRANCH  13  20
ATOM     20  C   UNL     1       6.534   5.725 -14.440  0.00  0.00    +0.284 C 
ATOM     21  O   UNL     1       6.849   7.258 -14.539  0.00  0.00    -0.463 OA
ATOM     22  C   UNL     1       6.356   7.752 -15.755  0.00  0.00    +0.173 A 
ATOM     23  C   UNL     1       5.287   7.082 -16.339  0.00  0.00    +0.172 A 
ATOM     24  C   UNL     1       5.078   7.185 -17.707  0.00  0.00    +0.040 A 
ATOM     25  C   UNL     1       6.140   7.641 -18.480  0.00  0.00    +0.003 A 
ATOM     26  C   UNL     1       6.904   8.672 -17.943  0.00  0.00    +0.003 A 
ATOM     27  O   UNL     1       4.523   6.298 -15.502  0.00  0.00    -0.468 OA
ATOM     28  C   UNL     1       7.048   8.621 -16.559  0.00  0.00    +0.040 A 
ATOM     29  C   UNL     1       4.912   6.035 -14.155  0.00  0.00    +0.258 C 
ENDBRANCH  13  20
BRANCH   1  31
ATOM     30  C   UNL     1       3.680   7.321  -3.666  0.00  0.00    +0.253 C 
ATOM     31  O   UNL     1       3.371   6.933  -4.056  0.00  0.00    -0.468 OA
ENDBRANCH   1  31
BRANCH   2  32
ATOM     32  O   UNL     1       1.364   5.015  -4.362  0.00  0.00    -0.468 OA
ATOM     33  C   UNL     1       0.058   5.394  -4.740  0.00  0.00    +0.253 C 
ENDBRANCH   2  32
TORSDOF 3
ENDMDL
MODEL 5
REMARK VINA RESULT:      -8.8      3.259      6.027
REMARK  Name = 
REMARK  3 active torsions:
REMARK  status: ('A' for Active; 'I' for Inactive)
REMARK    1  A    between atoms: O_2  and  C_3
REMARK    2  A    between atoms: C_12  and  C_14
REMARK    3  A    between atoms: C_31  and  O_32
REMARK                            x       y       z     vdW  Elec       q    Type
REMARK                         _______ _______ _______ _____ _____    ______ ____
ROOT
ATOM      1  C   UNL     1       1.680   5.255  -6.133  0.00  0.00    +0.174 A 
ATOM      2  C   UNL     1       0.445   5.168  -6.719  0.00  0.00    +0.173 A 
ATOM      3  C   UNL     1       0.310   5.359  -8.088  0.00  0.00    +0.044 A 
ATOM      4  C   UNL     1       1.419   5.648  -8.845  0.00  0.00    +0.056 A 
ATOM      5  C   UNL     1       2.662   5.493  -8.268  0.00  0.00    +0.090 A 
ATOM      6  N   UNL     1       3.720   5.519  -9.078  0.00  0.00    -0.213 NA
ATOM      7  C   UNL     1       3.658   5.836 -10.395  0.00  0.00    +0.221 A 
ATOM      8  N   UNL     1       2.492   6.342 -10.845  0.00  0.00    -0.195 NA
ATOM      9  N   UNL     1       4.926   6.209 -10.960  0.00  0.00    -0.275 N 
ATOM     10  C   UNL     1       5.974   5.216 -10.734  0.00  0.00    +0.115 C 
ATOM     11  C   UNL     1       7.357   5.787 -11.019  0.00  0.00    +0.115 C 
ATOM     12  N   UNL     1       7.106   6.846 -12.000  0.00  0.00    -0.273 N 
ATOM     13  C   UNL     1       6.469   6.388 -13.133  0.00  0.00    +0.270 C 
ATOM     14  O   UNL     1       6.268   5.197 -13.478  0.00  0.00    -0.271 OA
ATOM     15  C   UNL     1       6.552   8.027 -11.330  0.00  0.00    +0.115 C 
ATOM     16  C   UNL     1       5.163   7.638 -10.920  0.00  0.00    +0.115 C 
ATOM     17  C   UNL     1       1.355   6.137 -10.134  0.00  0.00    +0.174 A 
ATOM     18  N   UNL     1       0.149   6.821 -10.492  0.00  0.00    -0.107 NA
ATOM     19  C   UNL     1       2.810   5.328  -6.900  0.00  0.00    +0.059 A 
ENDROOT
BRANCH  13  20
ATOM     20  C   UNL     1       6.497   7.269 -14.508  0.00  0.00    +0.284 C 
ATOM     21  O   UNL     1       5.021   6.870 -14.859  0.00  0.00    -0.463 OA
ATOM     22  C   UNL     1       4.735   7.272 -16.171  0.00  0.00    +0.173 A 
ATOM     23  C   UNL     1       5.799   7.387 -17.058  0.00  0.00    +0.172 A 
ATOM     24  C   UNL     1       5.683   8.218 -18.163  0.00  0.00    +0.040 A 
ATOM     25  C   UNL     1       4.669   9.169 -18.140  0.00  0.00    +0.003 A 
ATOM     26  C   UNL     1       3.450   8.768 -17.601  0.00  0.00    +0.003 A 
ATOM     27  O   UNL     1       6.944   6.692 -16.737  0.00  0.00    -0.468 OA
ATOM     28  C   UNL     1       3.557   7.868 -16.544  0.00  0.00    +0.040 A 
ATOM     29  C   UNL     1       7.101   6.042 -15.477  0.00  0.00    +0.258 C 
ENDBRANCH  13  20
BRANCH   1  31
ATOM     30  C   UNL     1       2.144   5.690  -4.284  0.00  0.00    +0.253 C 
ATOM     31  O   UNL     1       1.776   5.644  -4.793  0.00  0.00    -0.468 OA
ENDBRANCH   1  31
BRANCH   2  32
ATOM     32  O   UNL     1      -0.729   5.304  -5.980  0.00  0.00    -0.468 OA
ATOM     33  C   UNL     1      -1.979   5.536  -6.595  0.00  0.00    +0.253 C 
ENDBRANCH   2  32
TORSDOF 3
ENDMDL
MODEL 6
REMARK VINA RESULT:      -8.6      2.980      5.055
REMARK  Name = 
REMARK  3 active torsions:
REMARK  status: ('A' for Active; 'I' for Inactive)
REMARK    1  A    between atoms: O_2  and  C_3
REMARK    2  A    between atoms: C_12  and  C_14
REMARK    3  A    between atoms: C_31  and  O_32
REMARK                            x       y       z     vdW  Elec       q    Type
REMARK                         _______ _______ _______ _____ _____    ______ ____
ROOT
ATOM      1  C   UNL     1      -0.278   6.882   1.107  0.00  0.00    +0.174 A 
ATOM      2  C   UNL     1      -1.598   6.921   0.745  0.00  0.00    +0.173 A 
ATOM      3  C   UNL     1      -1.956   6.804  -0.592  0.00  0.00    +0.044 A 
ATOM      4  C   UNL     1      -0.978   6.664  -1.546  0.00  0.00    +0.056 A 
ATOM      5  C   UNL     1       0.307   6.391  -1.129  0.00  0.00    +0.090 A 
ATOM      6  N   UNL     1       1.182   6.000  -2.055  0.00  0.00    -0.213 NA
ATOM      7  C   UNL     1       0.925   6.000  -3.386  0.00  0.00    +0.221 A 
ATOM      8  N   UNL     1      -0.203   6.619  -3.789  0.00  0.00    -0.195 NA
ATOM      9  N   UNL     1       2.108   5.952  -4.202  0.00  0.00    -0.275 N 
ATOM     10  C   UNL     1       2.998   4.843  -3.865  0.00  0.00    +0.115 C 
ATOM     11  C   UNL     1       4.378   5.024  -4.485  0.00  0.00    +0.115 C 
ATOM     12  N   UNL     1       4.126   5.847  -5.670  0.00  0.00    -0.273 N 
ATOM     13  C   UNL     1       3.218   5.278  -6.537  0.00  0.00    +0.270 C 
ATOM     14  O   UNL     1       2.759   4.109  -6.515  0.00  0.00    -0.271 OA
ATOM     15  C   UNL     1       3.915   7.243  -5.274  0.00  0.00    +0.115 C 
ATOM     16  C   UNL     1       2.585   7.266  -4.585  0.00  0.00    +0.115 C 
ATOM     17  C   UNL     1      -1.202   6.833  -2.898  0.00  0.00    +0.174 A 
ATOM     18  N   UNL     1      -2.322   7.651  -3.254  0.00  0.00    -0.107 NA
ATOM     19  C   UNL     1       0.682   6.529   0.198  0.00  0.00    +0.059 A 
ENDROOT
BRANCH  13  20
ATOM     20  C   UNL     1       3.132   5.780  -8.089  0.00  0.00    +0.284 C 
ATOM     21  O   UNL     1       1.632   5.340  -8.206  0.00  0.00    -0.463 OA
ATOM     22  C   UNL     1       1.237   5.402  -9.550  0.00  0.00    +0.173 A 
ATOM     23  C   UNL     1       2.223   5.263 -10.520  0.00  0.00    +0.172 A 
ATOM     24  C   UNL     1       2.016   5.789 -11.787  0.00  0.00    +0.040 A 
ATOM     25  C   UNL     1       1.010   6.738 -11.926  0.00  0.00    +0.003 A 
ATOM     26  C   UNL     1      -0.160   6.516 -11.206  0.00  0.00    +0.003 A 
ATOM     27  O   UNL     1       3.389   4.645 -10.125  0.00  0.00    -0.468 OA
ATOM     28  C   UNL     1       0.034   5.912  -9.966  0.00  0.00    +0.040 A 
ATOM     29  C   UNL     1       3.650   4.333  -8.758  0.00  0.00    +0.258 C 
ENDBRANCH  13  20
BRANCH   1  31
ATOM     30  C   UNL     1       0.596   7.868   2.552  0.00  0.00    +0.253 C 
ATOM     31  O   UNL     1       0.135   7.549   2.264  0.00  0.00    -0.468 OA
ENDBRANCH   1  31
BRANCH   2  32
ATOM     32  O   UNL     1      -2.571   7.473   1.576  0.00  0.00    -0.468 OA
ATOM     33  C   UNL     1      -3.030   6.810   2.735  0.00  0.00    +0.253 C 
ENDBRANCH   2  32
TORSDOF 3
ENDMDL
MODEL 7
REMARK VINA RESULT:      -8.6      2.499     10.029
REMARK  Name = 
REMARK  3 active torsions:
REMARK  status: ('A' for Active; 'I' for Inactive)
REMARK    1  A    between atoms: O_2  and  C_3
REMARK    2  A    between atoms: C_12  and  C_14
REMARK    3  A    between atoms: C_31  and  O_32
REMARK                            x       y       z     vdW  Elec       q    Type
REMARK                         _______ _______ _______ _____ _____    ______ ____
ROOT
ATOM      1  C   UNL     1       5.346   5.831 -12.869  0.00  0.00    +0.174 A 
ATOM      2  C   UNL     1       4.237   6.200 -13.583  0.00  0.00    +0.173 A 
ATOM      3  C   UNL     1       3.017   6.362 -12.937  0.00  0.00    +0.044 A 
ATOM      4  C   UNL     1       2.930   6.135 -11.586  0.00  0.00    +0.056 A 
ATOM      5  C   UNL     1       4.100   6.000 -10.869  0.00  0.00    +0.090 A 
ATOM      6  N   UNL     1       4.013   6.046  -9.540  0.00  0.00    -0.213 NA
ATOM      7  C   UNL     1       2.840   6.065  -8.859  0.00  0.00    +0.221 A 
ATOM      8  N   UNL     1       1.720   5.823  -9.568  0.00  0.00    -0.195 NA
ATOM      9  N   UNL     1       2.969   5.693  -7.477  0.00  0.00    -0.275 N 
ATOM     10  C   UNL     1       3.977   6.471  -6.760  0.00  0.00    +0.115 C 
ATOM     11  C   UNL     1       4.339   5.828  -5.427  0.00  0.00    +0.115 C 
ATOM     12  N   UNL     1       3.137   5.074  -5.062  0.00  0.00    -0.273 N 
ATOM     13  C   UNL     1       2.010   5.862  -4.989  0.00  0.00    +0.270 C 
ATOM     14  O   UNL     1       1.942   7.117  -5.010  0.00  0.00    -0.271 OA
ATOM     15  C   UNL     1       3.063   3.840  -5.851  0.00  0.00    +0.115 C 
ATOM     16  C   UNL     1       2.749   4.278  -7.249  0.00  0.00    +0.115 C 
ATOM     17  C   UNL     1       1.733   5.983 -10.915  0.00  0.00    +0.174 A 
ATOM     18  N   UNL     1       0.618   5.552 -11.703  0.00  0.00    -0.107 NA
ATOM     19  C   UNL     1       5.318   5.813 -11.502  0.00  0.00    +0.059 A 
ENDROOT
BRANCH  13  20
ATOM     20  C   UNL     1       0.689   5.342  -4.181  0.00  0.00    +0.284 C 
ATOM     21  O   UNL     1       0.048   6.773  -4.195  0.00  0.00    -0.463 OA
ATOM     22  C   UNL     1      -1.064   6.787  -3.342  0.00  0.00    +0.173 A 
ATOM     23  C   UNL     1      -1.086   5.876  -2.292  0.00  0.00    +0.172 A 
ATOM     24  C   UNL     1      -2.300   5.497  -1.739  0.00  0.00    +0.040 A 
ATOM     25  C   UNL     1      -3.446   5.751  -2.485  0.00  0.00    +0.003 A 
ATOM     26  C   UNL     1      -3.488   6.961  -3.170  0.00  0.00    +0.003 A 
ATOM     27  O   UNL     1       0.131   5.360  -1.903  0.00  0.00    -0.468 OA
ATOM     28  C   UNL     1      -2.256   7.390  -3.657  0.00  0.00    +0.040 A 
ATOM     29  C   UNL     1       1.323   5.597  -2.650  0.00  0.00    +0.258 C 
ENDBRANCH  13  20
BRANCH   1  31
ATOM     30  C   UNL     1       6.988   5.036 -13.573  0.00  0.00    +0.253 C 
ATOM     31  O   UNL     1       6.367   5.122 -13.509  0.00  0.00    -0.468 OA
ENDBRANCH   1  31
BRANCH   2  32
ATOM     32  O   UNL     1       4.162   6.029 -14.964  0.00  0.00    -0.468 OA
ATOM     33  C   UNL     1       4.571   7.035 -15.866  0.00  0.00    +0.253 C 
ENDBRANCH   2  32
TORSDOF 3
ENDMDL
MODEL 8
REMARK VINA RESULT:      -8.1      2.059     10.348
REMARK  Name = 
REMARK  3 active torsions:
REMARK  status: ('A' for Active; 'I' for Inactive)
REMARK    1  A    between atoms: O_2  and  C_3
REMARK    2  A    between atoms: C_12  and  C_14
REMARK    3  A    between atoms: C_31  and  O_32
REMARK                            x       y       z     vdW  Elec       q    Type
REMARK                         _______ _______ _______ _____ _____    ______ ____
ROOT
ATOM      1  C   UNL     1       3.345   6.086  -9.783  0.00  0.00    +0.174 A 
ATOM      2  C   UNL     1       2.020   6.288 -10.069  0.00  0.00    +0.173 A 
ATOM      3  C   UNL     1       1.112   6.501  -9.040  0.00  0.00    +0.044 A 
ATOM      4  C   UNL     1       1.548   6.494  -7.738  0.00  0.00    +0.056 A 
ATOM      5  C   UNL     1       2.906   6.526  -7.503  0.00  0.00    +0.090 A 
ATOM      6  N   UNL     1       3.306   6.783  -6.259  0.00  0.00    -0.213 NA
ATOM      7  C   UNL     1       2.469   6.863  -5.196  0.00  0.00    +0.221 A 
ATOM      8  N   UNL     1       1.196   6.463  -5.391  0.00  0.00    -0.195 NA
ATOM      9  N   UNL     1       3.130   6.726  -3.927  0.00  0.00    -0.275 N 
ATOM     10  C   UNL     1       4.247   7.653  -3.754  0.00  0.00    +0.115 C 
ATOM     11  C   UNL     1       5.134   7.250  -2.583  0.00  0.00    +0.115 C 
ATOM     12  N   UNL     1       4.230   6.516  -1.694  0.00  0.00    -0.273 N 
ATOM     13  C   UNL     1       3.135   7.258  -1.309  0.00  0.00    +0.270 C 
ATOM     14  O   UNL     1       2.940   8.488  -1.472  0.00  0.00    -0.271 OA
ATOM     15  C   UNL     1       3.996   5.168  -2.222  0.00  0.00    +0.115 C 
ATOM     16  C   UNL     1       3.150   5.360  -3.445  0.00  0.00    +0.115 C 
ATOM     17  C   UNL     1       0.700   6.402  -6.652  0.00  0.00    +0.174 A 
ATOM     18  N   UNL     1      -0.577   5.803  -6.896  0.00  0.00    -0.107 NA
ATOM     19  C   UNL     1       3.821   6.289  -8.517  0.00  0.00    +0.059 A 
ENDROOT
BRANCH  13  20
ATOM     20  C   UNL     1       2.260   6.820  -0.000  0.00  0.00    +0.284 C 
ATOM     21  O   UNL     1       1.133   7.857  -0.338  0.00  0.00    -0.463 OA
ATOM     22  C   UNL     1       0.253   7.952   0.749  0.00  0.00    +0.173 A 
ATOM     23  C   UNL     1       0.750   7.644   2.011  0.00  0.00    +0.172 A 
ATOM     24  C   UNL     1      -0.123   7.240   3.011  0.00  0.00    +0.040 A 
ATOM     25  C   UNL     1      -1.386   6.810   2.617  0.00  0.00    +0.003 A 
ATOM     26  C   UNL     1      -1.993   7.520   1.586  0.00  0.00    +0.003 A 
ATOM     27  O   UNL     1       2.117   7.710   2.165  0.00  0.00    -0.468 OA
ATOM     28  C   UNL     1      -1.111   8.000   0.621  0.00  0.00    +0.040 A 
ATOM     29  C   UNL     1       2.992   7.899   1.054  0.00  0.00    +0.258 C 
ENDBRANCH  13  20
BRANCH   1  31
ATOM     30  C   UNL     1       4.672   5.278 -10.971  0.00  0.00    +0.253 C 
ATOM     31  O   UNL     1       4.126   5.326 -10.658  0.00  0.00    -0.468 OA
ENDBRANCH   1  31
BRANCH   2  32
ATOM     32  O   UNL     1       1.464   5.892 -11.284  0.00  0.00    -0.468 OA
ATOM     33  C   UNL     1       0.399   4.967 -11.354  0.00  0.00    +0.253 C 
ENDBRANCH   2  32
TORSDOF 3
ENDMDL
MODEL 9
REMARK VINA RESULT:      -8.0      2.046      9.869
REMARK  Name = 
REMARK  3 active torsions:
REMARK  status: ('A' for Active; 'I' for Inactive)
REMARK    1  A    between atoms: O_2  and  C_3
REMARK    2  A    between atoms: C_12  and  C_14
REMARK    3  A    between atoms: C_31  and  O_32
REMARK                            x       y       z     vdW  Elec       q    Type
REMARK                         _______ _______ _______ _____ _____    ______ ____
ROOT
ATOM      1  C   UNL     1       5.071   5.800 -11.891  0.00  0.00    +0.174 A 
ATOM      2  C   UNL     1       3.881   6.146 -12.475  0.00  0.00    +0.173 A 
ATOM      3  C   UNL     1       2.752   6.343 -11.689  0.00  0.00    +0.044 A 
ATOM      4  C   UNL     1       2.835   6.174 -10.329  0.00  0.00    +0.056 A 
ATOM      5  C   UNL     1       4.086   6.062  -9.760  0.00  0.00    +0.090 A 
ATOM      6  N   UNL     1       4.166   6.165  -8.433  0.00  0.00    -0.213 NA
ATOM      7  C   UNL     1       3.089   6.220  -7.612  0.00  0.00    +0.221 A 
ATOM      8  N   UNL     1       1.887   5.955  -8.164  0.00  0.00    -0.195 NA
ATOM      9  N   UNL     1       3.390   5.905  -6.242  0.00  0.00    -0.275 N 
ATOM     10  C   UNL     1       4.480   6.708  -5.691  0.00  0.00    +0.115 C 
ATOM     11  C   UNL     1       5.006   6.119  -4.388  0.00  0.00    +0.115 C 
ATOM     12  N   UNL     1       3.859   5.388  -3.844  0.00  0.00    -0.273 N 
ATOM     13  C   UNL     1       2.750   6.186  -3.664  0.00  0.00    +0.270 C 
ATOM     14  O   UNL     1       2.682   7.439  -3.730  0.00  0.00    -0.271 OA
ATOM     15  C   UNL     1       3.685   4.123  -4.563  0.00  0.00    +0.115 C 
ATOM     16  C   UNL     1       3.198   4.503  -5.929  0.00  0.00    +0.115 C 
ATOM     17  C   UNL     1       1.732   6.057  -9.507  0.00  0.00    +0.174 A 
ATOM     18  N   UNL     1       0.526   5.600 -10.130  0.00  0.00    -0.107 NA
ATOM     19  C   UNL     1       5.215   5.840 -10.531  0.00  0.00    +0.059 A 
ENDROOT
BRANCH  13  20
ATOM     20  C   UNL     1       1.541   5.708  -2.674  0.00  0.00    +0.284 C 
ATOM     21  O   UNL     1       0.546   6.749  -3.297  0.00  0.00    -0.463 OA
ATOM     22  C   UNL     1      -0.611   6.809  -2.508  0.00  0.00    +0.173 A 
ATOM     23  C   UNL     1      -0.495   6.468  -1.165  0.00  0.00    +0.172 A 
ATOM     24  C   UNL     1      -1.614   6.033  -0.469  0.00  0.00    +0.040 A 
ATOM     25  C   UNL     1      -2.704   5.608  -1.221  0.00  0.00    +0.003 A 
ATOM     26  C   UNL     1      -2.997   6.342  -2.365  0.00  0.00    +0.003 A 
ATOM     27  O   UNL     1       0.769   6.537  -0.621  0.00  0.00    -0.468 OA
ATOM     28  C   UNL     1      -1.881   6.853  -3.023  0.00  0.00    +0.040 A 
ATOM     29  C   UNL     1       1.924   6.761  -1.427  0.00  0.00    +0.258 C 
ENDBRANCH  13  20
BRANCH   1  31
ATOM     30  C   UNL     1       6.607   4.989 -12.789  0.00  0.00    +0.253 C 
ATOM     31  O   UNL     1       6.003   5.059 -12.623  0.00  0.00    -0.468 OA
ENDBRANCH   1  31
BRANCH   2  32
ATOM     32  O   UNL     1       3.633   5.917 -13.827  0.00  0.00    -0.468 OA
ATOM     33  C   UNL     1       2.355   6.103 -14.397  0.00  0.00    +0.253 C 
ENDBRANCH   2  32
TORSDOF 3
ENDMDL
