MODEL 1
REMARK VINA RESULT:      -9.3      0.000      0.000
REMARK  Name = 
REMARK  12 active torsions:
REMARK  status: ('A' for Active; 'I' for Inactive)
REMARK    1  A    between atoms: C_2  and  C_3
REMARK    2  A    between atoms: C_3  and  C_4
REMARK    3  A    between atoms: C_4  and  C_5
REMARK    4  A    between atoms: C_5  and  O_7
REMARK    5  A    between atoms: O_7  and  C_8
REMARK    6  A    between atoms: C_8  and  C_9
REMARK    7  A    between atoms: C_9  and  C_11
REMARK    8  A    between atoms: C_22  and  O_23
REMARK    9  A    between atoms: O_23  and  C_24
REMARK   10  A    between atoms: C_26  and  N_27
REMARK   11  A    between atoms: C_28  and  C_30
REMARK   12  A    between atoms: C_43  and  O_44
REMARK                            x       y       z     vdW  Elec       q    Type
REMARK                         _______ _______ _______ _____ _____    ______ ____
ROOT
ATOM      1  C   UNL     1       0.142   5.385  -5.916  0.00  0.00    +0.188 C 
ATOM      2  C   UNL     1       1.253   4.517  -6.175  0.00  0.00    +0.072 C 
ATOM      3  C   UNL     1       2.681   5.300  -5.871  0.00  0.00    +0.146 C 
ATOM      4  C   UNL     1       2.627   6.043  -7.304  0.00  0.00    +0.043 A 
ATOM      5  C   UNL     1       1.425   6.556  -7.681  0.00  0.00    +0.021 A 
ATOM      6  C   UNL     1       1.167   6.682  -9.028  0.00  0.00    +0.195 A 
ATOM      7  C   UNL     1       2.244   6.773  -9.900  0.00  0.00    +0.084 A 
ATOM      8  C   UNL     1       2.041   6.460 -11.325  0.00  0.00    +0.199 C 
ATOM      9  O   UNL     1       0.926   5.948 -11.657  0.00  0.00    -0.286 OA
ATOM     10  C   UNL     1       3.253   6.157 -12.111  0.00  0.00    +0.045 A 
ATOM     11  C   UNL     1       4.494   6.598 -11.656  0.00  0.00    +0.076 A 
ATOM     12  C   UNL     1       5.624   6.249 -12.395  0.00  0.00    +0.142 A 
ATOM     13  C   UNL     1       5.608   5.209 -13.319  0.00  0.00    +0.037 A 
ATOM     14  C   UNL     1       4.388   4.597 -13.585  0.00  0.00    +0.003 A 
ATOM     15  C   UNL     1       4.638   6.900 -10.217  0.00  0.00    +0.202 C 
ATOM     16  O   UNL     1       5.763   6.773  -9.638  0.00  0.00    -0.286 OA
ATOM     17  C   UNL     1       3.222   5.142 -13.067  0.00  0.00    +0.003 A 
ATOM     18  C   UNL     1       3.504   6.659  -9.322  0.00  0.00    +0.084 A 
ATOM     19  O   UNL     1      -0.153   6.508  -9.448  0.00  0.00    -0.287 OA
ATOM     20  C   UNL     1       3.664   5.953  -8.130  0.00  0.00    +0.197 A 
ATOM     21  O   UNL     1       4.765   5.165  -7.919  0.00  0.00    -0.287 OA
ATOM     22  C   UNL     1       0.465   6.735  -6.604  0.00  0.00    +0.067 C 
ATOM     23  O   UNL     1       0.015   5.621  -4.529  0.00  0.00    -0.218 OA
ENDROOT
BRANCH   1  24
ATOM     24  C   UNL     1      -1.218   5.057  -6.316  0.00  0.00    +0.222 C 
ATOM     25  O   UNL     1      -1.217   4.633  -7.491  0.00  0.00    -0.290 OA
BRANCH  24  26
ATOM     26  C   UNL     1      -2.511   5.761  -5.997  0.00  0.00    +0.275 C 
BRANCH  26  27
ATOM     27  O   UNL     1      -3.150   5.190  -4.844  0.00  0.00    -0.440 OA
BRANCH  27  28
ATOM     28  C   UNL     1      -2.977   5.511  -3.543  0.00  0.00    +0.317 C 
ATOM     29  O   UNL     1      -2.809   4.543  -2.758  0.00  0.00    -0.250 OA
BRANCH  28  30
ATOM     30  C   UNL     1      -3.303   6.859  -2.987  0.00  0.00    +0.110 C 
BRANCH  30  31
ATOM     31  C   UNL     1      -2.108   7.580  -2.390  0.00  0.00    +0.012 C 
BRANCH  31  33
ATOM     32  C   UNL     1      -1.703   7.609  -0.368  0.00  0.00    +0.000 C 
ATOM     33  C   UNL     1      -2.131   7.329  -0.887  0.00  0.00    +0.001 C 
ENDBRANCH  31  33
ENDBRANCH  30  31
ENDBRANCH  28  30
ENDBRANCH  27  28
ENDBRANCH  26  27
ENDBRANCH  24  26
ENDBRANCH   1  24
BRANCH  12  34
ATOM     34  O   UNL     1       6.874   6.454 -11.800  0.00  0.00    -0.471 OA
ATOM     35  C   UNL     1       8.069   5.865 -12.221  0.00  0.00    +0.252 C 
ENDBRANCH  12  34
BRANCH   3  36
ATOM     36  O   UNL     1       2.084   6.505  -5.199  0.00  0.00    -0.328 OA
BRANCH  36  37
ATOM     37  C   UNL     1       2.670   6.577  -3.793  0.00  0.00    +0.237 C 
ATOM     38  O   UNL     1       3.430   5.252  -3.805  0.00  0.00    -0.330 OA
ATOM     39  C   UNL     1       4.744   5.622  -4.418  0.00  0.00    +0.150 C 
ATOM     40  C   UNL     1       5.308   4.099  -4.214  0.00  0.00    +0.035 C 
ATOM     41  C   UNL     1       5.531   6.166  -2.990  0.00  0.00    +0.199 C 
ATOM     42  O   UNL     1       4.611   5.542  -1.984  0.00  0.00    -0.219 OA
ATOM     43  C   UNL     1       4.850   7.746  -3.053  0.00  0.00    +0.133 C 
ATOM     44  C   UNL     1       3.910   7.522  -4.359  0.00  0.00    +0.086 C 
BRANCH  43  45
ATOM     45  N   UNL     1       3.746   7.550  -1.961  0.00  0.00    -0.197 NA
ATOM     46  C   UNL     1       3.725   8.457  -0.881  0.00  0.00    +0.337 C 
ATOM     47  O   UNL     1       3.533   9.614  -1.327  0.00  0.00    -0.264 OA
BRANCH  46  48
ATOM     48  C   UNL     1       4.079   8.068   0.456  0.00  0.00    +0.471 C 
ATOM     49  F   UNL     1       2.958   7.556   1.107  0.00  0.00    -0.162 F 
ATOM     50  F   UNL     1       5.058   7.058   0.511  0.00  0.00    -0.162 F 
ATOM     51  F   UNL     1       4.524   9.022   1.312  0.00  0.00    -0.162 F 
ENDBRANCH  46  48
ENDBRANCH  43  45
ENDBRANCH  36  37
ENDBRANCH   3  36
TORSDOF 12
ENDMDL
MODEL 2
REMARK VINA RESULT:      -9.1      2.165      5.381
REMARK  Name = 
REMARK  12 active torsions:
REMARK  status: ('A' for Active; 'I' for Inactive)
REMARK    1  A    between atoms: C_2  and  C_3
REMARK    2  A    between atoms: C_3  and  C_4
REMARK    3  A    between atoms: C_4  and  C_5
REMARK    4  A    between atoms: C_5  and  O_7
REMARK    5  A    between atoms: O_7  and  C_8
REMARK    6  A    between atoms: C_8  and  C_9
REMARK    7  A    between atoms: C_9  and  C_11
REMARK    8  A    between atoms: C_22  and  O_23
REMARK    9  A    between atoms: O_23  and  C_24
REMARK   10  A    between atoms: C_26  and  N_27
REMARK   11  A    between atoms: C_28  and  C_30
REMARK   12  A    between atoms: C_43  and  O_44
REMARK                            x       y       z     vdW  Elec       q    Type
REMARK                         _______ _______ _______ _____ _____    ______ ____
ROOT
ATOM      1  C   UNL     1       3.388   6.618  -5.350  0.00  0.00    +0.188 C 
ATOM      2  C   UNL     1       2.906   7.622  -6.253  0.00  0.00    +0.072 C 
ATOM      3  C   UNL     1       1.416   7.202  -6.843  0.00  0.00    +0.146 C 
ATOM      4  C   UNL     1       2.082   6.211  -7.931  0.00  0.00    +0.043 A 
ATOM      5  C   UNL     1       3.094   5.413  -7.494  0.00  0.00    +0.021 A 
ATOM      6  C   UNL     1       4.032   4.994  -8.410  0.00  0.00    +0.195 A 
ATOM      7  C   UNL     1       3.673   4.954  -9.751  0.00  0.00    +0.084 A 
ATOM      8  C   UNL     1       4.730   4.953 -10.777  0.00  0.00    +0.199 C 
ATOM      9  O   UNL     1       5.920   5.169 -10.387  0.00  0.00    -0.286 OA
ATOM     10  C   UNL     1       4.321   5.336 -12.143  0.00  0.00    +0.045 A 
ATOM     11  C   UNL     1       2.981   5.236 -12.511  0.00  0.00    +0.076 A 
ATOM     12  C   UNL     1       2.621   5.654 -13.791  0.00  0.00    +0.142 A 
ATOM     13  C   UNL     1       3.440   6.483 -14.554  0.00  0.00    +0.037 A 
ATOM     14  C   UNL     1       4.700   6.787 -14.052  0.00  0.00    +0.003 A 
ATOM     15  C   UNL     1       1.965   5.238 -11.439  0.00  0.00    +0.202 C 
ATOM     16  O   UNL     1       0.795   5.685 -11.657  0.00  0.00    -0.286 OA
ATOM     17  C   UNL     1       5.163   6.131 -12.920  0.00  0.00    +0.003 A 
ATOM     18  C   UNL     1       2.395   5.415 -10.050  0.00  0.00    +0.084 A 
ATOM     19  O   UNL     1       5.342   4.828  -7.958  0.00  0.00    -0.287 OA
ATOM     20  C   UNL     1       1.775   6.346  -9.218  0.00  0.00    +0.197 A 
ATOM     21  O   UNL     1       1.010   7.358  -9.736  0.00  0.00    -0.287 OA
ATOM     22  C   UNL     1       3.173   5.253  -6.051  0.00  0.00    +0.067 C 
ATOM     23  O   UNL     1       2.629   6.623  -4.159  0.00  0.00    -0.218 OA
ENDROOT
BRANCH   1  24
ATOM     24  C   UNL     1       4.759   6.597  -4.863  0.00  0.00    +0.222 C 
ATOM     25  O   UNL     1       5.078   5.426  -4.566  0.00  0.00    -0.290 OA
BRANCH  24  26
ATOM     26  C   UNL     1       5.488   7.591  -3.998  0.00  0.00    +0.275 C 
BRANCH  26  27
ATOM     27  O   UNL     1       4.576   8.364  -3.202  0.00  0.00    -0.440 OA
BRANCH  27  28
ATOM     28  C   UNL     1       4.265   8.213  -1.896  0.00  0.00    +0.317 C 
ATOM     29  O   UNL     1       3.626   9.160  -1.372  0.00  0.00    -0.250 OA
BRANCH  28  30
ATOM     30  C   UNL     1       4.910   7.189  -1.019  0.00  0.00    +0.110 C 
BRANCH  30  31
ATOM     31  C   UNL     1       3.929   6.223  -0.381  0.00  0.00    +0.012 C 
BRANCH  31  33
ATOM     32  C   UNL     1       3.818   4.322  -1.169  0.00  0.00    +0.000 C 
ATOM     33  C   UNL     1       3.787   5.033  -1.321  0.00  0.00    +0.001 C 
ENDBRANCH  31  33
ENDBRANCH  30  31
ENDBRANCH  28  30
ENDBRANCH  27  28
ENDBRANCH  26  27
ENDBRANCH  24  26
ENDBRANCH   1  24
BRANCH  12  34
ATOM     34  O   UNL     1       1.257   5.809 -14.062  0.00  0.00    -0.471 OA
ATOM     35  C   UNL     1       0.721   6.681 -15.013  0.00  0.00    +0.252 C 
ENDBRANCH  12  34
BRANCH   3  36
ATOM     36  O   UNL     1       1.174   6.048  -5.909  0.00  0.00    -0.328 OA
BRANCH  36  37
ATOM     37  C   UNL     1       0.191   6.526  -4.846  0.00  0.00    +0.237 C 
ATOM     38  O   UNL     1      -1.018   6.753  -5.752  0.00  0.00    -0.330 OA
ATOM     39  C   UNL     1      -1.662   5.402  -5.801  0.00  0.00    +0.150 C 
ATOM     40  C   UNL     1      -2.888   5.983  -6.717  0.00  0.00    +0.035 C 
ATOM     41  C   UNL     1      -2.597   5.529  -4.365  0.00  0.00    +0.199 C 
ATOM     42  O   UNL     1      -2.538   7.018  -4.198  0.00  0.00    -0.219 OA
ATOM     43  C   UNL     1      -1.306   5.077  -3.321  0.00  0.00    +0.133 C 
ATOM     44  C   UNL     1      -0.149   4.950  -4.454  0.00  0.00    +0.086 C 
BRANCH  43  45
ATOM     45  N   UNL     1      -0.937   6.506  -2.799  0.00  0.00    -0.197 NA
ATOM     46  C   UNL     1      -0.644   6.647  -1.427  0.00  0.00    +0.337 C 
ATOM     47  O   UNL     1       0.353   5.938  -1.151  0.00  0.00    -0.264 OA
BRANCH  46  48
ATOM     48  C   UNL     1      -1.517   7.343  -0.522  0.00  0.00    +0.471 C 
ATOM     49  F   UNL     1      -2.808   7.373  -1.046  0.00  0.00    -0.162 F 
ATOM     50  F   UNL     1      -1.622   6.736   0.742  0.00  0.00    -0.162 F 
ATOM     51  F   UNL     1      -1.263   8.649  -0.255  0.00  0.00    -0.162 F 
ENDBRANCH  46  48
ENDBRANCH  43  45
ENDBRANCH  36  37
ENDBRANCH   3  36
TORSDOF 12
ENDMDL
MODEL 3
REMARK VINA RESULT:      -9.0      2.341      5.491
REMARK  Name = 
REMARK  12 active torsions:
REMARK  status: ('A' for Active; 'I' for Inactive)
REMARK    1  A    between atoms: C_2  and  C_3
REMARK    2  A    between atoms: C_3  and  C_4
REMARK    3  A    between atoms: C_4  and  C_5
REMARK    4  A    between atoms: C_5  and  O_7
REMARK    5  A    between atoms: O_7  and  C_8
REMARK    6  A    between atoms: C_8  and  C_9
REMARK    7  A    between atoms: C_9  and  C_11
REMARK    8  A    between atoms: C_22  and  O_23
REMARK    9  A    between atoms: O_23  and  C_24
REMARK   10  A    between atoms: C_26  and  N_27
REMARK   11  A    between atoms: C_28  and  C_30
REMARK   12  A    between atoms: C_43  and  O_44
REMARK                            x       y       z     vdW  Elec       q    Type
REMARK                         _______ _______ _______ _____ _____    ______ ____
ROOT
ATOM      1  C   UNL     1       3.241   6.504  -3.878  0.00  0.00    +0.188 C 
ATOM      2  C   UNL     1       2.997   7.578  -4.796  0.00  0.00    +0.072 C 
ATOM      3  C   UNL     1       1.609   7.298  -5.658  0.00  0.00    +0.146 C 
ATOM      4  C   UNL     1       2.387   6.303  -6.665  0.00  0.00    +0.043 A 
ATOM      5  C   UNL     1       3.247   5.412  -6.102  0.00  0.00    +0.021 A 
ATOM      6  C   UNL     1       4.302   4.958  -6.862  0.00  0.00    +0.195 A 
ATOM      7  C   UNL     1       4.183   5.000  -8.245  0.00  0.00    +0.084 A 
ATOM      8  C   UNL     1       5.402   4.959  -9.070  0.00  0.00    +0.199 C 
ATOM      9  O   UNL     1       6.517   5.065  -8.470  0.00  0.00    -0.286 OA
ATOM     10  C   UNL     1       5.269   5.426 -10.464  0.00  0.00    +0.045 A 
ATOM     11  C   UNL     1       4.012   5.445 -11.064  0.00  0.00    +0.076 A 
ATOM     12  C   UNL     1       3.915   5.941 -12.364  0.00  0.00    +0.142 A 
ATOM     13  C   UNL     1       4.910   6.734 -12.927  0.00  0.00    +0.037 A 
ATOM     14  C   UNL     1       6.081   6.919 -12.199  0.00  0.00    +0.003 A 
ATOM     15  C   UNL     1       2.825   5.483 -10.187  0.00  0.00    +0.202 C 
ATOM     16  O   UNL     1       1.746   6.028 -10.580  0.00  0.00    -0.286 OA
ATOM     17  C   UNL     1       6.288   6.184 -11.040  0.00  0.00    +0.003 A 
ATOM     18  C   UNL     1       3.014   5.571  -8.737  0.00  0.00    +0.084 A 
ATOM     19  O   UNL     1       5.496   4.673  -6.199  0.00  0.00    -0.287 OA
ATOM     20  C   UNL     1       2.322   6.513  -7.976  0.00  0.00    +0.197 A 
ATOM     21  O   UNL     1       1.734   7.602  -8.565  0.00  0.00    -0.287 OA
ATOM     22  C   UNL     1       3.059   5.189  -4.677  0.00  0.00    +0.067 C 
ATOM     23  O   UNL     1       2.285   6.520  -2.838  0.00  0.00    -0.218 OA
ENDROOT
BRANCH   1  24
ATOM     24  C   UNL     1       4.499   6.356  -3.162  0.00  0.00    +0.222 C 
ATOM     25  O   UNL     1       4.657   5.161  -2.838  0.00  0.00    -0.290 OA
BRANCH  24  26
ATOM     26  C   UNL     1       5.152   7.277  -2.166  0.00  0.00    +0.275 C 
BRANCH  26  27
ATOM     27  O   UNL     1       4.901   6.855  -0.816  0.00  0.00    -0.440 OA
BRANCH  27  28
ATOM     28  C   UNL     1       4.175   7.479   0.138  0.00  0.00    +0.317 C 
ATOM     29  O   UNL     1       4.045   6.857   1.222  0.00  0.00    -0.250 OA
BRANCH  28  30
ATOM     30  C   UNL     1       3.288   8.647  -0.148  0.00  0.00    +0.110 C 
BRANCH  30  31
ATOM     31  C   UNL     1       3.737   9.934   0.520  0.00  0.00    +0.012 C 
BRANCH  31  33
ATOM     32  C   UNL     1       3.681  11.690  -0.560  0.00  0.00    +0.000 C 
ATOM     33  C   UNL     1       3.314  11.086  -0.384  0.00  0.00    +0.001 C 
ENDBRANCH  31  33
ENDBRANCH  30  31
ENDBRANCH  28  30
ENDBRANCH  27  28
ENDBRANCH  26  27
ENDBRANCH  24  26
ENDBRANCH   1  24
BRANCH  12  34
ATOM     34  O   UNL     1       2.634   6.213 -12.858  0.00  0.00    -0.471 OA
ATOM     35  C   UNL     1       2.119   5.728 -14.062  0.00  0.00    +0.252 C 
ENDBRANCH  12  34
BRANCH   3  36
ATOM     36  O   UNL     1       1.126   6.130  -4.843  0.00  0.00    -0.328 OA
BRANCH  36  37
ATOM     37  C   UNL     1      -0.007   6.635  -3.956  0.00  0.00    +0.237 C 
ATOM     38  O   UNL     1      -1.051   6.869  -5.047  0.00  0.00    -0.330 OA
ATOM     39  C   UNL     1      -1.700   5.527  -5.186  0.00  0.00    +0.150 C 
ATOM     40  C   UNL     1      -2.754   6.114  -6.293  0.00  0.00    +0.035 C 
ATOM     41  C   UNL     1      -2.852   5.686  -3.920  0.00  0.00    +0.199 C 
ATOM     42  O   UNL     1      -2.796   7.176  -3.760  0.00  0.00    -0.219 OA
ATOM     43  C   UNL     1      -1.753   5.228  -2.677  0.00  0.00    +0.133 C 
ATOM     44  C   UNL     1      -0.431   5.070  -3.607  0.00  0.00    +0.086 C 
BRANCH  43  45
ATOM     45  N   UNL     1      -1.449   6.658  -2.117  0.00  0.00    -0.197 NA
ATOM     46  C   UNL     1      -1.153   6.774  -0.744  0.00  0.00    +0.337 C 
ATOM     47  O   UNL     1      -0.120   6.107  -0.495  0.00  0.00    -0.264 OA
BRANCH  46  48
ATOM     48  C   UNL     1      -2.051   7.402   0.186  0.00  0.00    +0.471 C 
ATOM     49  F   UNL     1      -3.355   7.329  -0.300  0.00  0.00    -0.162 F 
ATOM     50  F   UNL     1      -2.072   6.790   1.453  0.00  0.00    -0.162 F 
ATOM     51  F   UNL     1      -1.892   8.723   0.447  0.00  0.00    -0.162 F 
ENDBRANCH  46  48
ENDBRANCH  43  45
ENDBRANCH  36  37
ENDBRANCH   3  36
TORSDOF 12
ENDMDL
MODEL 4
REMARK VINA RESULT:      -8.8      4.870      9.749
REMARK  Name = 
REMARK  12 active torsions:
REMARK  status: ('A' for Active; 'I' for Inactive)
REMARK    1  A    between atoms: C_2  and  C_3
REMARK    2  A    between atoms: C_3  and  C_4
REMARK    3  A    between atoms: C_4  and  C_5
REMARK    4  A    between atoms: C_5  and  O_7
REMARK    5  A    between atoms: O_7  and  C_8
REMARK    6  A    between atoms: C_8  and  C_9
REMARK    7  A    between atoms: C_9  and  C_11
REMARK    8  A    between atoms: C_22  and  O_23
REMARK    9  A    between atoms: O_23  and  C_24
REMARK   10  A    between atoms: C_26  and  N_27
REMARK   11  A    between atoms: C_28  and  C_30
REMARK   12  A    between atoms: C_43  and  O_44
REMARK                            x       y       z     vdW  Elec       q    Type
REMARK                         _______ _______ _______ _____ _____    ______ ____
ROOT
ATOM      1  C   UNL     1       1.446   6.542 -10.227  0.00  0.00    +0.188 C 
ATOM      2  C   UNL     1       1.964   7.558  -9.358  0.00  0.00    +0.072 C 
ATOM      3  C   UNL     1       3.476   7.143  -8.820  0.00  0.00    +0.146 C 
ATOM      4  C   UNL     1       2.852   6.169  -7.693  0.00  0.00    +0.043 A 
ATOM      5  C   UNL     1       1.823   5.366  -8.079  0.00  0.00    +0.021 A 
ATOM      6  C   UNL     1       0.921   4.961  -7.122  0.00  0.00    +0.195 A 
ATOM      7  C   UNL     1       1.333   4.940  -5.796  0.00  0.00    +0.084 A 
ATOM      8  C   UNL     1       0.317   4.955  -4.729  0.00  0.00    +0.199 C 
ATOM      9  O   UNL     1      -0.888   5.167  -5.074  0.00  0.00    -0.286 OA
ATOM     10  C   UNL     1       0.780   5.356  -3.386  0.00  0.00    +0.045 A 
ATOM     11  C   UNL     1       2.132   5.259  -3.069  0.00  0.00    +0.076 A 
ATOM     12  C   UNL     1       2.542   5.695  -1.809  0.00  0.00    +0.142 A 
ATOM     13  C   UNL     1       1.755   6.535  -1.027  0.00  0.00    +0.037 A 
ATOM     14  C   UNL     1       0.476   6.834  -1.483  0.00  0.00    +0.003 A 
ATOM     15  C   UNL     1       3.106   5.244  -4.179  0.00  0.00    +0.202 C 
ATOM     16  O   UNL     1       4.284   5.693  -4.013  0.00  0.00    -0.286 OA
ATOM     17  C   UNL     1      -0.031   6.163  -2.587  0.00  0.00    +0.003 A 
ATOM     18  C   UNL     1       2.621   5.403  -5.553  0.00  0.00    +0.084 A 
ATOM     19  O   UNL     1      -0.406   4.791  -7.519  0.00  0.00    -0.287 OA
ATOM     20  C   UNL     1       3.209   6.322  -6.422  0.00  0.00    +0.197 A 
ATOM     21  O   UNL     1       3.995   7.340  -5.948  0.00  0.00    -0.287 OA
ATOM     22  C   UNL     1       1.687   5.187  -9.516  0.00  0.00    +0.067 C 
ATOM     23  O   UNL     1       2.158   6.529 -11.447  0.00  0.00    -0.218 OA
ENDROOT
BRANCH   1  24
ATOM     24  C   UNL     1       0.057   6.515 -10.660  0.00  0.00    +0.222 C 
ATOM     25  O   UNL     1      -0.291   5.335 -10.872  0.00  0.00    -0.290 OA
BRANCH  24  26
ATOM     26  C   UNL     1      -0.690   7.469 -11.555  0.00  0.00    +0.275 C 
BRANCH  26  27
ATOM     27  O   UNL     1      -0.573   7.093 -12.937  0.00  0.00    -0.440 OA
BRANCH  27  28
ATOM     28  C   UNL     1       0.347   7.495 -13.841  0.00  0.00    +0.317 C 
ATOM     29  O   UNL     1       0.667   8.709 -13.795  0.00  0.00    -0.250 OA
BRANCH  28  30
ATOM     30  C   UNL     1       0.717   6.684 -15.040  0.00  0.00    +0.110 C 
BRANCH  30  31
ATOM     31  C   UNL     1       0.363   7.345 -16.360  0.00  0.00    +0.012 C 
BRANCH  31  33
ATOM     32  C   UNL     1      -1.511   7.086 -17.180  0.00  0.00    +0.000 C 
ATOM     33  C   UNL     1      -1.138   7.181 -16.562  0.00  0.00    +0.001 C 
ENDBRANCH  31  33
ENDBRANCH  30  31
ENDBRANCH  28  30
ENDBRANCH  27  28
ENDBRANCH  26  27
ENDBRANCH  24  26
ENDBRANCH   1  24
BRANCH  12  34
ATOM     34  O   UNL     1       3.917   5.852  -1.595  0.00  0.00    -0.471 OA
ATOM     35  C   UNL     1       4.501   6.241  -0.387  0.00  0.00    +0.252 C 
ENDBRANCH  12  34
BRANCH   3  36
ATOM     36  O   UNL     1       3.680   5.976  -9.747  0.00  0.00    -0.328 OA
BRANCH  36  37
ATOM     37  C   UNL     1       4.496   6.478 -10.932  0.00  0.00    +0.237 C 
ATOM     38  O   UNL     1       5.758   6.885 -10.173  0.00  0.00    -0.330 OA
ATOM     39  C   UNL     1       6.543   5.612 -10.117  0.00  0.00    +0.150 C 
ATOM     40  C   UNL     1       7.786   6.372  -9.369  0.00  0.00    +0.035 C 
ATOM     41  C   UNL     1       7.314   5.736 -11.648  0.00  0.00    +0.199 C 
ATOM     42  O   UNL     1       7.080   7.197 -11.892  0.00  0.00    -0.219 OA
ATOM     43  C   UNL     1       5.981   5.088 -12.524  0.00  0.00    +0.133 C 
ATOM     44  C   UNL     1       4.962   4.922 -11.270  0.00  0.00    +0.086 C 
BRANCH  43  45
ATOM     45  N   UNL     1       5.412   6.435 -13.083  0.00  0.00    -0.197 NA
ATOM     46  C   UNL     1       4.947   6.447 -14.414  0.00  0.00    +0.337 C 
ATOM     47  O   UNL     1       3.999   5.631 -14.518  0.00  0.00    -0.264 OA
BRANCH  46  48
ATOM     48  C   UNL     1       5.632   7.152 -15.462  0.00  0.00    +0.471 C 
ATOM     49  F   UNL     1       6.647   7.934 -14.914  0.00  0.00    -0.162 F 
ATOM     50  F   UNL     1       6.253   6.307 -16.400  0.00  0.00    -0.162 F 
ATOM     51  F   UNL     1       4.931   8.039 -16.211  0.00  0.00    -0.162 F 
ENDBRANCH  46  48
ENDBRANCH  43  45
ENDBRANCH  36  37
ENDBRANCH   3  36
TORSDOF 12
ENDMDL
MODEL 5
REMARK VINA RESULT:      -8.5      4.939      9.725
REMARK  Name = 
REMARK  12 active torsions:
REMARK  status: ('A' for Active; 'I' for Inactive)
REMARK    1  A    between atoms: C_2  and  C_3
REMARK    2  A    between atoms: C_3  and  C_4
REMARK    3  A    between atoms: C_4  and  C_5
REMARK    4  A    between atoms: C_5  and  O_7
REMARK    5  A    between atoms: O_7  and  C_8
REMARK    6  A    between atoms: C_8  and  C_9
REMARK    7  A    between atoms: C_9  and  C_11
REMARK    8  A    between atoms: C_22  and  O_23
REMARK    9  A    between atoms: O_23  and  C_24
REMARK   10  A    between atoms: C_26  and  N_27
REMARK   11  A    between atoms: C_28  and  C_30
REMARK   12  A    between atoms: C_43  and  O_44
REMARK                            x       y       z     vdW  Elec       q    Type
REMARK                         _______ _______ _______ _____ _____    ______ ____
ROOT
ATOM      1  C   UNL     1       1.404   6.559 -10.503  0.00  0.00    +0.188 C 
ATOM      2  C   UNL     1       1.885   7.573  -9.611  0.00  0.00    +0.072 C 
ATOM      3  C   UNL     1       3.379   7.164  -9.022  0.00  0.00    +0.146 C 
ATOM      4  C   UNL     1       2.721   6.179  -7.924  0.00  0.00    +0.043 A 
ATOM      5  C   UNL     1       1.711   5.373  -8.350  0.00  0.00    +0.021 A 
ATOM      6  C   UNL     1       0.778   4.957  -7.428  0.00  0.00    +0.195 A 
ATOM      7  C   UNL     1       1.143   4.931  -6.088  0.00  0.00    +0.084 A 
ATOM      8  C   UNL     1       0.089   4.934  -5.058  0.00  0.00    +0.199 C 
ATOM      9  O   UNL     1      -1.104   5.141  -5.445  0.00  0.00    -0.286 OA
ATOM     10  C   UNL     1       0.501   5.329  -3.697  0.00  0.00    +0.045 A 
ATOM     11  C   UNL     1       1.843   5.238  -3.332  0.00  0.00    +0.076 A 
ATOM     12  C   UNL     1       2.205   5.669  -2.057  0.00  0.00    +0.142 A 
ATOM     13  C   UNL     1       1.386   6.501  -1.299  0.00  0.00    +0.037 A 
ATOM     14  C   UNL     1       0.122   6.795  -1.798  0.00  0.00    +0.003 A 
ATOM     15  C   UNL     1       2.855   5.236  -4.408  0.00  0.00    +0.202 C 
ATOM     16  O   UNL     1       4.024   5.690  -4.198  0.00  0.00    -0.286 OA
ATOM     17  C   UNL     1      -0.341   6.127  -2.923  0.00  0.00    +0.003 A 
ATOM     18  C   UNL     1       2.419   5.400  -5.797  0.00  0.00    +0.084 A 
ATOM     19  O   UNL     1      -0.533   4.782  -7.873  0.00  0.00    -0.287 OA
ATOM     20  C   UNL     1       3.032   6.327  -6.639  0.00  0.00    +0.197 A 
ATOM     21  O   UNL     1       3.794   7.346  -6.132  0.00  0.00    -0.287 OA
ATOM     22  C   UNL     1       1.627   5.201  -9.791  0.00  0.00    +0.067 C 
ATOM     23  O   UNL     1       2.158   6.557 -11.697  0.00  0.00    -0.218 OA
ENDROOT
BRANCH   1  24
ATOM     24  C   UNL     1       0.031   6.527 -10.986  0.00  0.00    +0.222 C 
ATOM     25  O   UNL     1      -0.304   5.346 -11.213  0.00  0.00    -0.290 OA
BRANCH  24  26
ATOM     26  C   UNL     1      -0.687   7.479 -11.905  0.00  0.00    +0.275 C 
BRANCH  26  27
ATOM     27  O   UNL     1       0.203   8.039 -12.883  0.00  0.00    -0.440 OA
BRANCH  27  28
ATOM     28  C   UNL     1       0.427   7.625 -14.150  0.00  0.00    +0.317 C 
ATOM     29  O   UNL     1       0.108   6.436 -14.402  0.00  0.00    -0.250 OA
BRANCH  28  30
ATOM     30  C   UNL     1       1.301   8.369 -15.107  0.00  0.00    +0.110 C 
BRANCH  30  31
ATOM     31  C   UNL     1       0.596   9.508 -15.821  0.00  0.00    +0.012 C 
BRANCH  31  33
ATOM     32  C   UNL     1       0.861  11.490 -15.320  0.00  0.00    +0.000 C 
ATOM     33  C   UNL     1       1.080  10.808 -15.190  0.00  0.00    +0.001 C 
ENDBRANCH  31  33
ENDBRANCH  30  31
ENDBRANCH  28  30
ENDBRANCH  27  28
ENDBRANCH  26  27
ENDBRANCH  24  26
ENDBRANCH   1  24
BRANCH  12  34
ATOM     34  O   UNL     1       3.570   5.833  -1.793  0.00  0.00    -0.471 OA
ATOM     35  C   UNL     1       4.283   5.154  -0.802  0.00  0.00    +0.252 C 
ENDBRANCH  12  34
BRANCH   3  36
ATOM     36  O   UNL     1       3.623   6.004  -9.947  0.00  0.00    -0.328 OA
BRANCH  36  37
ATOM     37  C   UNL     1       4.484   6.515 -11.097  0.00  0.00    +0.237 C 
ATOM     38  O   UNL     1       5.743   6.846 -10.297  0.00  0.00    -0.330 OA
ATOM     39  C   UNL     1       6.477   5.542 -10.270  0.00  0.00    +0.150 C 
ATOM     40  C   UNL     1       7.731   6.226  -9.470  0.00  0.00    +0.035 C 
ATOM     41  C   UNL     1       7.286   5.690 -11.780  0.00  0.00    +0.199 C 
ATOM     42  O   UNL     1       7.113   7.167 -11.975  0.00  0.00    -0.219 OA
ATOM     43  C   UNL     1       5.949   5.126 -12.706  0.00  0.00    +0.133 C 
ATOM     44  C   UNL     1       4.897   4.955 -11.481  0.00  0.00    +0.086 C 
BRANCH  43  45
ATOM     45  N   UNL     1       5.444   6.513 -13.227  0.00  0.00    -0.197 NA
ATOM     46  C   UNL     1       5.002   6.589 -14.564  0.00  0.00    +0.337 C 
ATOM     47  O   UNL     1       4.025   5.816 -14.711  0.00  0.00    -0.264 OA
BRANCH  46  48
ATOM     48  C   UNL     1       5.733   7.300 -15.577  0.00  0.00    +0.471 C 
ATOM     49  F   UNL     1       5.944   6.468 -16.674  0.00  0.00    -0.162 F 
ATOM     50  F   UNL     1       5.059   8.433 -16.070  0.00  0.00    -0.162 F 
ATOM     51  F   UNL     1       6.980   7.745 -15.283  0.00  0.00    -0.162 F 
ENDBRANCH  46  48
ENDBRANCH  43  45
ENDBRANCH  36  37
ENDBRANCH   3  36
TORSDOF 12
ENDMDL
MODEL 6
REMARK VINA RESULT:      -7.9      4.489      8.424
REMARK  Name = 
REMARK  12 active torsions:
REMARK  status: ('A' for Active; 'I' for Inactive)
REMARK    1  A    between atoms: C_2  and  C_3
REMARK    2  A    between atoms: C_3  and  C_4
REMARK    3  A    between atoms: C_4  and  C_5
REMARK    4  A    between atoms: C_5  and  O_7
REMARK    5  A    between atoms: O_7  and  C_8
REMARK    6  A    between atoms: C_8  and  C_9
REMARK    7  A    between atoms: C_9  and  C_11
REMARK    8  A    between atoms: C_22  and  O_23
REMARK    9  A    between atoms: O_23  and  C_24
REMARK   10  A    between atoms: C_26  and  N_27
REMARK   11  A    between atoms: C_28  and  C_30
REMARK   12  A    between atoms: C_43  and  O_44
REMARK                            x       y       z     vdW  Elec       q    Type
REMARK                         _______ _______ _______ _____ _____    ______ ____
ROOT
ATOM      1  C   UNL     1       1.604   5.656  -9.250  0.00  0.00    +0.188 C 
ATOM      2  C   UNL     1       1.879   6.912  -8.615  0.00  0.00    +0.072 C 
ATOM      3  C   UNL     1       3.492   7.037  -8.254  0.00  0.00    +0.146 C 
ATOM      4  C   UNL     1       3.305   6.140  -6.924  0.00  0.00    +0.043 A 
ATOM      5  C   UNL     1       2.530   5.027  -7.040  0.00  0.00    +0.021 A 
ATOM      6  C   UNL     1       1.892   4.560  -5.913  0.00  0.00    +0.195 A 
ATOM      7  C   UNL     1       2.423   4.887  -4.672  0.00  0.00    +0.084 A 
ATOM      8  C   UNL     1       1.562   4.804  -3.480  0.00  0.00    +0.199 C 
ATOM      9  O   UNL     1       0.320   4.607  -3.670  0.00  0.00    -0.286 OA
ATOM     10  C   UNL     1       2.016   5.547  -2.288  0.00  0.00    +0.045 A 
ATOM     11  C   UNL     1       3.360   5.889  -2.163  0.00  0.00    +0.076 A 
ATOM     12  C   UNL     1       3.745   6.635  -1.050  0.00  0.00    +0.142 A 
ATOM     13  C   UNL     1       2.825   7.346  -0.285  0.00  0.00    +0.037 A 
ATOM     14  C   UNL     1       1.476   7.190  -0.583  0.00  0.00    +0.003 A 
ATOM     15  C   UNL     1       4.176   5.953  -3.392  0.00  0.00    +0.202 C 
ATOM     16  O   UNL     1       5.176   6.735  -3.466  0.00  0.00    -0.286 OA
ATOM     17  C   UNL     1       1.085   6.222  -1.498  0.00  0.00    +0.003 A 
ATOM     18  C   UNL     1       3.531   5.727  -4.688  0.00  0.00    +0.084 A 
ATOM     19  O   UNL     1       0.644   3.959  -6.084  0.00  0.00    -0.287 OA
ATOM     20  C   UNL     1       3.726   6.607  -5.753  0.00  0.00    +0.197 A 
ATOM     21  O   UNL     1       4.214   7.870  -5.545  0.00  0.00    -0.287 OA
ATOM     22  C   UNL     1       2.311   4.568  -8.402  0.00  0.00    +0.067 C 
ATOM     23  O   UNL     1       2.161   5.629 -10.548  0.00  0.00    -0.218 OA
ENDROOT
BRANCH   1  24
ATOM     24  C   UNL     1       0.251   5.167  -9.466  0.00  0.00    +0.222 C 
ATOM     25  O   UNL     1      -0.140   5.509 -10.601  0.00  0.00    -0.290 OA
BRANCH  24  26
ATOM     26  C   UNL     1      -0.902   5.072  -8.502  0.00  0.00    +0.275 C 
BRANCH  26  27
ATOM     27  O   UNL     1      -0.883   6.148  -7.551  0.00  0.00    -0.440 OA
BRANCH  27  28
ATOM     28  C   UNL     1      -1.480   6.211  -6.341  0.00  0.00    +0.317 C 
ATOM     29  O   UNL     1      -2.660   5.781  -6.289  0.00  0.00    -0.250 OA
BRANCH  28  30
ATOM     30  C   UNL     1      -0.950   7.035  -5.213  0.00  0.00    +0.110 C 
BRANCH  30  31
ATOM     31  C   UNL     1      -1.965   8.003  -4.632  0.00  0.00    +0.012 C 
BRANCH  31  33
ATOM     32  C   UNL     1      -2.273   7.012  -2.850  0.00  0.00    +0.000 C 
ATOM     33  C   UNL     1      -2.130   7.657  -3.157  0.00  0.00    +0.001 C 
ENDBRANCH  31  33
ENDBRANCH  30  31
ENDBRANCH  28  30
ENDBRANCH  27  28
ENDBRANCH  26  27
ENDBRANCH  24  26
ENDBRANCH   1  24
BRANCH  12  34
ATOM     34  O   UNL     1       5.023   7.205  -1.065  0.00  0.00    -0.471 OA
ATOM     35  C   UNL     1       5.746   7.584   0.069  0.00  0.00    +0.252 C 
ENDBRANCH  12  34
BRANCH   3  36
ATOM     36  O   UNL     1       3.942   5.830  -9.031  0.00  0.00    -0.328 OA
BRANCH  36  37
ATOM     37  C   UNL     1       4.634   6.336 -10.291  0.00  0.00    +0.237 C 
ATOM     38  O   UNL     1       5.896   6.897  -9.638  0.00  0.00    -0.330 OA
ATOM     39  C   UNL     1       6.798   5.704  -9.570  0.00  0.00    +0.150 C 
ATOM     40  C   UNL     1       8.008   6.612  -8.944  0.00  0.00    +0.035 C 
ATOM     41  C   UNL     1       7.459   5.811 -11.153  0.00  0.00    +0.199 C 
ATOM     42  O   UNL     1       7.077   7.229 -11.453  0.00  0.00    -0.219 OA
ATOM     43  C   UNL     1       6.142   4.999 -11.906  0.00  0.00    +0.133 C 
ATOM     44  C   UNL     1       5.220   4.812 -10.581  0.00  0.00    +0.086 C 
BRANCH  43  45
ATOM     45  N   UNL     1       5.417   6.256 -12.492  0.00  0.00    -0.197 NA
ATOM     46  C   UNL     1       4.926   6.172 -13.812  0.00  0.00    +0.337 C 
ATOM     47  O   UNL     1       4.072   5.255 -13.868  0.00  0.00    -0.264 OA
BRANCH  46  48
ATOM     48  C   UNL     1       5.508   6.913 -14.897  0.00  0.00    +0.471 C 
ATOM     49  F   UNL     1       4.499   7.432 -15.704  0.00  0.00    -0.162 F 
ATOM     50  F   UNL     1       6.281   8.013 -14.481  0.00  0.00    -0.162 F 
ATOM     51  F   UNL     1       6.300   6.254 -15.779  0.00  0.00    -0.162 F 
ENDBRANCH  46  48
ENDBRANCH  43  45
ENDBRANCH  36  37
ENDBRANCH   3  36
TORSDOF 12
ENDMDL
MODEL 7
REMARK VINA RESULT:      -7.7      4.209      9.347
REMARK  Name = 
REMARK  12 active torsions:
REMARK  status: ('A' for Active; 'I' for Inactive)
REMARK    1  A    between atoms: C_2  and  C_3
REMARK    2  A    between atoms: C_3  and  C_4
REMARK    3  A    between atoms: C_4  and  C_5
REMARK    4  A    between atoms: C_5  and  O_7
REMARK    5  A    between atoms: O_7  and  C_8
REMARK    6  A    between atoms: C_8  and  C_9
REMARK    7  A    between atoms: C_9  and  C_11
REMARK    8  A    between atoms: C_22  and  O_23
REMARK    9  A    between atoms: O_23  and  C_24
REMARK   10  A    between atoms: C_26  and  N_27
REMARK   11  A    between atoms: C_28  and  C_30
REMARK   12  A    between atoms: C_43  and  O_44
REMARK                            x       y       z     vdW  Elec       q    Type
REMARK                         _______ _______ _______ _____ _____    ______ ____
ROOT
ATOM      1  C   UNL     1       1.167   6.455 -10.177  0.00  0.00    +0.188 C 
ATOM      2  C   UNL     1       1.876   7.370  -9.331  0.00  0.00    +0.072 C 
ATOM      3  C   UNL     1       3.317   6.711  -8.845  0.00  0.00    +0.146 C 
ATOM      4  C   UNL     1       2.581   5.851  -7.693  0.00  0.00    +0.043 A 
ATOM      5  C   UNL     1       1.422   5.229  -8.039  0.00  0.00    +0.021 A 
ATOM      6  C   UNL     1       0.500   4.976  -7.049  0.00  0.00    +0.195 A 
ATOM      7  C   UNL     1       0.949   4.885  -5.738  0.00  0.00    +0.084 A 
ATOM      8  C   UNL     1      -0.012   5.065  -4.636  0.00  0.00    +0.199 C 
ATOM      9  O   UNL     1      -1.177   5.473  -4.940  0.00  0.00    -0.286 OA
ATOM     10  C   UNL     1       0.558   5.382  -3.312  0.00  0.00    +0.045 A 
ATOM     11  C   UNL     1       1.887   5.063  -3.042  0.00  0.00    +0.076 A 
ATOM     12  C   UNL     1       2.407   5.423  -1.800  0.00  0.00    +0.142 A 
ATOM     13  C   UNL     1       1.798   6.380  -0.994  0.00  0.00    +0.037 A 
ATOM     14  C   UNL     1       0.570   6.886  -1.406  0.00  0.00    +0.003 A 
ATOM     15  C   UNL     1       2.805   4.891  -4.186  0.00  0.00    +0.202 C 
ATOM     16  O   UNL     1       4.046   5.139  -4.064  0.00  0.00    -0.286 OA
ATOM     17  C   UNL     1      -0.079   6.310  -2.488  0.00  0.00    +0.003 A 
ATOM     18  C   UNL     1       2.305   5.129  -5.543  0.00  0.00    +0.084 A 
ATOM     19  O   UNL     1      -0.850   5.027  -7.399  0.00  0.00    -0.287 OA
ATOM     20  C   UNL     1       3.004   5.940  -6.436  0.00  0.00    +0.197 A 
ATOM     21  O   UNL     1       3.963   6.814  -5.994  0.00  0.00    -0.287 OA
ATOM     22  C   UNL     1       1.207   5.077  -9.469  0.00  0.00    +0.067 C 
ATOM     23  O   UNL     1       1.823   6.327 -11.421  0.00  0.00    -0.218 OA
ENDROOT
BRANCH   1  24
ATOM     24  C   UNL     1      -0.222   6.658 -10.560  0.00  0.00    +0.222 C 
ATOM     25  O   UNL     1      -0.785   5.551 -10.689  0.00  0.00    -0.290 OA
BRANCH  24  26
ATOM     26  C   UNL     1      -0.824   7.682 -11.486  0.00  0.00    +0.275 C 
BRANCH  26  27
ATOM     27  O   UNL     1      -0.727   7.271 -12.859  0.00  0.00    -0.440 OA
BRANCH  27  28
ATOM     28  C   UNL     1       0.231   7.579 -13.762  0.00  0.00    +0.317 C 
ATOM     29  O   UNL     1       0.659   8.760 -13.724  0.00  0.00    -0.250 OA
BRANCH  28  30
ATOM     30  C   UNL     1       0.531   6.727 -14.952  0.00  0.00    +0.110 C 
BRANCH  30  31
ATOM     31  C   UNL     1       0.239   7.402 -16.279  0.00  0.00    +0.012 C 
BRANCH  31  33
ATOM     32  C   UNL     1      -1.577   7.236 -17.241  0.00  0.00    +0.000 C 
ATOM     33  C   UNL     1      -1.154   6.964 -16.715  0.00  0.00    +0.001 C 
ENDBRANCH  31  33
ENDBRANCH  30  31
ENDBRANCH  28  30
ENDBRANCH  27  28
ENDBRANCH  26  27
ENDBRANCH  24  26
ENDBRANCH   1  24
BRANCH  12  34
ATOM     34  O   UNL     1       3.796   5.352  -1.635  0.00  0.00    -0.471 OA
ATOM     35  C   UNL     1       4.518   5.995  -0.627  0.00  0.00    +0.252 C 
ENDBRANCH  12  34
BRANCH   3  36
ATOM     36  O   UNL     1       3.294   5.529  -9.774  0.00  0.00    -0.328 OA
BRANCH  36  37
ATOM     37  C   UNL     1       4.667   5.442 -10.430  0.00  0.00    +0.237 C 
ATOM     38  O   UNL     1       4.242   4.779 -11.740  0.00  0.00    -0.330 OA
ATOM     39  C   UNL     1       3.858   5.944 -12.598  0.00  0.00    +0.150 C 
ATOM     40  C   UNL     1       3.560   4.954 -13.867  0.00  0.00    +0.035 C 
ATOM     41  C   UNL     1       5.424   6.330 -13.194  0.00  0.00    +0.199 C 
ATOM     42  O   UNL     1       6.110   5.041 -12.852  0.00  0.00    -0.219 OA
ATOM     43  C   UNL     1       5.869   7.259 -11.815  0.00  0.00    +0.133 C 
ATOM     44  C   UNL     1       4.520   7.012 -10.945  0.00  0.00    +0.086 C 
BRANCH  43  45
ATOM     45  N   UNL     1       6.772   6.190 -11.114  0.00  0.00    -0.197 NA
ATOM     46  C   UNL     1       8.150   6.470 -11.004  0.00  0.00    +0.337 C 
ATOM     47  O   UNL     1       8.299   7.511 -10.321  0.00  0.00    -0.264 OA
BRANCH  46  48
ATOM     48  C   UNL     1       9.143   5.748 -11.750  0.00  0.00    +0.471 C 
ATOM     49  F   UNL     1       8.697   4.449 -11.990  0.00  0.00    -0.162 F 
ATOM     50  F   UNL     1       9.418   6.305 -13.013  0.00  0.00    -0.162 F 
ATOM     51  F   UNL     1      10.363   5.556 -11.189  0.00  0.00    -0.162 F 
ENDBRANCH  46  48
ENDBRANCH  43  45
ENDBRANCH  36  37
ENDBRANCH   3  36
TORSDOF 12
ENDMDL
MODEL 8
REMARK VINA RESULT:      -7.6      1.551      1.925
REMARK  Name = 
REMARK  12 active torsions:
REMARK  status: ('A' for Active; 'I' for Inactive)
REMARK    1  A    between atoms: C_2  and  C_3
REMARK    2  A    between atoms: C_3  and  C_4
REMARK    3  A    between atoms: C_4  and  C_5
REMARK    4  A    between atoms: C_5  and  O_7
REMARK    5  A    between atoms: O_7  and  C_8
REMARK    6  A    between atoms: C_8  and  C_9
REMARK    7  A    between atoms: C_9  and  C_11
REMARK    8  A    between atoms: C_22  and  O_23
REMARK    9  A    between atoms: O_23  and  C_24
REMARK   10  A    between atoms: C_26  and  N_27
REMARK   11  A    between atoms: C_28  and  C_30
REMARK   12  A    between atoms: C_43  and  O_44
REMARK                            x       y       z     vdW  Elec       q    Type
REMARK                         _______ _______ _______ _____ _____    ______ ____
ROOT
ATOM      1  C   UNL     1       0.764   5.217  -6.713  0.00  0.00    +0.188 C 
ATOM      2  C   UNL     1       1.875   4.330  -6.900  0.00  0.00    +0.072 C 
ATOM      3  C   UNL     1       3.277   5.042  -6.378  0.00  0.00    +0.146 C 
ATOM      4  C   UNL     1       3.412   5.878  -7.754  0.00  0.00    +0.043 A 
ATOM      5  C   UNL     1       2.277   6.455  -8.233  0.00  0.00    +0.021 A 
ATOM      6  C   UNL     1       2.183   6.677  -9.588  0.00  0.00    +0.195 A 
ATOM      7  C   UNL     1       3.358   6.787 -10.321  0.00  0.00    +0.084 A 
ATOM      8  C   UNL     1       3.317   6.574 -11.778  0.00  0.00    +0.199 C 
ATOM      9  O   UNL     1       2.236   6.123 -12.271  0.00  0.00    -0.286 OA
ATOM     10  C   UNL     1       4.606   6.282 -12.436  0.00  0.00    +0.045 A 
ATOM     11  C   UNL     1       5.795   6.649 -11.811  0.00  0.00    +0.076 A 
ATOM     12  C   UNL     1       6.994   6.311 -12.436  0.00  0.00    +0.142 A 
ATOM     13  C   UNL     1       7.061   5.334 -13.425  0.00  0.00    +0.037 A 
ATOM     14  C   UNL     1       5.866   4.783 -13.872  0.00  0.00    +0.003 A 
ATOM     15  C   UNL     1       5.775   6.853 -10.349  0.00  0.00    +0.202 C 
ATOM     16  O   UNL     1       6.820   6.651  -9.653  0.00  0.00    -0.286 OA
ATOM     17  C   UNL     1       4.661   5.333 -13.457  0.00  0.00    +0.003 A 
ATOM     18  C   UNL     1       4.537   6.593  -9.610  0.00  0.00    +0.084 A 
ATOM     19  O   UNL     1       0.919   6.575 -10.170  0.00  0.00    -0.287 OA
ATOM     20  C   UNL     1       4.537   5.806  -8.458  0.00  0.00    +0.197 A 
ATOM     21  O   UNL     1       5.585   4.969  -8.175  0.00  0.00    -0.287 OA
ATOM     22  C   UNL     1       1.201   6.597  -7.265  0.00  0.00    +0.067 C 
ATOM     23  O   UNL     1       0.480   5.366  -5.337  0.00  0.00    -0.218 OA
ENDROOT
BRANCH   1  24
ATOM     24  C   UNL     1      -0.547   4.962  -7.290  0.00  0.00    +0.222 C 
ATOM     25  O   UNL     1      -0.533   5.255  -8.504  0.00  0.00    -0.290 OA
BRANCH  24  26
ATOM     26  C   UNL     1      -1.916   5.173  -6.699  0.00  0.00    +0.275 C 
BRANCH  26  27
ATOM     27  O   UNL     1      -2.073   6.512  -6.202  0.00  0.00    -0.440 OA
BRANCH  27  28
ATOM     28  C   UNL     1      -2.460   6.911  -4.970  0.00  0.00    +0.317 C 
ATOM     29  O   UNL     1      -2.313   8.134  -4.719  0.00  0.00    -0.250 OA
BRANCH  28  30
ATOM     30  C   UNL     1      -2.715   5.957  -3.848  0.00  0.00    +0.110 C 
BRANCH  30  31
ATOM     31  C   UNL     1      -3.451   6.575  -2.674  0.00  0.00    +0.012 C 
BRANCH  31  33
ATOM     32  C   UNL     1      -2.527   6.943  -0.868  0.00  0.00    +0.000 C 
ATOM     33  C   UNL     1      -2.423   6.840  -1.581  0.00  0.00    +0.001 C 
ENDBRANCH  31  33
ENDBRANCH  30  31
ENDBRANCH  28  30
ENDBRANCH  27  28
ENDBRANCH  26  27
ENDBRANCH  24  26
ENDBRANCH   1  24
BRANCH  12  34
ATOM     34  O   UNL     1       8.170   6.434 -11.687  0.00  0.00    -0.471 OA
ATOM     35  C   UNL     1       9.419   5.934 -12.065  0.00  0.00    +0.252 C 
ENDBRANCH  12  34
BRANCH   3  36
ATOM     36  O   UNL     1       2.636   6.221  -5.700  0.00  0.00    -0.328 OA
BRANCH  36  37
ATOM     37  C   UNL     1       2.954   6.115  -4.213  0.00  0.00    +0.237 C 
ATOM     38  O   UNL     1       4.469   5.960  -4.323  0.00  0.00    -0.330 OA
ATOM     39  C   UNL     1       4.950   7.378  -4.368  0.00  0.00    +0.150 C 
ATOM     40  C   UNL     1       6.511   6.883  -4.394  0.00  0.00    +0.035 C 
ATOM     41  C   UNL     1       5.010   7.665  -2.674  0.00  0.00    +0.199 C 
ATOM     42  O   UNL     1       4.975   6.240  -2.210  0.00  0.00    -0.219 OA
ATOM     43  C   UNL     1       3.337   8.046  -2.541  0.00  0.00    +0.133 C 
ATOM     44  C   UNL     1       2.931   7.769  -4.090  0.00  0.00    +0.086 C 
BRANCH  43  45
ATOM     45  N   UNL     1       2.849   6.682  -1.947  0.00  0.00    -0.197 NA
ATOM     46  C   UNL     1       1.509   6.597  -1.516  0.00  0.00    +0.337 C 
ATOM     47  O   UNL     1       0.755   6.807  -2.496  0.00  0.00    -0.264 OA
BRANCH  46  48
ATOM     48  C   UNL     1       1.154   6.489  -0.128  0.00  0.00    +0.471 C 
ATOM     49  F   UNL     1       2.309   6.468   0.651  0.00  0.00    -0.162 F 
ATOM     50  F   UNL     1       0.383   7.567   0.344  0.00  0.00    -0.162 F 
ATOM     51  F   UNL     1       0.484   5.384   0.284  0.00  0.00    -0.162 F 
ENDBRANCH  46  48
ENDBRANCH  43  45
ENDBRANCH  36  37
ENDBRANCH   3  36
TORSDOF 12
ENDMDL
MODEL 9
REMARK VINA RESULT:      -7.4      3.856      7.975
REMARK  Name = 
REMARK  12 active torsions:
REMARK  status: ('A' for Active; 'I' for Inactive)
REMARK    1  A    between atoms: C_2  and  C_3
REMARK    2  A    between atoms: C_3  and  C_4
REMARK    3  A    between atoms: C_4  and  C_5
REMARK    4  A    between atoms: C_5  and  O_7
REMARK    5  A    between atoms: O_7  and  C_8
REMARK    6  A    between atoms: C_8  and  C_9
REMARK    7  A    between atoms: C_9  and  C_11
REMARK    8  A    between atoms: C_22  and  O_23
REMARK    9  A    between atoms: O_23  and  C_24
REMARK   10  A    between atoms: C_26  and  N_27
REMARK   11  A    between atoms: C_28  and  C_30
REMARK   12  A    between atoms: C_43  and  O_44
REMARK                            x       y       z     vdW  Elec       q    Type
REMARK                         _______ _______ _______ _____ _____    ______ ____
ROOT
ATOM      1  C   UNL     1       1.056   5.557  -8.690  0.00  0.00    +0.188 C 
ATOM      2  C   UNL     1       1.593   6.778  -8.166  0.00  0.00    +0.072 C 
ATOM      3  C   UNL     1       3.223   6.629  -7.905  0.00  0.00    +0.146 C 
ATOM      4  C   UNL     1       2.969   5.865  -6.505  0.00  0.00    +0.043 A 
ATOM      5  C   UNL     1       2.003   4.908  -6.495  0.00  0.00    +0.021 A 
ATOM      6  C   UNL     1       1.369   4.635  -5.304  0.00  0.00    +0.195 A 
ATOM      7  C   UNL     1       2.033   4.936  -4.121  0.00  0.00    +0.084 A 
ATOM      8  C   UNL     1       1.253   5.086  -2.880  0.00  0.00    +0.199 C 
ATOM      9  O   UNL     1      -0.013   5.107  -2.986  0.00  0.00    -0.286 OA
ATOM     10  C   UNL     1       1.912   5.806  -1.772  0.00  0.00    +0.045 A 
ATOM     11  C   UNL     1       3.302   5.904  -1.748  0.00  0.00    +0.076 A 
ATOM     12  C   UNL     1       3.888   6.635  -0.716  0.00  0.00    +0.142 A 
ATOM     13  C   UNL     1       3.164   7.547   0.046  0.00  0.00    +0.037 A 
ATOM     14  C   UNL     1       1.792   7.623  -0.166  0.00  0.00    +0.003 A 
ATOM     15  C   UNL     1       4.031   5.742  -3.022  0.00  0.00    +0.202 C 
ATOM     16  O   UNL     1       5.147   6.321  -3.208  0.00  0.00    -0.286 OA
ATOM     17  C   UNL     1       1.173   6.687  -0.984  0.00  0.00    +0.003 A 
ATOM     18  C   UNL     1       3.269   5.557  -4.260  0.00  0.00    +0.084 A 
ATOM     19  O   UNL     1       0.026   4.263  -5.360  0.00  0.00    -0.287 OA
ATOM     20  C   UNL     1       3.546   6.319  -5.396  0.00  0.00    +0.197 A 
ATOM     21  O   UNL     1       4.264   7.482  -5.308  0.00  0.00    -0.287 OA
ATOM     22  C   UNL     1       1.613   4.413  -7.806  0.00  0.00    +0.067 C 
ATOM     23  O   UNL     1       1.510   5.348 -10.012  0.00  0.00    -0.218 OA
ENDROOT
BRANCH   1  24
ATOM     24  C   UNL     1      -0.374   5.310  -8.794  0.00  0.00    +0.222 C 
ATOM     25  O   UNL     1      -0.861   6.044  -9.680  0.00  0.00    -0.290 OA
BRANCH  24  26
ATOM     26  C   UNL     1      -1.382   5.027  -7.712  0.00  0.00    +0.275 C 
BRANCH  26  27
ATOM     27  O   UNL     1      -1.581   6.172  -6.867  0.00  0.00    -0.440 OA
BRANCH  27  28
ATOM     28  C   UNL     1      -2.342   6.272  -5.755  0.00  0.00    +0.317 C 
ATOM     29  O   UNL     1      -3.055   5.272  -5.486  0.00  0.00    -0.250 OA
BRANCH  28  30
ATOM     30  C   UNL     1      -2.614   7.572  -5.069  0.00  0.00    +0.110 C 
BRANCH  30  31
ATOM     31  C   UNL     1      -1.908   7.719  -3.733  0.00  0.00    +0.012 C 
BRANCH  31  33
ATOM     32  C   UNL     1      -2.759   7.064  -1.973  0.00  0.00    +0.000 C 
ATOM     33  C   UNL     1      -2.741   6.976  -2.696  0.00  0.00    +0.001 C 
ENDBRANCH  31  33
ENDBRANCH  30  31
ENDBRANCH  28  30
ENDBRANCH  27  28
ENDBRANCH  26  27
ENDBRANCH  24  26
ENDBRANCH   1  24
BRANCH  12  34
ATOM     34  O   UNL     1       5.244   6.960  -0.843  0.00  0.00    -0.471 OA
ATOM     35  C   UNL     1       5.992   7.664   0.103  0.00  0.00    +0.252 C 
ENDBRANCH  12  34
BRANCH   3  36
ATOM     36  O   UNL     1       3.397   5.315  -8.615  0.00  0.00    -0.328 OA
BRANCH  36  37
ATOM     37  C   UNL     1       4.644   5.431  -9.483  0.00  0.00    +0.237 C 
ATOM     38  O   UNL     1       4.051   4.909 -10.791  0.00  0.00    -0.330 OA
ATOM     39  C   UNL     1       3.456   6.138 -11.405  0.00  0.00    +0.150 C 
ATOM     40  C   UNL     1       3.014   5.298 -12.739  0.00  0.00    +0.035 C 
ATOM     41  C   UNL     1       4.873   6.730 -12.177  0.00  0.00    +0.199 C 
ATOM     42  O   UNL     1       5.687   5.472 -12.133  0.00  0.00    -0.219 OA
ATOM     43  C   UNL     1       5.481   7.509 -10.768  0.00  0.00    +0.133 C 
ATOM     44  C   UNL     1       4.313   7.036  -9.742  0.00  0.00    +0.086 C 
BRANCH  43  45
ATOM     45  N   UNL     1       6.555   6.440 -10.375  0.00  0.00    -0.197 NA
ATOM     46  C   UNL     1       7.903   6.729 -10.670  0.00  0.00    +0.337 C 
ATOM     47  O   UNL     1       8.241   7.765 -10.050  0.00  0.00    -0.264 OA
BRANCH  46  48
ATOM     48  C   UNL     1       8.636   6.021 -11.683  0.00  0.00    +0.471 C 
ATOM     49  F   UNL     1       8.333   4.662 -11.618  0.00  0.00    -0.162 F 
ATOM     50  F   UNL     1       8.326   6.428 -12.994  0.00  0.00    -0.162 F 
ATOM     51  F   UNL     1       9.991   6.037 -11.632  0.00  0.00    -0.162 F 
ENDBRANCH  46  48
ENDBRANCH  43  45
ENDBRANCH  36  37
ENDBRANCH   3  36
TORSDOF 12
ENDMDL
