MODEL 1
REMARK VINA RESULT:      -8.1      0.000      0.000
REMARK  Name = 
REMARK  6 active torsions:
REMARK  status: ('A' for Active; 'I' for Inactive)
REMARK    1  A    between atoms: C_2  and  O_4
REMARK    2  A    between atoms: O_4  and  C_5
REMARK    3  A    between atoms: N_12  and  C_13
REMARK    4  A    between atoms: C_13  and  C_14
REMARK    5  A    between atoms: C_13  and  C_19
REMARK    6  A    between atoms: C_14  and  C_16
REMARK                            x       y       z     vdW  Elec       q    Type
REMARK                         _______ _______ _______ _____ _____    ______ ____
ROOT
ATOM      1  C   UNL     1       5.882   6.172 -10.225  0.00  0.00    +0.178 A 
ATOM      2  S   UNL     1       4.588   5.273 -10.910  0.00  0.00    -0.055 S 
ATOM      3  C   UNL     1       3.953   4.583  -9.470  0.00  0.00    +0.009 A 
ATOM      4  C   UNL     1       2.688   3.911  -9.034  0.00  0.00    +0.050 C 
ATOM      5  C   UNL     1       2.054   4.876  -8.038  0.00  0.00    +0.078 C 
ATOM      6  N   UNL     1       2.913   4.846  -6.853  0.00  0.00    -0.260 NA
ATOM      7  C   UNL     1       4.198   5.430  -7.104  0.00  0.00    +0.100 C 
ATOM      8  C   UNL     1       4.654   5.308  -8.512  0.00  0.00    -0.000 A 
ATOM      9  C   UNL     1       5.941   5.575  -8.970  0.00  0.00    +0.042 A 
ENDROOT
BRANCH   1  10
ATOM     10  O   UNL     1       6.833   7.004 -10.830  0.00  0.00    -0.417 OA
BRANCH  10  12
ATOM     11  C   UNL     1       8.586   6.022 -11.923  0.00  0.00    +0.122 C 
ATOM     12  C   UNL     1       7.534   6.592 -11.968  0.00  0.00    +0.323 C 
ATOM     13  O   UNL     1       7.064   6.922 -13.098  0.00  0.00    -0.250 OA
ENDBRANCH  10  12
ENDBRANCH   1  10
BRANCH   6  14
ATOM     14  C   UNL     1       2.230   6.065  -6.050  0.00  0.00    +0.141 C 
BRANCH  14  15
ATOM     15  C   UNL     1       2.697   5.465  -4.587  0.00  0.00    +0.027 A 
ATOM     16  C   UNL     1       2.297   6.309  -3.553  0.00  0.00    +0.138 A 
ATOM     17  F   UNL     1       1.372   7.290  -3.739  0.00  0.00    -0.204 F 
ATOM     18  C   UNL     1       2.901   6.090  -2.322  0.00  0.00    +0.029 A 
ATOM     19  C   UNL     1       3.879   5.113  -2.181  0.00  0.00    +0.002 A 
ATOM     20  C   UNL     1       4.533   4.703  -3.335  0.00  0.00    -0.000 A 
ATOM     21  C   UNL     1       4.023   5.098  -4.560  0.00  0.00    -0.000 A 
ENDBRANCH  14  15
BRANCH  14  22
ATOM     22  C   UNL     1       0.776   5.289  -5.993  0.00  0.00    +0.169 C 
ATOM     23  O   UNL     1       0.898   4.180  -5.499  0.00  0.00    -0.294 OA
BRANCH  22  24
ATOM     24  C   UNL     1      -0.425   6.041  -6.138  0.00  0.00    +0.059 C 
ATOM     25  C   UNL     1      -1.748   5.558  -6.549  0.00  0.00    +0.008 C 
ATOM     26  C   UNL     1      -1.502   6.268  -5.188  0.00  0.00    +0.008 C 
ENDBRANCH  22  24
ENDBRANCH  14  22
ENDBRANCH   6  14
TORSDOF 6
ENDMDL
MODEL 2
REMARK VINA RESULT:      -8.1      3.453      8.312
REMARK  Name = 
REMARK  6 active torsions:
REMARK  status: ('A' for Active; 'I' for Inactive)
REMARK    1  A    between atoms: C_2  and  O_4
REMARK    2  A    between atoms: O_4  and  C_5
REMARK    3  A    between atoms: N_12  and  C_13
REMARK    4  A    between atoms: C_13  and  C_14
REMARK    5  A    between atoms: C_13  and  C_19
REMARK    6  A    between atoms: C_14  and  C_16
REMARK                            x       y       z     vdW  Elec       q    Type
REMARK                         _______ _______ _______ _____ _____    ______ ____
ROOT
ATOM      1  C   UNL     1      -0.899   6.536  -4.694  0.00  0.00    +0.178 A 
ATOM      2  S   UNL     1       0.362   5.564  -4.049  0.00  0.00    -0.055 S 
ATOM      3  C   UNL     1       0.848   4.769  -5.493  0.00  0.00    +0.009 A 
ATOM      4  C   UNL     1       2.026   3.980  -5.974  0.00  0.00    +0.050 C 
ATOM      5  C   UNL     1       2.668   4.850  -7.048  0.00  0.00    +0.078 C 
ATOM      6  N   UNL     1       1.736   4.842  -8.176  0.00  0.00    -0.260 NA
ATOM      7  C   UNL     1       0.519   5.537  -7.875  0.00  0.00    +0.100 C 
ATOM      8  C   UNL     1       0.145   5.509  -6.438  0.00  0.00    -0.000 A 
ATOM      9  C   UNL     1      -1.084   5.896  -5.915  0.00  0.00    +0.042 A 
ENDROOT
BRANCH   1  10
ATOM     10  O   UNL     1      -1.742   7.465  -4.070  0.00  0.00    -0.417 OA
BRANCH  10  12
ATOM     11  C   UNL     1      -3.349   6.462  -2.788  0.00  0.00    +0.122 C 
ATOM     12  C   UNL     1      -2.383   7.165  -2.864  0.00  0.00    +0.323 C 
ATOM     13  O   UNL     1      -1.961   7.742  -1.817  0.00  0.00    -0.250 OA
ENDBRANCH  10  12
ENDBRANCH   1  10
BRANCH   6  14
ATOM     14  C   UNL     1       2.459   5.969  -9.073  0.00  0.00    +0.141 C 
BRANCH  14  15
ATOM     15  C   UNL     1       1.934   5.294 -10.484  0.00  0.00    +0.027 A 
ATOM     16  C   UNL     1       2.318   6.067 -11.577  0.00  0.00    +0.138 A 
ATOM     17  F   UNL     1       3.268   7.037 -11.478  0.00  0.00    -0.204 F 
ATOM     18  C   UNL     1       1.671   5.789 -12.774  0.00  0.00    +0.029 A 
ATOM     19  C   UNL     1       0.671   4.827 -12.827  0.00  0.00    +0.002 A 
ATOM     20  C   UNL     1       0.044   4.500 -11.631  0.00  0.00    -0.000 A 
ATOM     21  C   UNL     1       0.601   4.955 -10.449  0.00  0.00    -0.000 A 
ENDBRANCH  14  15
BRANCH  14  22
ATOM     22  C   UNL     1       3.873   5.122  -9.102  0.00  0.00    +0.169 C 
ATOM     23  O   UNL     1       3.667   3.946  -9.358  0.00  0.00    -0.294 OA
BRANCH  22  24
ATOM     24  C   UNL     1       5.108   5.824  -9.209  0.00  0.00    +0.059 C 
ATOM     25  C   UNL     1       6.447   5.357  -8.835  0.00  0.00    +0.008 C 
ATOM     26  C   UNL     1       6.094   5.816 -10.277  0.00  0.00    +0.008 C 
ENDBRANCH  22  24
ENDBRANCH  14  22
ENDBRANCH   6  14
TORSDOF 6
ENDMDL
MODEL 3
REMARK VINA RESULT:      -7.7      3.326      4.938
REMARK  Name = 
REMARK  6 active torsions:
REMARK  status: ('A' for Active; 'I' for Inactive)
REMARK    1  A    between atoms: C_2  and  O_4
REMARK    2  A    between atoms: O_4  and  C_5
REMARK    3  A    between atoms: N_12  and  C_13
REMARK    4  A    between atoms: C_13  and  C_14
REMARK    5  A    between atoms: C_13  and  C_19
REMARK    6  A    between atoms: C_14  and  C_16
REMARK                            x       y       z     vdW  Elec       q    Type
REMARK                         _______ _______ _______ _____ _____    ______ ____
ROOT
ATOM      1  C   UNL     1       0.927   5.238 -10.786  0.00  0.00    +0.178 A 
ATOM      2  S   UNL     1       2.468   5.943 -10.503  0.00  0.00    -0.055 S 
ATOM      3  C   UNL     1       2.125   6.749  -9.025  0.00  0.00    +0.009 A 
ATOM      4  C   UNL     1       2.897   7.367  -7.901  0.00  0.00    +0.050 C 
ATOM      5  C   UNL     1       2.607   6.481  -6.694  0.00  0.00    +0.078 C 
ATOM      6  N   UNL     1       1.204   6.722  -6.352  0.00  0.00    -0.260 NA
ATOM      7  C   UNL     1       0.311   6.216  -7.352  0.00  0.00    +0.100 C 
ATOM      8  C   UNL     1       0.881   6.203  -8.723  0.00  0.00    -0.000 A 
ATOM      9  C   UNL     1       0.164   5.985  -9.895  0.00  0.00    +0.042 A 
ENDROOT
BRANCH   1  10
ATOM     10  O   UNL     1       0.479   4.418 -11.829  0.00  0.00    -0.417 OA
BRANCH  10  12
ATOM     11  C   UNL     1       0.910   4.005 -14.037  0.00  0.00    +0.122 C 
ATOM     12  C   UNL     1       0.655   4.786 -13.166  0.00  0.00    +0.323 C 
ATOM     13  O   UNL     1       0.626   6.023 -13.442  0.00  0.00    -0.250 OA
ENDBRANCH  10  12
ENDBRANCH   1  10
BRANCH   6  14
ATOM     14  C   UNL     1       1.040   5.559  -5.249  0.00  0.00    +0.141 C 
BRANCH  14  15
ATOM     15  C   UNL     1       0.056   6.486  -4.304  0.00  0.00    +0.027 A 
ATOM     16  C   UNL     1      -0.413   5.760  -3.212  0.00  0.00    +0.138 A 
ATOM     17  F   UNL     1       0.149   4.578  -2.835  0.00  0.00    -0.204 F 
ATOM     18  C   UNL     1      -1.490   6.314  -2.532  0.00  0.00    +0.029 A 
ATOM     19  C   UNL     1      -2.071   7.494  -2.975  0.00  0.00    +0.002 A 
ATOM     20  C   UNL     1      -1.863   7.842  -4.303  0.00  0.00    -0.000 A 
ATOM     21  C   UNL     1      -0.915   7.142  -5.028  0.00  0.00    -0.000 A 
ENDBRANCH  14  15
BRANCH  14  22
ATOM     22  C   UNL     1       2.397   6.045  -4.448  0.00  0.00    +0.169 C 
ATOM     23  O   UNL     1       2.295   7.209  -4.094  0.00  0.00    -0.294 OA
BRANCH  22  24
ATOM     24  C   UNL     1       3.302   5.066  -3.947  0.00  0.00    +0.059 C 
ATOM     25  C   UNL     1       4.767   5.061  -4.037  0.00  0.00    +0.008 C 
ATOM     26  C   UNL     1       4.012   5.018  -2.679  0.00  0.00    +0.008 C 
ENDBRANCH  22  24
ENDBRANCH  14  22
ENDBRANCH   6  14
TORSDOF 6
ENDMDL
MODEL 4
REMARK VINA RESULT:      -7.4      3.213      7.473
REMARK  Name = 
REMARK  6 active torsions:
REMARK  status: ('A' for Active; 'I' for Inactive)
REMARK    1  A    between atoms: C_2  and  O_4
REMARK    2  A    between atoms: O_4  and  C_5
REMARK    3  A    between atoms: N_12  and  C_13
REMARK    4  A    between atoms: C_13  and  C_14
REMARK    5  A    between atoms: C_13  and  C_19
REMARK    6  A    between atoms: C_14  and  C_16
REMARK                            x       y       z     vdW  Elec       q    Type
REMARK                         _______ _______ _______ _____ _____    ______ ____
ROOT
ATOM      1  C   UNL     1      -0.600   5.618  -5.222  0.00  0.00    +0.178 A 
ATOM      2  S   UNL     1       0.291   7.079  -5.070  0.00  0.00    -0.055 S 
ATOM      3  C   UNL     1       1.811   6.524  -5.649  0.00  0.00    +0.009 A 
ATOM      4  C   UNL     1       3.088   7.126  -6.146  0.00  0.00    +0.050 C 
ATOM      5  C   UNL     1       3.156   6.738  -7.619  0.00  0.00    +0.078 C 
ATOM      6  N   UNL     1       3.398   5.295  -7.640  0.00  0.00    -0.260 NA
ATOM      7  C   UNL     1       2.272   4.552  -7.157  0.00  0.00    +0.100 C 
ATOM      8  C   UNL     1       1.448   5.281  -6.159  0.00  0.00    -0.000 A 
ATOM      9  C   UNL     1       0.451   4.719  -5.368  0.00  0.00    +0.042 A 
ENDROOT
BRANCH   1  10
ATOM     10  O   UNL     1      -1.943   5.337  -4.936  0.00  0.00    -0.417 OA
BRANCH  10  12
ATOM     11  C   UNL     1      -2.771   6.731  -3.323  0.00  0.00    +0.122 C 
ATOM     12  C   UNL     1      -2.491   5.624  -3.682  0.00  0.00    +0.323 C 
ATOM     13  O   UNL     1      -2.613   4.665  -2.862  0.00  0.00    -0.250 OA
ENDBRANCH  10  12
ENDBRANCH   1  10
BRANCH   6  14
ATOM     14  C   UNL     1       3.202   5.057  -9.222  0.00  0.00    +0.141 C 
BRANCH  14  15
ATOM     15  C   UNL     1       4.701   5.648  -9.575  0.00  0.00    +0.027 A 
ATOM     16  C   UNL     1       5.001   5.469 -10.924  0.00  0.00    +0.138 A 
ATOM     17  F   UNL     1       4.043   5.161 -11.841  0.00  0.00    -0.204 F 
ATOM     18  C   UNL     1       6.335   5.623 -11.274  0.00  0.00    +0.029 A 
ATOM     19  C   UNL     1       7.293   5.887 -10.304  0.00  0.00    +0.002 A 
ATOM     20  C   UNL     1       6.976   5.550  -8.995  0.00  0.00    -0.000 A 
ATOM     21  C   UNL     1       5.668   5.207  -8.700  0.00  0.00    -0.000 A 
ENDBRANCH  14  15
BRANCH  14  22
ATOM     22  C   UNL     1       2.490   6.532  -9.414  0.00  0.00    +0.169 C 
ATOM     23  O   UNL     1       3.324   7.383  -9.677  0.00  0.00    -0.294 OA
BRANCH  22  24
ATOM     24  C   UNL     1       1.083   6.607  -9.628  0.00  0.00    +0.059 C 
ATOM     25  C   UNL     1       0.372   6.804 -10.896  0.00  0.00    +0.008 C 
ATOM     26  C   UNL     1       0.140   5.563  -9.991  0.00  0.00    +0.008 C 
ENDBRANCH  22  24
ENDBRANCH  14  22
ENDBRANCH   6  14
TORSDOF 6
ENDMDL
MODEL 5
REMARK VINA RESULT:      -7.3      3.368      7.316
REMARK  Name = 
REMARK  6 active torsions:
REMARK  status: ('A' for Active; 'I' for Inactive)
REMARK    1  A    between atoms: C_2  and  O_4
REMARK    2  A    between atoms: O_4  and  C_5
REMARK    3  A    between atoms: N_12  and  C_13
REMARK    4  A    between atoms: C_13  and  C_14
REMARK    5  A    between atoms: C_13  and  C_19
REMARK    6  A    between atoms: C_14  and  C_16
REMARK                            x       y       z     vdW  Elec       q    Type
REMARK                         _______ _______ _______ _____ _____    ______ ____
ROOT
ATOM      1  C   UNL     1       3.646   5.393  -4.708  0.00  0.00    +0.178 A 
ATOM      2  S   UNL     1       2.143   6.159  -5.039  0.00  0.00    -0.055 S 
ATOM      3  C   UNL     1       2.544   6.890  -6.541  0.00  0.00    +0.009 A 
ATOM      4  C   UNL     1       1.817   7.500  -7.699  0.00  0.00    +0.050 C 
ATOM      5  C   UNL     1       2.080   6.556  -8.868  0.00  0.00    +0.078 C 
ATOM      6  N   UNL     1       3.497   6.717  -9.198  0.00  0.00    -0.260 NA
ATOM      7  C   UNL     1       4.352   6.208  -8.167  0.00  0.00    +0.100 C 
ATOM      8  C   UNL     1       3.764   6.274  -6.804  0.00  0.00    -0.000 A 
ATOM      9  C   UNL     1       4.455   6.068  -5.615  0.00  0.00    +0.042 A 
ENDROOT
BRANCH   1  10
ATOM     10  O   UNL     1       4.040   4.593  -3.628  0.00  0.00    -0.417 OA
BRANCH  10  12
ATOM     11  C   UNL     1       3.798   4.488  -1.356  0.00  0.00    +0.122 C 
ATOM     12  C   UNL     1       4.108   5.110  -2.330  0.00  0.00    +0.323 C 
ATOM     13  O   UNL     1       4.434   6.329  -2.201  0.00  0.00    -0.250 OA
ENDBRANCH  10  12
ENDBRANCH   1  10
BRANCH   6  14
ATOM     14  C   UNL     1       3.619   5.505 -10.254  0.00  0.00    +0.141 C 
BRANCH  14  15
ATOM     15  C   UNL     1       4.538   6.400 -11.291  0.00  0.00    +0.027 A 
ATOM     16  C   UNL     1       5.015   5.613 -12.337  0.00  0.00    +0.138 A 
ATOM     17  F   UNL     1       4.499   4.382 -12.608  0.00  0.00    -0.204 F 
ATOM     18  C   UNL     1       6.049   6.159 -13.085  0.00  0.00    +0.029 A 
ATOM     19  C   UNL     1       6.585   7.395 -12.749  0.00  0.00    +0.002 A 
ATOM     20  C   UNL     1       6.393   7.834 -11.445  0.00  0.00    -0.000 A 
ATOM     21  C   UNL     1       5.494   7.151 -10.645  0.00  0.00    -0.000 A 
ENDBRANCH  14  15
BRANCH  14  22
ATOM     22  C   UNL     1       2.215   5.937 -11.002  0.00  0.00    +0.169 C 
ATOM     23  O   UNL     1       2.299   7.065 -11.460  0.00  0.00    -0.294 OA
BRANCH  22  24
ATOM     24  C   UNL     1       1.272   4.930 -11.357  0.00  0.00    +0.059 C 
ATOM     25  C   UNL     1      -0.191   4.992 -11.269  0.00  0.00    +0.008 C 
ATOM     26  C   UNL     1       0.556   4.723 -12.605  0.00  0.00    +0.008 C 
ENDBRANCH  22  24
ENDBRANCH  14  22
ENDBRANCH   6  14
TORSDOF 6
ENDMDL
MODEL 6
REMARK VINA RESULT:      -7.1      3.271      7.454
REMARK  Name = 
REMARK  6 active torsions:
REMARK  status: ('A' for Active; 'I' for Inactive)
REMARK    1  A    between atoms: C_2  and  O_4
REMARK    2  A    between atoms: O_4  and  C_5
REMARK    3  A    between atoms: N_12  and  C_13
REMARK    4  A    between atoms: C_13  and  C_14
REMARK    5  A    between atoms: C_13  and  C_19
REMARK    6  A    between atoms: C_14  and  C_16
REMARK                            x       y       z     vdW  Elec       q    Type
REMARK                         _______ _______ _______ _____ _____    ______ ____
ROOT
ATOM      1  C   UNL     1       2.605   5.822  -1.452  0.00  0.00    +0.178 A 
ATOM      2  S   UNL     1       3.262   7.335  -1.933  0.00  0.00    -0.055 S 
ATOM      3  C   UNL     1       4.104   6.823  -3.340  0.00  0.00    +0.009 A 
ATOM      4  C   UNL     1       4.715   7.457  -4.551  0.00  0.00    +0.050 C 
ATOM      5  C   UNL     1       3.861   6.974  -5.718  0.00  0.00    +0.078 C 
ATOM      6  N   UNL     1       4.155   5.548  -5.863  0.00  0.00    -0.260 NA
ATOM      7  C   UNL     1       3.662   4.781  -4.757  0.00  0.00    +0.100 C 
ATOM      8  C   UNL     1       3.606   5.531  -3.477  0.00  0.00    -0.000 A 
ATOM      9  C   UNL     1       3.393   4.972  -2.221  0.00  0.00    +0.042 A 
ENDROOT
BRANCH   1  10
ATOM     10  O   UNL     1       1.783   5.490  -0.367  0.00  0.00    -0.417 OA
BRANCH  10  12
ATOM     11  C   UNL     1      -0.271   6.400  -0.796  0.00  0.00    +0.122 C 
ATOM     12  C   UNL     1       0.656   6.256  -0.053  0.00  0.00    +0.323 C 
ATOM     13  O   UNL     1       0.667   6.893   1.043  0.00  0.00    -0.250 OA
ENDBRANCH  10  12
ENDBRANCH   1  10
BRANCH   6  14
ATOM     14  C   UNL     1       3.017   5.193  -6.948  0.00  0.00    +0.141 C 
BRANCH  14  15
ATOM     15  C   UNL     1       3.960   5.680  -8.210  0.00  0.00    +0.027 A 
ATOM     16  C   UNL     1       3.384   5.322  -9.428  0.00  0.00    +0.138 A 
ATOM     17  F   UNL     1       2.082   4.935  -9.524  0.00  0.00    -0.204 F 
ATOM     18  C   UNL     1       4.219   5.381 -10.535  0.00  0.00    +0.029 A 
ATOM     19  C   UNL     1       5.555   5.731 -10.392  0.00  0.00    +0.002 A 
ATOM     20  C   UNL     1       6.118   5.574  -9.132  0.00  0.00    -0.000 A 
ATOM     21  C   UNL     1       5.279   5.318  -8.061  0.00  0.00    -0.000 A 
ENDBRANCH  14  15
BRANCH  14  22
ATOM     22  C   UNL     1       2.322   6.680  -6.791  0.00  0.00    +0.169 C 
ATOM     23  O   UNL     1       2.924   7.510  -7.454  0.00  0.00    -0.294 OA
BRANCH  22  24
ATOM     24  C   UNL     1       0.998   6.784  -6.275  0.00  0.00    +0.059 C 
ATOM     25  C   UNL     1       0.137   5.704  -5.779  0.00  0.00    +0.008 C 
ATOM     26  C   UNL     1       0.543   6.920  -4.901  0.00  0.00    +0.008 C 
ENDBRANCH  22  24
ENDBRANCH  14  22
ENDBRANCH   6  14
TORSDOF 6
ENDMDL
MODEL 7
REMARK VINA RESULT:      -7.0      2.981      4.983
REMARK  Name = 
REMARK  6 active torsions:
REMARK  status: ('A' for Active; 'I' for Inactive)
REMARK    1  A    between atoms: C_2  and  O_4
REMARK    2  A    between atoms: O_4  and  C_5
REMARK    3  A    between atoms: N_12  and  C_13
REMARK    4  A    between atoms: C_13  and  C_14
REMARK    5  A    between atoms: C_13  and  C_19
REMARK    6  A    between atoms: C_14  and  C_16
REMARK                            x       y       z     vdW  Elec       q    Type
REMARK                         _______ _______ _______ _____ _____    ______ ____
ROOT
ATOM      1  C   UNL     1       2.386   6.268  -9.917  0.00  0.00    +0.178 A 
ATOM      2  S   UNL     1       3.854   6.224  -9.025  0.00  0.00    -0.055 S 
ATOM      3  C   UNL     1       3.241   6.669  -7.483  0.00  0.00    +0.009 A 
ATOM      4  C   UNL     1       3.697   6.616  -6.058  0.00  0.00    +0.050 C 
ATOM      5  C   UNL     1       2.761   5.619  -5.384  0.00  0.00    +0.078 C 
ATOM      6  N   UNL     1       1.454   6.276  -5.327  0.00  0.00    -0.260 NA
ATOM      7  C   UNL     1       0.876   6.440  -6.628  0.00  0.00    +0.100 C 
ATOM      8  C   UNL     1       1.873   6.580  -7.721  0.00  0.00    -0.000 A 
ATOM      9  C   UNL     1       1.593   6.980  -9.023  0.00  0.00    +0.042 A 
ENDROOT
BRANCH   1  10
ATOM     10  O   UNL     1       2.134   5.996 -11.268  0.00  0.00    -0.417 OA
BRANCH  10  12
ATOM     11  C   UNL     1       0.186   4.828 -11.541  0.00  0.00    +0.122 C 
ATOM     12  C   UNL     1       0.829   5.818 -11.739  0.00  0.00    +0.323 C 
ATOM     13  O   UNL     1       0.346   6.723 -12.484  0.00  0.00    -0.250 OA
ENDBRANCH  10  12
ENDBRANCH   1  10
BRANCH   6  14
ATOM     14  C   UNL     1       0.590   5.013  -4.821  0.00  0.00    +0.141 C 
BRANCH  14  15
ATOM     15  C   UNL     1      -0.800   5.897  -4.744  0.00  0.00    +0.027 A 
ATOM     16  C   UNL     1      -1.651   5.578  -5.800  0.00  0.00    +0.138 A 
ATOM     17  F   UNL     1      -1.472   4.462  -6.559  0.00  0.00    -0.204 F 
ATOM     18  C   UNL     1      -2.691   6.468  -6.031  0.00  0.00    +0.029 A 
ATOM     19  C   UNL     1      -2.813   7.622  -5.270  0.00  0.00    +0.002 A 
ATOM     20  C   UNL     1      -1.671   8.075  -4.621  0.00  0.00    -0.000 A 
ATOM     21  C   UNL     1      -0.567   7.242  -4.569  0.00  0.00    -0.000 A 
ENDBRANCH  14  15
BRANCH  14  22
ATOM     22  C   UNL     1       0.963   5.316  -3.244  0.00  0.00    +0.169 C 
ATOM     23  O   UNL     1       0.137   4.810  -2.501  0.00  0.00    -0.294 OA
BRANCH  22  24
ATOM     24  C   UNL     1       2.277   5.749  -2.905  0.00  0.00    +0.059 C 
ATOM     25  C   UNL     1       2.673   6.699  -1.860  0.00  0.00    +0.008 C 
ATOM     26  C   UNL     1       3.197   5.236  -1.903  0.00  0.00    +0.008 C 
ENDBRANCH  22  24
ENDBRANCH  14  22
ENDBRANCH   6  14
TORSDOF 6
ENDMDL
MODEL 8
REMARK VINA RESULT:      -7.0      3.999      7.883
REMARK  Name = 
REMARK  6 active torsions:
REMARK  status: ('A' for Active; 'I' for Inactive)
REMARK    1  A    between atoms: C_2  and  O_4
REMARK    2  A    between atoms: O_4  and  C_5
REMARK    3  A    between atoms: N_12  and  C_13
REMARK    4  A    between atoms: C_13  and  C_14
REMARK    5  A    between atoms: C_13  and  C_19
REMARK    6  A    between atoms: C_14  and  C_16
REMARK                            x       y       z     vdW  Elec       q    Type
REMARK                         _______ _______ _______ _____ _____    ______ ____
ROOT
ATOM      1  C   UNL     1       3.025   7.809   0.094  0.00  0.00    +0.178 A 
ATOM      2  S   UNL     1       4.364   6.830  -0.353  0.00  0.00    -0.055 S 
ATOM      3  C   UNL     1       3.557   5.744  -1.411  0.00  0.00    +0.009 A 
ATOM      4  C   UNL     1       3.930   4.755  -2.471  0.00  0.00    +0.050 C 
ATOM      5  C   UNL     1       3.384   5.345  -3.767  0.00  0.00    +0.078 C 
ATOM      6  N   UNL     1       1.928   5.243  -3.667  0.00  0.00    -0.260 NA
ATOM      7  C   UNL     1       1.394   6.113  -2.660  0.00  0.00    +0.100 C 
ATOM      8  C   UNL     1       2.326   6.380  -1.535  0.00  0.00    -0.000 A 
ATOM      9  C   UNL     1       1.986   6.989  -0.332  0.00  0.00    +0.042 A 
ENDROOT
BRANCH   1  10
ATOM     10  O   UNL     1       2.954   8.922   0.942  0.00  0.00    -0.417 OA
BRANCH  10  12
ATOM     11  C   UNL     1       2.977  11.014   0.018  0.00  0.00    +0.122 C 
ATOM     12  C   UNL     1       2.363  10.117   0.520  0.00  0.00    +0.323 C 
ATOM     13  O   UNL     1       1.130  10.281   0.766  0.00  0.00    -0.250 OA
ENDBRANCH  10  12
ENDBRANCH   1  10
BRANCH   6  14
ATOM     14  C   UNL     1       1.553   6.107  -4.976  0.00  0.00    +0.141 C 
BRANCH  14  15
ATOM     15  C   UNL     1       0.001   5.547  -4.995  0.00  0.00    +0.027 A 
ATOM     16  C   UNL     1      -0.678   6.004  -6.123  0.00  0.00    +0.138 A 
ATOM     17  F   UNL     1      -0.024   6.543  -7.190  0.00  0.00    -0.204 F 
ATOM     18  C   UNL     1      -2.060   5.877  -6.092  0.00  0.00    +0.029 A 
ATOM     19  C   UNL     1      -2.696   5.371  -4.967  0.00  0.00    +0.002 A 
ATOM     20  C   UNL     1      -1.998   5.427  -3.767  0.00  0.00    -0.000 A 
ATOM     21  C   UNL     1      -0.653   5.749  -3.800  0.00  0.00    -0.000 A 
ENDBRANCH  14  15
BRANCH  14  22
ATOM     22  C   UNL     1       2.078   4.913  -5.985  0.00  0.00    +0.169 C 
ATOM     23  O   UNL     1       1.454   3.882  -5.795  0.00  0.00    -0.294 OA
BRANCH  22  24
ATOM     24  C   UNL     1       2.850   5.256  -7.132  0.00  0.00    +0.059 C 
ATOM     25  C   UNL     1       3.278   6.591  -7.565  0.00  0.00    +0.008 C 
ATOM     26  C   UNL     1       4.285   5.446  -7.266  0.00  0.00    +0.008 C 
ENDBRANCH  22  24
ENDBRANCH  14  22
ENDBRANCH   6  14
TORSDOF 6
ENDMDL
MODEL 9
REMARK VINA RESULT:      -6.7      1.691      2.031
REMARK  Name = 
REMARK  6 active torsions:
REMARK  status: ('A' for Active; 'I' for Inactive)
REMARK    1  A    between atoms: C_2  and  O_4
REMARK    2  A    between atoms: O_4  and  C_5
REMARK    3  A    between atoms: N_12  and  C_13
REMARK    4  A    between atoms: C_13  and  C_14
REMARK    5  A    between atoms: C_13  and  C_19
REMARK    6  A    between atoms: C_14  and  C_16
REMARK                            x       y       z     vdW  Elec       q    Type
REMARK                         _______ _______ _______ _____ _____    ______ ____
ROOT
ATOM      1  C   UNL     1       5.399   5.414  -9.623  0.00  0.00    +0.178 A 
ATOM      2  S   UNL     1       3.777   4.915  -9.888  0.00  0.00    -0.055 S 
ATOM      3  C   UNL     1       3.318   4.628  -8.257  0.00  0.00    +0.009 A 
ATOM      4  C   UNL     1       2.049   4.452  -7.483  0.00  0.00    +0.050 C 
ATOM      5  C   UNL     1       1.974   5.672  -6.572  0.00  0.00    +0.078 C 
ATOM      6  N   UNL     1       3.036   5.494  -5.580  0.00  0.00    -0.260 NA
ATOM      7  C   UNL     1       4.341   5.599  -6.163  0.00  0.00    +0.100 C 
ATOM      8  C   UNL     1       4.403   5.185  -7.588  0.00  0.00    -0.000 A 
ATOM      9  C   UNL     1       5.569   4.969  -8.316  0.00  0.00    +0.042 A 
ENDROOT
BRANCH   1  10
ATOM     10  O   UNL     1       6.385   5.822 -10.531  0.00  0.00    -0.417 OA
BRANCH  10  12
ATOM     11  C   UNL     1       6.185   7.987 -11.240  0.00  0.00    +0.122 C 
ATOM     12  C   UNL     1       6.783   7.160 -10.615  0.00  0.00    +0.323 C 
ATOM     13  O   UNL     1       7.880   7.481 -10.067  0.00  0.00    -0.250 OA
ENDBRANCH  10  12
ENDBRANCH   1  10
BRANCH   6  14
ATOM     14  C   UNL     1       2.945   6.947  -4.890  0.00  0.00    +0.141 C 
BRANCH  14  15
ATOM     15  C   UNL     1       3.159   6.328  -3.377  0.00  0.00    +0.027 A 
ATOM     16  C   UNL     1       3.651   7.299  -2.507  0.00  0.00    +0.138 A 
ATOM     17  F   UNL     1       3.622   8.626  -2.815  0.00  0.00    -0.204 F 
ATOM     18  C   UNL     1       4.174   6.832  -1.309  0.00  0.00    +0.029 A 
ATOM     19  C   UNL     1       4.235   5.470  -1.050  0.00  0.00    +0.002 A 
ATOM     20  C   UNL     1       4.193   4.616  -2.145  0.00  0.00    -0.000 A 
ATOM     21  C   UNL     1       3.857   5.142  -3.380  0.00  0.00    -0.000 A 
ENDBRANCH  14  15
BRANCH  14  22
ATOM     22  C   UNL     1       1.302   6.857  -4.780  0.00  0.00    +0.169 C 
ATOM     23  O   UNL     1       0.774   7.462  -5.699  0.00  0.00    -0.294 OA
BRANCH  22  24
ATOM     24  C   UNL     1       0.710   5.864  -3.947  0.00  0.00    +0.059 C 
ATOM     25  C   UNL     1      -0.003   6.058  -2.680  0.00  0.00    +0.008 C 
ATOM     26  C   UNL     1      -0.658   5.374  -3.912  0.00  0.00    +0.008 C 
ENDBRANCH  22  24
ENDBRANCH  14  22
ENDBRANCH   6  14
TORSDOF 6
ENDMDL
