MODEL 1
REMARK VINA RESULT:      -7.9      0.000      0.000
REMARK  Name = 
REMARK  11 active torsions:
REMARK  status: ('A' for Active; 'I' for Inactive)
REMARK    1  A    between atoms: C_2  and  O_3
REMARK    2  A    between atoms: O_3  and  C_4
REMARK    3  A    between atoms: C_9  and  O_10
REMARK    4  A    between atoms: O_10  and  C_11
REMARK    5  A    between atoms: C_11  and  C_12
REMARK    6  A    between atoms: C_12  and  N_13
REMARK    7  A    between atoms: N_13  and  C_14
REMARK    8  A    between atoms: C_14  and  C_16
REMARK    9  A    between atoms: C_16  and  C_17
REMARK   10  A    between atoms: C_20  and  O_21
REMARK   11  A    between atoms: C_23  and  S_24
REMARK                            x       y       z     vdW  Elec       q    Type
REMARK                         _______ _______ _______ _____ _____    ______ ____
ROOT
ATOM      1  C   UNL     1       3.656   5.959  -5.750  0.00  0.00    +0.077 C 
ATOM      2  C   UNL     1       4.695   5.416  -4.561  0.00  0.00    +0.019 C 
ENDROOT
BRANCH   1   3
ATOM      3  C   UNL     1       2.705   4.595  -5.622  0.00  0.00    +0.044 C 
BRANCH   3   4
ATOM      4  C   UNL     1       1.321   4.994  -5.538  0.00  0.00    -0.019 A 
ATOM      5  C   UNL     1       0.842   5.365  -4.285  0.00  0.00    +0.019 A 
ATOM      6  C   UNL     1      -0.504   5.503  -4.036  0.00  0.00    +0.158 A 
ATOM      7  C   UNL     1      -1.372   5.696  -5.093  0.00  0.00    +0.157 A 
ATOM      8  C   UNL     1      -0.908   5.394  -6.348  0.00  0.00    +0.038 A 
ATOM      9  C   UNL     1       0.356   4.881  -6.510  0.00  0.00    -0.001 A 
BRANCH   6  10
ATOM     10  S   UNL     1      -1.190   5.437  -2.421  0.00  0.00    +0.096 S 
ATOM     11  O   UNL     1      -0.174   4.721  -1.567  0.00  0.00    -0.150 OA
ATOM     12  O   UNL     1      -2.509   4.721  -2.444  0.00  0.00    -0.150 OA
ATOM     13  N   UNL     1      -1.347   7.064  -1.849  0.00  0.00    +0.039 NA
ENDBRANCH   6  10
BRANCH   7  14
ATOM     14  O   UNL     1      -2.518   6.461  -4.860  0.00  0.00    -0.470 OA
ATOM     15  C   UNL     1      -2.507   7.855  -5.062  0.00  0.00    +0.253 C 
ENDBRANCH   7  14
ENDBRANCH   3   4
ENDBRANCH   1   3
BRANCH   1  16
ATOM     16  N   UNL     1       4.582   5.351  -6.905  0.00  0.00    -0.215 NA
BRANCH  16  17
ATOM     17  C   UNL     1       3.966   5.793  -8.139  0.00  0.00    +0.136 C 
BRANCH  17  18
ATOM     18  C   UNL     1       4.550   4.936  -9.247  0.00  0.00    +0.224 C 
BRANCH  18  19
ATOM     19  O   UNL     1       4.623   5.771 -10.402  0.00  0.00    -0.471 OA
BRANCH  19  21
ATOM     20  C   UNL     1       6.031   5.398 -12.328  0.00  0.00    +0.172 A 
ATOM     21  C   UNL     1       5.866   5.872 -11.034  0.00  0.00    +0.172 A 
ATOM     22  C   UNL     1       6.958   6.368 -10.335  0.00  0.00    +0.040 A 
ATOM     23  C   UNL     1       8.196   6.202 -10.920  0.00  0.00    +0.003 A 
ATOM     24  C   UNL     1       8.313   6.018 -12.281  0.00  0.00    +0.003 A 
ATOM     25  C   UNL     1       7.283   5.342 -12.923  0.00  0.00    +0.040 A 
BRANCH  20  26
ATOM     26  O   UNL     1       4.927   4.753 -12.893  0.00  0.00    -0.472 OA
BRANCH  26  28
ATOM     27  C   UNL     1       3.904   5.661 -14.075  0.00  0.00    +0.051 C 
ATOM     28  C   UNL     1       4.125   5.513 -13.797  0.00  0.00    +0.206 C 
ENDBRANCH  26  28
ENDBRANCH  20  26
ENDBRANCH  19  21
ENDBRANCH  18  19
ENDBRANCH  17  18
ENDBRANCH  16  17
ENDBRANCH   1  16
TORSDOF 11
ENDMDL
MODEL 2
REMARK VINA RESULT:      -7.7      2.738      7.970
REMARK  Name = 
REMARK  11 active torsions:
REMARK  status: ('A' for Active; 'I' for Inactive)
REMARK    1  A    between atoms: C_2  and  O_3
REMARK    2  A    between atoms: O_3  and  C_4
REMARK    3  A    between atoms: C_9  and  O_10
REMARK    4  A    between atoms: O_10  and  C_11
REMARK    5  A    between atoms: C_11  and  C_12
REMARK    6  A    between atoms: C_12  and  N_13
REMARK    7  A    between atoms: N_13  and  C_14
REMARK    8  A    between atoms: C_14  and  C_16
REMARK    9  A    between atoms: C_16  and  C_17
REMARK   10  A    between atoms: C_20  and  O_21
REMARK   11  A    between atoms: C_23  and  S_24
REMARK                            x       y       z     vdW  Elec       q    Type
REMARK                         _______ _______ _______ _____ _____    ______ ____
ROOT
ATOM      1  C   UNL     1       4.160   6.124  -4.605  0.00  0.00    +0.077 C 
ATOM      2  C   UNL     1       5.350   7.123  -3.995  0.00  0.00    +0.019 C 
ENDROOT
BRANCH   1   3
ATOM      3  C   UNL     1       3.840   7.175  -5.859  0.00  0.00    +0.044 C 
BRANCH   3   4
ATOM      4  C   UNL     1       4.095   6.505  -7.111  0.00  0.00    -0.019 A 
ATOM      5  C   UNL     1       3.257   6.814  -8.178  0.00  0.00    +0.019 A 
ATOM      6  C   UNL     1       3.234   6.054  -9.325  0.00  0.00    +0.158 A 
ATOM      7  C   UNL     1       4.312   5.242  -9.621  0.00  0.00    +0.157 A 
ATOM      8  C   UNL     1       5.187   4.966  -8.602  0.00  0.00    +0.038 A 
ATOM      9  C   UNL     1       4.951   5.455  -7.340  0.00  0.00    -0.001 A 
BRANCH   6  10
ATOM     10  S   UNL     1       1.882   6.052 -10.445  0.00  0.00    +0.096 S 
ATOM     11  O   UNL     1       1.348   4.641 -10.449  0.00  0.00    -0.150 OA
ATOM     12  O   UNL     1       2.333   6.486 -11.808  0.00  0.00    -0.150 OA
ATOM     13  N   UNL     1       0.664   7.102  -9.801  0.00  0.00    +0.039 NA
ENDBRANCH   6  10
BRANCH   7  14
ATOM     14  O   UNL     1       4.606   5.021 -10.969  0.00  0.00    -0.470 OA
ATOM     15  C   UNL     1       5.741   5.607 -11.563  0.00  0.00    +0.253 C 
ENDBRANCH   7  14
ENDBRANCH   3   4
ENDBRANCH   1   3
BRANCH   1  16
ATOM     16  N   UNL     1       3.059   6.758  -3.632  0.00  0.00    -0.215 NA
BRANCH  16  17
ATOM     17  C   UNL     1       2.605   5.648  -2.821  0.00  0.00    +0.136 C 
BRANCH  17  18
ATOM     18  C   UNL     1       1.091   5.625  -2.925  0.00  0.00    +0.224 C 
BRANCH  18  19
ATOM     19  O   UNL     1       0.747   6.552  -3.955  0.00  0.00    -0.471 OA
BRANCH  19  21
ATOM     20  C   UNL     1      -0.202   5.594  -5.958  0.00  0.00    +0.172 A 
ATOM     21  C   UNL     1      -0.366   6.243  -4.742  0.00  0.00    +0.172 A 
ATOM     22  C   UNL     1      -1.629   6.664  -4.347  0.00  0.00    +0.040 A 
ATOM     23  C   UNL     1      -2.637   6.558  -5.283  0.00  0.00    +0.003 A 
ATOM     24  C   UNL     1      -2.537   5.667  -6.330  0.00  0.00    +0.003 A 
ATOM     25  C   UNL     1      -1.266   5.414  -6.830  0.00  0.00    +0.040 A 
BRANCH  20  26
ATOM     26  O   UNL     1       1.117   5.366  -6.361  0.00  0.00    -0.472 OA
BRANCH  26  28
ATOM     27  C   UNL     1       1.786   3.690  -6.263  0.00  0.00    +0.051 C 
ATOM     28  C   UNL     1       1.606   4.030  -6.252  0.00  0.00    +0.206 C 
ENDBRANCH  26  28
ENDBRANCH  20  26
ENDBRANCH  19  21
ENDBRANCH  18  19
ENDBRANCH  17  18
ENDBRANCH  16  17
ENDBRANCH   1  16
TORSDOF 11
ENDMDL
MODEL 3
REMARK VINA RESULT:      -7.7      3.398      9.741
REMARK  Name = 
REMARK  11 active torsions:
REMARK  status: ('A' for Active; 'I' for Inactive)
REMARK    1  A    between atoms: C_2  and  O_3
REMARK    2  A    between atoms: O_3  and  C_4
REMARK    3  A    between atoms: C_9  and  O_10
REMARK    4  A    between atoms: O_10  and  C_11
REMARK    5  A    between atoms: C_11  and  C_12
REMARK    6  A    between atoms: C_12  and  N_13
REMARK    7  A    between atoms: N_13  and  C_14
REMARK    8  A    between atoms: C_14  and  C_16
REMARK    9  A    between atoms: C_16  and  C_17
REMARK   10  A    between atoms: C_20  and  O_21
REMARK   11  A    between atoms: C_23  and  S_24
REMARK                            x       y       z     vdW  Elec       q    Type
REMARK                         _______ _______ _______ _____ _____    ______ ____
ROOT
ATOM      1  C   UNL     1       1.594   6.319  -8.973  0.00  0.00    +0.077 C 
ATOM      2  C   UNL     1       0.112   5.557  -9.085  0.00  0.00    +0.019 C 
ENDROOT
BRANCH   1   3
ATOM      3  C   UNL     1       2.412   4.890  -9.236  0.00  0.00    +0.044 C 
BRANCH   3   4
ATOM      4  C   UNL     1       3.808   5.182  -9.453  0.00  0.00    -0.019 A 
ATOM      5  C   UNL     1       4.197   5.489 -10.754  0.00  0.00    +0.019 A 
ATOM      6  C   UNL     1       5.522   5.521 -11.126  0.00  0.00    +0.158 A 
ATOM      7  C   UNL     1       6.493   5.671 -10.156  0.00  0.00    +0.157 A 
ATOM      8  C   UNL     1       6.125   5.431  -8.857  0.00  0.00    +0.038 A 
ATOM      9  C   UNL     1       4.847   5.018  -8.569  0.00  0.00    -0.001 A 
BRANCH   6  10
ATOM     10  S   UNL     1       6.052   5.369 -12.793  0.00  0.00    +0.096 S 
ATOM     11  O   UNL     1       4.966   4.603 -13.506  0.00  0.00    -0.150 OA
ATOM     12  O   UNL     1       7.374   4.662 -12.857  0.00  0.00    -0.150 OA
ATOM     13  N   UNL     1       6.137   6.964 -13.465  0.00  0.00    +0.039 NA
ENDBRANCH   6  10
BRANCH   7  14
ATOM     14  O   UNL     1       7.666   6.342 -10.511  0.00  0.00    -0.470 OA
ATOM     15  C   UNL     1       7.757   7.743 -10.397  0.00  0.00    +0.253 C 
ENDBRANCH   7  14
ENDBRANCH   3   4
ENDBRANCH   1   3
BRANCH   1  16
ATOM     16  N   UNL     1       1.604   6.171  -7.380  0.00  0.00    -0.215 NA
BRANCH  16  17
ATOM     17  C   UNL     1       1.039   4.862  -7.129  0.00  0.00    +0.136 C 
BRANCH  17  18
ATOM     18  C   UNL     1       1.246   4.575  -5.653  0.00  0.00    +0.224 C 
BRANCH  18  19
ATOM     19  O   UNL     1       0.930   5.784  -4.963  0.00  0.00    -0.471 OA
BRANCH  19  21
ATOM     20  C   UNL     1      -1.276   6.090  -4.030  0.00  0.00    +0.172 A 
ATOM     21  C   UNL     1       0.045   5.687  -3.886  0.00  0.00    +0.172 A 
ATOM     22  C   UNL     1       0.509   5.271  -2.646  0.00  0.00    +0.040 A 
ATOM     23  C   UNL     1      -0.343   5.444  -1.574  0.00  0.00    +0.003 A 
ATOM     24  C   UNL     1      -1.703   5.552  -1.766  0.00  0.00    +0.003 A 
ATOM     25  C   UNL     1      -2.135   6.154  -2.942  0.00  0.00    +0.040 A 
BRANCH  20  26
ATOM     26  O   UNL     1      -1.614   6.663  -5.259  0.00  0.00    -0.472 OA
BRANCH  26  28
ATOM     27  C   UNL     1      -2.544   5.676  -6.454  0.00  0.00    +0.051 C 
ATOM     28  C   UNL     1      -2.370   5.857  -6.163  0.00  0.00    +0.206 C 
ENDBRANCH  26  28
ENDBRANCH  20  26
ENDBRANCH  19  21
ENDBRANCH  18  19
ENDBRANCH  17  18
ENDBRANCH  16  17
ENDBRANCH   1  16
TORSDOF 11
ENDMDL
MODEL 4
REMARK VINA RESULT:      -7.6      2.740      8.646
REMARK  Name = 
REMARK  11 active torsions:
REMARK  status: ('A' for Active; 'I' for Inactive)
REMARK    1  A    between atoms: C_2  and  O_3
REMARK    2  A    between atoms: O_3  and  C_4
REMARK    3  A    between atoms: C_9  and  O_10
REMARK    4  A    between atoms: O_10  and  C_11
REMARK    5  A    between atoms: C_11  and  C_12
REMARK    6  A    between atoms: C_12  and  N_13
REMARK    7  A    between atoms: N_13  and  C_14
REMARK    8  A    between atoms: C_14  and  C_16
REMARK    9  A    between atoms: C_16  and  C_17
REMARK   10  A    between atoms: C_20  and  O_21
REMARK   11  A    between atoms: C_23  and  S_24
REMARK                            x       y       z     vdW  Elec       q    Type
REMARK                         _______ _______ _______ _____ _____    ______ ____
ROOT
ATOM      1  C   UNL     1       4.065   6.362  -4.595  0.00  0.00    +0.077 C 
ATOM      2  C   UNL     1       5.146   7.616  -4.381  0.00  0.00    +0.019 C 
ENDROOT
BRANCH   1   3
ATOM      3  C   UNL     1       3.295   7.162  -5.838  0.00  0.00    +0.044 C 
BRANCH   3   4
ATOM      4  C   UNL     1       3.614   6.510  -7.085  0.00  0.00    -0.019 A 
ATOM      5  C   UNL     1       2.806   6.804  -8.180  0.00  0.00    +0.019 A 
ATOM      6  C   UNL     1       2.847   6.053  -9.332  0.00  0.00    +0.158 A 
ATOM      7  C   UNL     1       3.957   5.276  -9.595  0.00  0.00    +0.157 A 
ATOM      8  C   UNL     1       4.804   5.017  -8.547  0.00  0.00    +0.038 A 
ATOM      9  C   UNL     1       4.509   5.488  -7.291  0.00  0.00    -0.001 A 
BRANCH   6  10
ATOM     10  S   UNL     1       1.536   6.021 -10.500  0.00  0.00    +0.096 S 
ATOM     11  O   UNL     1       0.538   7.050 -10.033  0.00  0.00    -0.150 OA
ATOM     12  O   UNL     1       0.935   4.648 -10.571  0.00  0.00    -0.150 OA
ATOM     13  N   UNL     1       2.179   6.525 -12.027  0.00  0.00    +0.039 NA
ENDBRANCH   6  10
BRANCH   7  14
ATOM     14  O   UNL     1       4.307   5.075 -10.933  0.00  0.00    -0.470 OA
ATOM     15  C   UNL     1       5.549   5.517 -11.427  0.00  0.00    +0.253 C 
ENDBRANCH   7  14
ENDBRANCH   3   4
ENDBRANCH   1   3
BRANCH   1  16
ATOM     16  N   UNL     1       3.094   6.941  -3.461  0.00  0.00    -0.215 NA
BRANCH  16  17
ATOM     17  C   UNL     1       2.390   5.782  -2.955  0.00  0.00    +0.136 C 
BRANCH  17  18
ATOM     18  C   UNL     1       0.959   6.219  -2.701  0.00  0.00    +0.224 C 
BRANCH  18  19
ATOM     19  O   UNL     1       0.128   5.161  -3.175  0.00  0.00    -0.471 OA
BRANCH  19  21
ATOM     20  C   UNL     1      -1.936   5.454  -4.394  0.00  0.00    +0.172 A 
ATOM     21  C   UNL     1      -0.550   5.376  -4.378  0.00  0.00    +0.172 A 
ATOM     22  C   UNL     1       0.159   5.424  -5.571  0.00  0.00    +0.040 A 
ATOM     23  C   UNL     1      -0.582   5.377  -6.734  0.00  0.00    +0.003 A 
ATOM     24  C   UNL     1      -1.908   5.751  -6.741  0.00  0.00    +0.003 A 
ATOM     25  C   UNL     1      -2.643   5.509  -5.587  0.00  0.00    +0.040 A 
BRANCH  20  26
ATOM     26  O   UNL     1      -2.580   5.217  -3.176  0.00  0.00    -0.472 OA
BRANCH  26  28
ATOM     27  C   UNL     1      -3.240   6.672  -2.331  0.00  0.00    +0.051 C 
ATOM     28  C   UNL     1      -3.068   6.357  -2.470  0.00  0.00    +0.206 C 
ENDBRANCH  26  28
ENDBRANCH  20  26
ENDBRANCH  19  21
ENDBRANCH  18  19
ENDBRANCH  17  18
ENDBRANCH  16  17
ENDBRANCH   1  16
TORSDOF 11
ENDMDL
MODEL 5
REMARK VINA RESULT:      -7.6      2.727      4.266
REMARK  Name = 
REMARK  11 active torsions:
REMARK  status: ('A' for Active; 'I' for Inactive)
REMARK    1  A    between atoms: C_2  and  O_3
REMARK    2  A    between atoms: O_3  and  C_4
REMARK    3  A    between atoms: C_9  and  O_10
REMARK    4  A    between atoms: O_10  and  C_11
REMARK    5  A    between atoms: C_11  and  C_12
REMARK    6  A    between atoms: C_12  and  N_13
REMARK    7  A    between atoms: N_13  and  C_14
REMARK    8  A    between atoms: C_14  and  C_16
REMARK    9  A    between atoms: C_16  and  C_17
REMARK   10  A    between atoms: C_20  and  O_21
REMARK   11  A    between atoms: C_23  and  S_24
REMARK                            x       y       z     vdW  Elec       q    Type
REMARK                         _______ _______ _______ _____ _____    ______ ____
ROOT
ATOM      1  C   UNL     1       0.517   6.108 -11.518  0.00  0.00    +0.077 C 
ATOM      2  C   UNL     1      -0.378   7.515 -11.600  0.00  0.00    +0.019 C 
ENDROOT
BRANCH   1   3
ATOM      3  C   UNL     1       1.462   6.713 -10.285  0.00  0.00    +0.044 C 
BRANCH   3   4
ATOM      4  C   UNL     1       0.896   6.314  -9.020  0.00  0.00    -0.019 A 
ATOM      5  C   UNL     1       1.544   6.752  -7.868  0.00  0.00    +0.019 A 
ATOM      6  C   UNL     1       1.258   6.222  -6.631  0.00  0.00    +0.158 A 
ATOM      7  C   UNL     1       0.058   5.569  -6.434  0.00  0.00    +0.157 A 
ATOM      8  C   UNL     1      -0.632   5.174  -7.553  0.00  0.00    +0.038 A 
ATOM      9  C   UNL     1      -0.103   5.396  -8.801  0.00  0.00    -0.001 A 
BRANCH   6  10
ATOM     10  S   UNL     1       2.361   6.326  -5.268  0.00  0.00    +0.096 S 
ATOM     11  O   UNL     1       2.861   4.923  -5.032  0.00  0.00    -0.150 OA
ATOM     12  O   UNL     1       1.654   6.881  -4.067  0.00  0.00    -0.150 OA
ATOM     13  N   UNL     1       3.698   7.318  -5.747  0.00  0.00    +0.039 NA
ENDBRANCH   6  10
BRANCH   7  14
ATOM     14  O   UNL     1      -0.514   5.630  -5.161  0.00  0.00    -0.470 OA
ATOM     15  C   UNL     1      -1.853   6.032  -4.991  0.00  0.00    +0.253 C 
ENDBRANCH   7  14
ENDBRANCH   3   4
ENDBRANCH   1   3
BRANCH   1  16
ATOM     16  N   UNL     1       1.500   6.608 -12.679  0.00  0.00    -0.215 NA
BRANCH  16  17
ATOM     17  C   UNL     1       2.153   5.404 -13.148  0.00  0.00    +0.136 C 
BRANCH  17  18
ATOM     18  C   UNL     1       3.628   5.736 -13.284  0.00  0.00    +0.224 C 
BRANCH  18  19
ATOM     19  O   UNL     1       4.214   5.482 -12.007  0.00  0.00    -0.471 OA
BRANCH  19  21
ATOM     20  C   UNL     1       6.227   5.901 -10.741  0.00  0.00    +0.172 A 
ATOM     21  C   UNL     1       5.608   5.531 -11.927  0.00  0.00    +0.172 A 
ATOM     22  C   UNL     1       6.373   5.293 -13.061  0.00  0.00    +0.040 A 
ATOM     23  C   UNL     1       7.714   5.608 -12.981  0.00  0.00    +0.003 A 
ATOM     24  C   UNL     1       8.350   5.679 -11.760  0.00  0.00    +0.003 A 
ATOM     25  C   UNL     1       7.597   6.110 -10.675  0.00  0.00    +0.040 A 
BRANCH  20  26
ATOM     26  O   UNL     1       5.379   6.296  -9.702  0.00  0.00    -0.472 OA
BRANCH  26  28
ATOM     27  C   UNL     1       5.017   5.125  -8.373  0.00  0.00    +0.051 C 
ATOM     28  C   UNL     1       5.134   5.343  -8.668  0.00  0.00    +0.206 C 
ENDBRANCH  26  28
ENDBRANCH  20  26
ENDBRANCH  19  21
ENDBRANCH  18  19
ENDBRANCH  17  18
ENDBRANCH  16  17
ENDBRANCH   1  16
TORSDOF 11
ENDMDL
MODEL 6
REMARK VINA RESULT:      -7.6      1.938      3.644
REMARK  Name = 
REMARK  11 active torsions:
REMARK  status: ('A' for Active; 'I' for Inactive)
REMARK    1  A    between atoms: C_2  and  O_3
REMARK    2  A    between atoms: O_3  and  C_4
REMARK    3  A    between atoms: C_9  and  O_10
REMARK    4  A    between atoms: O_10  and  C_11
REMARK    5  A    between atoms: C_11  and  C_12
REMARK    6  A    between atoms: C_12  and  N_13
REMARK    7  A    between atoms: N_13  and  C_14
REMARK    8  A    between atoms: C_14  and  C_16
REMARK    9  A    between atoms: C_16  and  C_17
REMARK   10  A    between atoms: C_20  and  O_21
REMARK   11  A    between atoms: C_23  and  S_24
REMARK                            x       y       z     vdW  Elec       q    Type
REMARK                         _______ _______ _______ _____ _____    ______ ____
ROOT
ATOM      1  C   UNL     1       1.181   4.975  -8.864  0.00  0.00    +0.077 C 
ATOM      2  C   UNL     1       0.205   4.464 -10.119  0.00  0.00    +0.019 C 
ENDROOT
BRANCH   1   3
ATOM      3  C   UNL     1      -0.121   5.591  -8.025  0.00  0.00    +0.044 C 
BRANCH   3   4
ATOM      4  C   UNL     1       0.109   5.426  -6.611  0.00  0.00    -0.019 A 
ATOM      5  C   UNL     1      -0.998   5.518  -5.772  0.00  0.00    +0.019 A 
ATOM      6  C   UNL     1      -0.864   5.642  -4.409  0.00  0.00    +0.158 A 
ATOM      7  C   UNL     1       0.317   5.258  -3.806  0.00  0.00    +0.157 A 
ATOM      8  C   UNL     1       1.413   5.103  -4.616  0.00  0.00    +0.038 A 
ATOM      9  C   UNL     1       1.318   5.369  -5.960  0.00  0.00    -0.001 A 
BRANCH   6  10
ATOM     10  S   UNL     1      -2.133   6.284  -3.378  0.00  0.00    +0.096 S 
ATOM     11  O   UNL     1      -3.108   6.974  -4.299  0.00  0.00    -0.150 OA
ATOM     12  O   UNL     1      -1.555   7.226  -2.364  0.00  0.00    -0.150 OA
ATOM     13  N   UNL     1      -2.933   4.941  -2.631  0.00  0.00    +0.039 NA
ENDBRANCH   6  10
BRANCH   7  14
ATOM     14  O   UNL     1       0.248   4.760  -2.502  0.00  0.00    -0.470 OA
ATOM     15  C   UNL     1       1.262   5.049  -1.567  0.00  0.00    +0.253 C 
ENDBRANCH   7  14
ENDBRANCH   3   4
ENDBRANCH   1   3
BRANCH   1  16
ATOM     16  N   UNL     1       1.505   6.352  -9.612  0.00  0.00    -0.215 NA
BRANCH  16  17
ATOM     17  C   UNL     1       1.562   6.002 -11.016  0.00  0.00    +0.136 C 
BRANCH  17  18
ATOM     18  C   UNL     1       2.932   6.425 -11.514  0.00  0.00    +0.224 C 
BRANCH  18  19
ATOM     19  O   UNL     1       3.862   5.491 -10.967  0.00  0.00    -0.471 OA
BRANCH  19  21
ATOM     20  C   UNL     1       5.914   5.522  -9.695  0.00  0.00    +0.172 A 
ATOM     21  C   UNL     1       5.178   5.930 -10.799  0.00  0.00    +0.172 A 
ATOM     22  C   UNL     1       5.720   6.844 -11.693  0.00  0.00    +0.040 A 
ATOM     23  C   UNL     1       6.916   7.429 -11.331  0.00  0.00    +0.003 A 
ATOM     24  C   UNL     1       7.754   6.818 -10.424  0.00  0.00    +0.003 A 
ATOM     25  C   UNL     1       7.162   6.062  -9.420  0.00  0.00    +0.040 A 
BRANCH  20  26
ATOM     26  O   UNL     1       5.232   4.745  -8.753  0.00  0.00    -0.472 OA
BRANCH  26  28
ATOM     27  C   UNL     1       4.584   5.661  -7.337  0.00  0.00    +0.051 C 
ATOM     28  C   UNL     1       4.693   5.426  -7.621  0.00  0.00    +0.206 C 
ENDBRANCH  26  28
ENDBRANCH  20  26
ENDBRANCH  19  21
ENDBRANCH  18  19
ENDBRANCH  17  18
ENDBRANCH  16  17
ENDBRANCH   1  16
TORSDOF 11
ENDMDL
MODEL 7
REMARK VINA RESULT:      -7.6      3.430      8.729
REMARK  Name = 
REMARK  11 active torsions:
REMARK  status: ('A' for Active; 'I' for Inactive)
REMARK    1  A    between atoms: C_2  and  O_3
REMARK    2  A    between atoms: O_3  and  C_4
REMARK    3  A    between atoms: C_9  and  O_10
REMARK    4  A    between atoms: O_10  and  C_11
REMARK    5  A    between atoms: C_11  and  C_12
REMARK    6  A    between atoms: C_12  and  N_13
REMARK    7  A    between atoms: N_13  and  C_14
REMARK    8  A    between atoms: C_14  and  C_16
REMARK    9  A    between atoms: C_16  and  C_17
REMARK   10  A    between atoms: C_20  and  O_21
REMARK   11  A    between atoms: C_23  and  S_24
REMARK                            x       y       z     vdW  Elec       q    Type
REMARK                         _______ _______ _______ _____ _____    ______ ____
ROOT
ATOM      1  C   UNL     1       3.287   5.182  -4.523  0.00  0.00    +0.077 C 
ATOM      2  C   UNL     1       4.564   4.736  -3.545  0.00  0.00    +0.019 C 
ENDROOT
BRANCH   1   3
ATOM      3  C   UNL     1       4.251   6.213  -5.410  0.00  0.00    +0.044 C 
BRANCH   3   4
ATOM      4  C   UNL     1       3.656   6.412  -6.709  0.00  0.00    -0.019 A 
ATOM      5  C   UNL     1       4.355   5.923  -7.809  0.00  0.00    +0.019 A 
ATOM      6  C   UNL     1       4.025   6.283  -9.095  0.00  0.00    +0.158 A 
ATOM      7  C   UNL     1       2.763   6.780  -9.356  0.00  0.00    +0.157 A 
ATOM      8  C   UNL     1       2.027   7.217  -8.284  0.00  0.00    +0.038 A 
ATOM      9  C   UNL     1       2.567   7.189  -7.021  0.00  0.00    -0.001 A 
BRANCH   6  10
ATOM     10  S   UNL     1       5.143   6.151 -10.442  0.00  0.00    +0.096 S 
ATOM     11  O   UNL     1       5.244   7.533 -11.036  0.00  0.00    -0.150 OA
ATOM     12  O   UNL     1       4.642   5.147 -11.439  0.00  0.00    -0.150 OA
ATOM     13  N   UNL     1       6.691   5.709  -9.801  0.00  0.00    +0.039 NA
ENDBRANCH   6  10
BRANCH   7  14
ATOM     14  O   UNL     1       2.212   6.522 -10.614  0.00  0.00    -0.470 OA
ATOM     15  C   UNL     1       0.840   6.229 -10.752  0.00  0.00    +0.253 C 
ENDBRANCH   7  14
ENDBRANCH   3   4
ENDBRANCH   1   3
BRANCH   1  16
ATOM     16  N   UNL     1       2.825   6.312  -3.487  0.00  0.00    -0.215 NA
BRANCH  16  17
ATOM     17  C   UNL     1       2.176   5.584  -2.416  0.00  0.00    +0.136 C 
BRANCH  17  18
ATOM     18  C   UNL     1       0.725   5.411  -2.826  0.00  0.00    +0.224 C 
BRANCH  18  19
ATOM     19  O   UNL     1       0.404   6.535  -3.644  0.00  0.00    -0.471 OA
BRANCH  19  21
ATOM     20  C   UNL     1      -1.798   6.889  -4.570  0.00  0.00    +0.172 A 
ATOM     21  C   UNL     1      -0.530   6.331  -4.664  0.00  0.00    +0.172 A 
ATOM     22  C   UNL     1      -0.218   5.498  -5.730  0.00  0.00    +0.040 A 
ATOM     23  C   UNL     1      -1.260   5.135  -6.558  0.00  0.00    +0.003 A 
ATOM     24  C   UNL     1      -2.401   5.905  -6.636  0.00  0.00    +0.003 A 
ATOM     25  C   UNL     1      -2.794   6.578  -5.485  0.00  0.00    +0.040 A 
BRANCH  20  26
ATOM     26  O   UNL     1      -2.087   7.564  -3.381  0.00  0.00    -0.472 OA
BRANCH  26  28
ATOM     27  C   UNL     1      -3.085   6.721  -2.132  0.00  0.00    +0.051 C 
ATOM     28  C   UNL     1      -2.846   6.856  -2.402  0.00  0.00    +0.206 C 
ENDBRANCH  26  28
ENDBRANCH  20  26
ENDBRANCH  19  21
ENDBRANCH  18  19
ENDBRANCH  17  18
ENDBRANCH  16  17
ENDBRANCH   1  16
TORSDOF 11
ENDMDL
MODEL 8
REMARK VINA RESULT:      -7.6      2.424      4.117
REMARK  Name = 
REMARK  11 active torsions:
REMARK  status: ('A' for Active; 'I' for Inactive)
REMARK    1  A    between atoms: C_2  and  O_3
REMARK    2  A    between atoms: O_3  and  C_4
REMARK    3  A    between atoms: C_9  and  O_10
REMARK    4  A    between atoms: O_10  and  C_11
REMARK    5  A    between atoms: C_11  and  C_12
REMARK    6  A    between atoms: C_12  and  N_13
REMARK    7  A    between atoms: N_13  and  C_14
REMARK    8  A    between atoms: C_14  and  C_16
REMARK    9  A    between atoms: C_16  and  C_17
REMARK   10  A    between atoms: C_20  and  O_21
REMARK   11  A    between atoms: C_23  and  S_24
REMARK                            x       y       z     vdW  Elec       q    Type
REMARK                         _______ _______ _______ _____ _____    ______ ____
ROOT
ATOM      1  C   UNL     1       1.735   5.321 -10.757  0.00  0.00    +0.077 C 
ATOM      2  C   UNL     1       0.507   4.717 -11.713  0.00  0.00    +0.019 C 
ENDROOT
BRANCH   1   3
ATOM      3  C   UNL     1       0.703   6.396 -10.009  0.00  0.00    +0.044 C 
BRANCH   3   4
ATOM      4  C   UNL     1       1.103   6.549  -8.631  0.00  0.00    -0.019 A 
ATOM      5  C   UNL     1       0.220   6.088  -7.659  0.00  0.00    +0.019 A 
ATOM      6  C   UNL     1       0.369   6.418  -6.332  0.00  0.00    +0.158 A 
ATOM      7  C   UNL     1       1.600   6.843  -5.873  0.00  0.00    +0.157 A 
ATOM      8  C   UNL     1       2.513   7.250  -6.813  0.00  0.00    +0.038 A 
ATOM      9  C   UNL     1       2.171   7.263  -8.143  0.00  0.00    -0.001 A 
BRANCH   6  10
ATOM     10  S   UNL     1      -0.947   6.334  -5.172  0.00  0.00    +0.096 S 
ATOM     11  O   UNL     1      -1.139   7.739  -4.659  0.00  0.00    -0.150 OA
ATOM     12  O   UNL     1      -0.610   5.375  -4.069  0.00  0.00    -0.150 OA
ATOM     13  N   UNL     1      -2.375   5.858  -6.030  0.00  0.00    +0.039 NA
ENDBRANCH   6  10
BRANCH   7  14
ATOM     14  O   UNL     1       1.939   6.543  -4.551  0.00  0.00    -0.470 OA
ATOM     15  C   UNL     1       2.899   5.554  -4.261  0.00  0.00    +0.253 C 
ENDBRANCH   7  14
ENDBRANCH   3   4
ENDBRANCH   1   3
BRANCH   1  16
ATOM     16  N   UNL     1       2.180   6.354 -11.896  0.00  0.00    -0.215 NA
BRANCH  16  17
ATOM     17  C   UNL     1       2.488   5.526 -13.043  0.00  0.00    +0.136 C 
BRANCH  17  18
ATOM     18  C   UNL     1       3.954   5.755 -13.363  0.00  0.00    +0.224 C 
BRANCH  18  19
ATOM     19  O   UNL     1       4.694   4.955 -12.442  0.00  0.00    -0.471 OA
BRANCH  19  21
ATOM     20  C   UNL     1       6.268   5.934 -10.894  0.00  0.00    +0.172 A 
ATOM     21  C   UNL     1       5.991   5.375 -12.135  0.00  0.00    +0.172 A 
ATOM     22  C   UNL     1       6.983   5.314 -13.103  0.00  0.00    +0.040 A 
ATOM     23  C   UNL     1       8.161   5.978 -12.826  0.00  0.00    +0.003 A 
ATOM     24  C   UNL     1       8.525   6.254 -11.526  0.00  0.00    +0.003 A 
ATOM     25  C   UNL     1       7.503   6.502 -10.618  0.00  0.00    +0.040 A 
BRANCH  20  26
ATOM     26  O   UNL     1       5.173   6.121 -10.045  0.00  0.00    -0.472 OA
BRANCH  26  28
ATOM     27  C   UNL     1       5.074   5.000  -8.631  0.00  0.00    +0.051 C 
ATOM     28  C   UNL     1       5.094   5.278  -8.897  0.00  0.00    +0.206 C 
ENDBRANCH  26  28
ENDBRANCH  20  26
ENDBRANCH  19  21
ENDBRANCH  18  19
ENDBRANCH  17  18
ENDBRANCH  16  17
ENDBRANCH   1  16
TORSDOF 11
ENDMDL
MODEL 9
REMARK VINA RESULT:      -7.5      3.452      8.771
REMARK  Name = 
REMARK  11 active torsions:
REMARK  status: ('A' for Active; 'I' for Inactive)
REMARK    1  A    between atoms: C_2  and  O_3
REMARK    2  A    between atoms: O_3  and  C_4
REMARK    3  A    between atoms: C_9  and  O_10
REMARK    4  A    between atoms: O_10  and  C_11
REMARK    5  A    between atoms: C_11  and  C_12
REMARK    6  A    between atoms: C_12  and  N_13
REMARK    7  A    between atoms: N_13  and  C_14
REMARK    8  A    between atoms: C_14  and  C_16
REMARK    9  A    between atoms: C_16  and  C_17
REMARK   10  A    between atoms: C_20  and  O_21
REMARK   11  A    between atoms: C_23  and  S_24
REMARK                            x       y       z     vdW  Elec       q    Type
REMARK                         _______ _______ _______ _____ _____    ______ ____
ROOT
ATOM      1  C   UNL     1       3.912   4.873  -4.934  0.00  0.00    +0.077 C 
ATOM      2  C   UNL     1       4.712   5.249  -3.518  0.00  0.00    +0.019 C 
ENDROOT
BRANCH   1   3
ATOM      3  C   UNL     1       3.963   6.457  -5.451  0.00  0.00    +0.044 C 
BRANCH   3   4
ATOM      4  C   UNL     1       3.410   6.535  -6.781  0.00  0.00    -0.019 A 
ATOM      5  C   UNL     1       4.186   6.032  -7.821  0.00  0.00    +0.019 A 
ATOM      6  C   UNL     1       3.886   6.290  -9.139  0.00  0.00    +0.158 A 
ATOM      7  C   UNL     1       2.605   6.679  -9.478  0.00  0.00    +0.157 A 
ATOM      8  C   UNL     1       1.796   7.126  -8.464  0.00  0.00    +0.038 A 
ATOM      9  C   UNL     1       2.283   7.212  -7.182  0.00  0.00    -0.001 A 
BRANCH   6  10
ATOM     10  S   UNL     1       5.066   6.158 -10.433  0.00  0.00    +0.096 S 
ATOM     11  O   UNL     1       5.184   7.538 -11.030  0.00  0.00    -0.150 OA
ATOM     12  O   UNL     1       4.619   5.145 -11.445  0.00  0.00    -0.150 OA
ATOM     13  N   UNL     1       6.585   5.731  -9.718  0.00  0.00    +0.039 NA
ENDBRANCH   6  10
BRANCH   7  14
ATOM     14  O   UNL     1       2.125   6.308 -10.737  0.00  0.00    -0.470 OA
ATOM     15  C   UNL     1       0.808   6.621 -11.127  0.00  0.00    +0.253 C 
ENDBRANCH   7  14
ENDBRANCH   3   4
ENDBRANCH   1   3
BRANCH   1  16
ATOM     16  N   UNL     1       2.485   5.024  -4.225  0.00  0.00    -0.215 NA
BRANCH  16  17
ATOM     17  C   UNL     1       2.749   5.802  -3.033  0.00  0.00    +0.136 C 
BRANCH  17  18
ATOM     18  C   UNL     1       1.402   6.086  -2.392  0.00  0.00    +0.224 C 
BRANCH  18  19
ATOM     19  O   UNL     1       0.456   5.259  -3.068  0.00  0.00    -0.471 OA
BRANCH  19  21
ATOM     20  C   UNL     1      -1.510   6.150  -4.150  0.00  0.00    +0.172 A 
ATOM     21  C   UNL     1      -0.884   5.652  -3.015  0.00  0.00    +0.172 A 
ATOM     22  C   UNL     1      -1.563   5.628  -1.805  0.00  0.00    +0.040 A 
ATOM     23  C   UNL     1      -2.786   6.267  -1.767  0.00  0.00    +0.003 A 
ATOM     24  C   UNL     1      -3.506   6.478  -2.923  0.00  0.00    +0.003 A 
ATOM     25  C   UNL     1      -2.786   6.692  -4.092  0.00  0.00    +0.040 A 
BRANCH  20  26
ATOM     26  O   UNL     1      -0.703   6.306  -5.280  0.00  0.00    -0.472 OA
BRANCH  26  28
ATOM     27  C   UNL     1      -1.004   5.255  -6.719  0.00  0.00    +0.051 C 
ATOM     28  C   UNL     1      -0.959   5.439  -6.384  0.00  0.00    +0.206 C 
ENDBRANCH  26  28
ENDBRANCH  20  26
ENDBRANCH  19  21
ENDBRANCH  18  19
ENDBRANCH  17  18
ENDBRANCH  16  17
ENDBRANCH   1  16
TORSDOF 11
ENDMDL
