MODEL 1
REMARK VINA RESULT:      -3.3      0.000      0.000
REMARK  Name = 
REMARK  1 active torsions:
REMARK  status: ('A' for Active; 'I' for Inactive)
REMARK    1  A    between atoms: C_2  and  C_3
REMARK                            x       y       z     vdW  Elec       q    Type
REMARK                         _______ _______ _______ _____ _____    ______ ____
ROOT
ATOM      1  C   UNL     1       7.423   5.774 -11.493  0.00  0.00    +0.161 C 
ATOM      2  O   UNL     1       7.751   4.653 -12.649  0.00  0.00    -0.350 OA
ATOM      3  C   UNL     1       8.904   5.759 -12.265  0.00  0.00    +0.173 C 
ENDROOT
BRANCH   1   5
ATOM      4 CL   UNL     1       6.437   8.135 -11.444  0.00  0.00    -0.111 Cl
ATOM      5  C   UNL     1       6.711   6.831 -12.666  0.00  0.00    +0.127 C 
ENDBRANCH   1   5
TORSDOF 1
ENDMDL
MODEL 2
REMARK VINA RESULT:      -3.2      1.707      1.930
REMARK  Name = 
REMARK  1 active torsions:
REMARK  status: ('A' for Active; 'I' for Inactive)
REMARK    1  A    between atoms: C_2  and  C_3
REMARK                            x       y       z     vdW  Elec       q    Type
REMARK                         _______ _______ _______ _____ _____    ______ ____
ROOT
ATOM      1  C   UNL     1       8.334   5.808 -11.844  0.00  0.00    +0.161 C 
ATOM      2  O   UNL     1       7.782   4.550 -12.743  0.00  0.00    -0.350 OA
ATOM      3  C   UNL     1       7.675   6.071 -13.356  0.00  0.00    +0.173 C 
ENDROOT
BRANCH   1   5
ATOM      4 CL   UNL     1       7.538   5.662  -9.416  0.00  0.00    -0.111 Cl
ATOM      5  C   UNL     1       6.806   5.957 -11.043  0.00  0.00    +0.127 C 
ENDBRANCH   1   5
TORSDOF 1
ENDMDL
MODEL 3
REMARK VINA RESULT:      -3.2     12.918     13.337
REMARK  Name = 
REMARK  1 active torsions:
REMARK  status: ('A' for Active; 'I' for Inactive)
REMARK    1  A    between atoms: C_2  and  C_3
REMARK                            x       y       z     vdW  Elec       q    Type
REMARK                         _______ _______ _______ _____ _____    ______ ____
ROOT
ATOM      1  C   UNL     1      -3.227   5.246  -3.607  0.00  0.00    +0.161 C 
ATOM      2  O   UNL     1      -2.479   4.881  -2.191  0.00  0.00    -0.350 OA
ATOM      3  C   UNL     1      -3.146   6.372  -2.375  0.00  0.00    +0.173 C 
ENDROOT
BRANCH   1   5
ATOM      4 CL   UNL     1      -2.399   5.691  -5.988  0.00  0.00    -0.111 Cl
ATOM      5  C   UNL     1      -1.730   5.761  -4.310  0.00  0.00    +0.127 C 
ENDBRANCH   1   5
TORSDOF 1
ENDMDL
MODEL 4
REMARK VINA RESULT:      -2.8     12.947     13.288
REMARK  Name = 
REMARK  1 active torsions:
REMARK  status: ('A' for Active; 'I' for Inactive)
REMARK    1  A    between atoms: C_2  and  C_3
REMARK                            x       y       z     vdW  Elec       q    Type
REMARK                         _______ _______ _______ _____ _____    ______ ____
ROOT
ATOM      1  C   UNL     1      -2.574   6.527  -2.449  0.00  0.00    +0.161 C 
ATOM      2  O   UNL     1      -2.791   4.904  -2.322  0.00  0.00    -0.350 OA
ATOM      3  C   UNL     1      -1.278   5.519  -2.141  0.00  0.00    +0.173 C 
ENDROOT
BRANCH   1   5
ATOM      4 CL   UNL     1      -1.971   8.158  -4.327  0.00  0.00    -0.111 Cl
ATOM      5  C   UNL     1      -2.386   6.406  -4.167  0.00  0.00    +0.127 C 
ENDBRANCH   1   5
TORSDOF 1
ENDMDL
MODEL 5
REMARK VINA RESULT:      -2.7      2.107      2.719
REMARK  Name = 
REMARK  1 active torsions:
REMARK  status: ('A' for Active; 'I' for Inactive)
REMARK    1  A    between atoms: C_2  and  C_3
REMARK                            x       y       z     vdW  Elec       q    Type
REMARK                         _______ _______ _______ _____ _____    ______ ____
ROOT
ATOM      1  C   UNL     1       6.660   6.147 -12.730  0.00  0.00    +0.161 C 
ATOM      2  O   UNL     1       6.125   4.865 -13.607  0.00  0.00    -0.350 OA
ATOM      3  C   UNL     1       5.272   5.332 -12.283  0.00  0.00    +0.173 C 
ENDROOT
BRANCH   1   5
ATOM      4 CL   UNL     1       9.183   5.963 -12.347  0.00  0.00    -0.111 Cl
ATOM      5  C   UNL     1       7.686   5.121 -11.784  0.00  0.00    +0.127 C 
ENDBRANCH   1   5
TORSDOF 1
ENDMDL
MODEL 6
REMARK VINA RESULT:      -2.7      2.517      2.910
REMARK  Name = 
REMARK  1 active torsions:
REMARK  status: ('A' for Active; 'I' for Inactive)
REMARK    1  A    between atoms: C_2  and  C_3
REMARK                            x       y       z     vdW  Elec       q    Type
REMARK                         _______ _______ _______ _____ _____    ______ ____
ROOT
ATOM      1  C   UNL     1       7.506   6.696 -10.642  0.00  0.00    +0.161 C 
ATOM      2  O   UNL     1       5.921   6.382 -10.349  0.00  0.00    -0.350 OA
ATOM      3  C   UNL     1       7.057   5.716  -9.366  0.00  0.00    +0.173 C 
ENDROOT
BRANCH   1   5
ATOM      4 CL   UNL     1       9.215   5.906 -12.376  0.00  0.00    -0.111 Cl
ATOM      5  C   UNL     1       7.603   5.372 -11.754  0.00  0.00    +0.127 C 
ENDBRANCH   1   5
TORSDOF 1
ENDMDL
MODEL 7
REMARK VINA RESULT:      -2.6     12.304     12.686
REMARK  Name = 
REMARK  1 active torsions:
REMARK  status: ('A' for Active; 'I' for Inactive)
REMARK    1  A    between atoms: C_2  and  C_3
REMARK                            x       y       z     vdW  Elec       q    Type
REMARK                         _______ _______ _______ _____ _____    ______ ____
ROOT
ATOM      1  C   UNL     1      -2.318   6.528  -4.690  0.00  0.00    +0.161 C 
ATOM      2  O   UNL     1      -1.057   5.553  -5.089  0.00  0.00    -0.350 OA
ATOM      3  C   UNL     1      -2.384   5.570  -6.057  0.00  0.00    +0.173 C 
ENDROOT
BRANCH   1   5
ATOM      4 CL   UNL     1      -3.617   6.510  -2.486  0.00  0.00    -0.111 Cl
ATOM      5  C   UNL     1      -2.997   5.299  -3.676  0.00  0.00    +0.127 C 
ENDBRANCH   1   5
TORSDOF 1
ENDMDL
MODEL 8
REMARK VINA RESULT:      -2.6     11.806     12.192
REMARK  Name = 
REMARK  1 active torsions:
REMARK  status: ('A' for Active; 'I' for Inactive)
REMARK    1  A    between atoms: C_2  and  C_3
REMARK                            x       y       z     vdW  Elec       q    Type
REMARK                         _______ _______ _______ _____ _____    ______ ____
ROOT
ATOM      1  C   UNL     1      -1.654   5.791  -4.667  0.00  0.00    +0.161 C 
ATOM      2  O   UNL     1      -2.752   6.892  -4.140  0.00  0.00    -0.350 OA
ATOM      3  C   UNL     1      -2.939   5.317  -3.710  0.00  0.00    +0.173 C 
ENDROOT
BRANCH   1   5
ATOM      4 CL   UNL     1      -1.030   5.249  -7.089  0.00  0.00    -0.111 Cl
ATOM      5  C   UNL     1      -2.537   5.558  -6.139  0.00  0.00    +0.127 C 
ENDBRANCH   1   5
TORSDOF 1
ENDMDL
MODEL 9
REMARK VINA RESULT:      -2.6      8.514      8.709
REMARK  Name = 
REMARK  1 active torsions:
REMARK  status: ('A' for Active; 'I' for Inactive)
REMARK    1  A    between atoms: C_2  and  C_3
REMARK                            x       y       z     vdW  Elec       q    Type
REMARK                         _______ _______ _______ _____ _____    ______ ____
ROOT
ATOM      1  C   UNL     1       0.957   4.434  -5.799  0.00  0.00    +0.161 C 
ATOM      2  O   UNL     1       2.091   3.484  -6.513  0.00  0.00    -0.350 OA
ATOM      3  C   UNL     1       2.584   4.757  -5.600  0.00  0.00    +0.173 C 
ENDROOT
BRANCH   1   5
ATOM      4 CL   UNL     1      -0.971   5.321  -7.230  0.00  0.00    -0.111 Cl
ATOM      5  C   UNL     1       0.834   5.419  -7.218  0.00  0.00    +0.127 C 
ENDBRANCH   1   5
TORSDOF 1
ENDMDL
