MODEL 1
REMARK VINA RESULT:      -5.4      0.000      0.000
REMARK  Name = 
REMARK  1 active torsions:
REMARK  status: ('A' for Active; 'I' for Inactive)
REMARK    1  A    between atoms: C_6  and  C_7
REMARK                            x       y       z     vdW  Elec       q    Type
REMARK                         _______ _______ _______ _____ _____    ______ ____
ROOT
ATOM      1  C   UNL     1       0.905   6.348  -4.701  0.00  0.00    +0.090 C 
ATOM      2  N   UNL     1      -0.158   5.613  -5.009  0.00  0.00    -0.269 NA
ATOM      3  C   UNL     1      -1.118   6.767  -5.559  0.00  0.00    +0.082 C 
ATOM      4  C   UNL     1      -2.018   5.659  -6.424  0.00  0.00    +0.022 C 
ATOM      5  C   UNL     1      -0.823   5.266  -7.274  0.00  0.00    +0.019 C 
ATOM      6  C   UNL     1       0.179   4.948  -6.225  0.00  0.00    +0.072 C 
ENDROOT
BRANCH   3   7
ATOM      7  C   UNL     1      -2.169   6.702  -4.314  0.00  0.00    +0.011 A 
ATOM      8  C   UNL     1      -1.984   7.797  -3.510  0.00  0.00    +0.096 A 
ATOM      9  N   UNL     1      -2.147   7.670  -2.173  0.00  0.00    -0.243 NA
ATOM     10  C   UNL     1      -2.443   6.443  -1.676  0.00  0.00    +0.099 A 
ATOM     11  C   UNL     1      -3.110   5.574  -2.533  0.00  0.00    +0.020 A 
ATOM     12  C   UNL     1      -2.565   5.534  -3.816  0.00  0.00    +0.000 A 
ENDBRANCH   3   7
TORSDOF 1
ENDMDL
MODEL 2
REMARK VINA RESULT:      -5.2      8.232     10.908
REMARK  Name = 
REMARK  1 active torsions:
REMARK  status: ('A' for Active; 'I' for Inactive)
REMARK    1  A    between atoms: C_6  and  C_7
REMARK                            x       y       z     vdW  Elec       q    Type
REMARK                         _______ _______ _______ _____ _____    ______ ____
ROOT
ATOM      1  C   UNL     1       3.637   5.957 -11.351  0.00  0.00    +0.090 C 
ATOM      2  N   UNL     1       4.698   5.368 -10.809  0.00  0.00    -0.269 NA
ATOM      3  C   UNL     1       5.434   6.658 -10.217  0.00  0.00    +0.082 C 
ATOM      4  C   UNL     1       6.275   5.722  -9.120  0.00  0.00    +0.022 C 
ATOM      5  C   UNL     1       4.996   5.263  -8.443  0.00  0.00    +0.019 C 
ATOM      6  C   UNL     1       4.224   4.760  -9.609  0.00  0.00    +0.072 C 
ENDROOT
BRANCH   3   7
ATOM      7  C   UNL     1       6.684   6.618 -11.263  0.00  0.00    +0.011 A 
ATOM      8  C   UNL     1       6.346   7.315 -12.394  0.00  0.00    +0.096 A 
ATOM      9  N   UNL     1       6.804   6.888 -13.594  0.00  0.00    -0.243 NA
ATOM     10  C   UNL     1       7.544   5.753 -13.631  0.00  0.00    +0.099 A 
ATOM     11  C   UNL     1       8.254   5.439 -12.477  0.00  0.00    +0.020 A 
ATOM     12  C   UNL     1       7.500   5.570 -11.311  0.00  0.00    +0.000 A 
ENDBRANCH   3   7
TORSDOF 1
ENDMDL
MODEL 3
REMARK VINA RESULT:      -5.2      1.939      4.665
REMARK  Name = 
REMARK  1 active torsions:
REMARK  status: ('A' for Active; 'I' for Inactive)
REMARK    1  A    between atoms: C_6  and  C_7
REMARK                            x       y       z     vdW  Elec       q    Type
REMARK                         _______ _______ _______ _____ _____    ______ ____
ROOT
ATOM      1  C   UNL     1       0.720   6.831  -4.161  0.00  0.00    +0.090 C 
ATOM      2  N   UNL     1      -0.082   6.918  -5.217  0.00  0.00    -0.269 NA
ATOM      3  C   UNL     1      -0.735   5.460  -5.166  0.00  0.00    +0.082 C 
ATOM      4  C   UNL     1      -2.051   5.976  -6.054  0.00  0.00    +0.022 C 
ATOM      5  C   UNL     1      -2.456   6.973  -4.983  0.00  0.00    +0.019 C 
ATOM      6  C   UNL     1      -1.185   7.717  -4.793  0.00  0.00    +0.072 C 
ENDROOT
BRANCH   3   7
ATOM      7  C   UNL     1       0.003   4.912  -6.512  0.00  0.00    +0.011 A 
ATOM      8  C   UNL     1       1.095   4.163  -6.154  0.00  0.00    +0.096 A 
ATOM      9  N   UNL     1       2.202   4.197  -6.931  0.00  0.00    -0.243 NA
ATOM     10  C   UNL     1       2.202   5.014  -8.013  0.00  0.00    +0.099 A 
ATOM     11  C   UNL     1       0.963   5.292  -8.578  0.00  0.00    +0.020 A 
ATOM     12  C   UNL     1      -0.013   5.621  -7.637  0.00  0.00    +0.000 A 
ENDBRANCH   3   7
TORSDOF 1
ENDMDL
MODEL 4
REMARK VINA RESULT:      -5.1      1.995      4.598
REMARK  Name = 
REMARK  1 active torsions:
REMARK  status: ('A' for Active; 'I' for Inactive)
REMARK    1  A    between atoms: C_6  and  C_7
REMARK                            x       y       z     vdW  Elec       q    Type
REMARK                         _______ _______ _______ _____ _____    ______ ____
ROOT
ATOM      1  C   UNL     1      -0.380   6.259  -3.814  0.00  0.00    +0.090 C 
ATOM      2  N   UNL     1      -0.540   6.513  -5.108  0.00  0.00    -0.269 NA
ATOM      3  C   UNL     1      -0.174   5.075  -5.702  0.00  0.00    +0.082 C 
ATOM      4  C   UNL     1      -1.012   5.399  -7.109  0.00  0.00    +0.022 C 
ATOM      5  C   UNL     1      -2.326   5.544  -6.361  0.00  0.00    +0.019 C 
ATOM      6  C   UNL     1      -1.951   6.536  -5.320  0.00  0.00    +0.072 C 
ENDROOT
BRANCH   3   7
ATOM      7  C   UNL     1       1.229   5.542  -6.388  0.00  0.00    +0.011 A 
ATOM      8  C   UNL     1       2.272   4.922  -5.748  0.00  0.00    +0.096 A 
ATOM      9  N   UNL     1       3.441   5.587  -5.594  0.00  0.00    -0.243 NA
ATOM     10  C   UNL     1       3.516   6.865  -6.041  0.00  0.00    +0.099 A 
ATOM     11  C   UNL     1       2.669   7.204  -7.091  0.00  0.00    +0.020 A 
ATOM     12  C   UNL     1       1.361   6.756  -6.914  0.00  0.00    +0.000 A 
ENDBRANCH   3   7
TORSDOF 1
ENDMDL
MODEL 5
REMARK VINA RESULT:      -5.1      6.529      9.106
REMARK  Name = 
REMARK  1 active torsions:
REMARK  status: ('A' for Active; 'I' for Inactive)
REMARK    1  A    between atoms: C_6  and  C_7
REMARK                            x       y       z     vdW  Elec       q    Type
REMARK                         _______ _______ _______ _____ _____    ______ ____
ROOT
ATOM      1  C   UNL     1       1.956   6.220 -10.492  0.00  0.00    +0.090 C 
ATOM      2  N   UNL     1       2.889   5.354 -10.113  0.00  0.00    -0.269 NA
ATOM      3  C   UNL     1       3.760   6.309  -9.171  0.00  0.00    +0.082 C 
ATOM      4  C   UNL     1       4.394   4.995  -8.360  0.00  0.00    +0.022 C 
ATOM      5  C   UNL     1       3.025   4.567  -7.864  0.00  0.00    +0.019 C 
ATOM      6  C   UNL     1       2.263   4.521  -9.139  0.00  0.00    +0.072 C 
ENDROOT
BRANCH   3   7
ATOM      7  C   UNL     1       5.053   6.367 -10.161  0.00  0.00    +0.011 A 
ATOM      8  C   UNL     1       6.087   5.666  -9.594  0.00  0.00    +0.096 A 
ATOM      9  N   UNL     1       7.356   6.100  -9.773  0.00  0.00    -0.243 NA
ATOM     10  C   UNL     1       7.550   7.246 -10.471  0.00  0.00    +0.099 A 
ATOM     11  C   UNL     1       6.578   7.569 -11.411  0.00  0.00    +0.020 A 
ATOM     12  C   UNL     1       5.275   7.427 -10.933  0.00  0.00    +0.000 A 
ENDBRANCH   3   7
TORSDOF 1
ENDMDL
MODEL 6
REMARK VINA RESULT:      -5.0      1.908      4.382
REMARK  Name = 
REMARK  1 active torsions:
REMARK  status: ('A' for Active; 'I' for Inactive)
REMARK    1  A    between atoms: C_6  and  C_7
REMARK                            x       y       z     vdW  Elec       q    Type
REMARK                         _______ _______ _______ _____ _____    ______ ____
ROOT
ATOM      1  C   UNL     1       0.194   5.049  -1.804  0.00  0.00    +0.090 C 
ATOM      2  N   UNL     1      -0.364   6.240  -1.616  0.00  0.00    -0.269 NA
ATOM      3  C   UNL     1      -1.872   5.778  -1.349  0.00  0.00    +0.082 C 
ATOM      4  C   UNL     1      -2.208   7.205  -0.550  0.00  0.00    +0.022 C 
ATOM      5  C   UNL     1      -1.176   6.914   0.525  0.00  0.00    +0.019 C 
ATOM      6  C   UNL     1       0.026   6.640  -0.303  0.00  0.00    +0.072 C 
ENDROOT
BRANCH   3   7
ATOM      7  C   UNL     1      -2.467   6.376  -2.743  0.00  0.00    +0.011 A 
ATOM      8  C   UNL     1      -2.831   5.337  -3.560  0.00  0.00    +0.096 A 
ATOM      9  N   UNL     1      -2.671   5.461  -4.898  0.00  0.00    -0.243 NA
ATOM     10  C   UNL     1      -2.108   6.600  -5.374  0.00  0.00    +0.099 A 
ATOM     11  C   UNL     1      -2.268   7.740  -4.595  0.00  0.00    +0.020 A 
ATOM     12  C   UNL     1      -2.019   7.525  -3.240  0.00  0.00    +0.000 A 
ENDBRANCH   3   7
TORSDOF 1
ENDMDL
MODEL 7
REMARK VINA RESULT:      -5.0      1.976      3.505
REMARK  Name = 
REMARK  1 active torsions:
REMARK  status: ('A' for Active; 'I' for Inactive)
REMARK    1  A    between atoms: C_6  and  C_7
REMARK                            x       y       z     vdW  Elec       q    Type
REMARK                         _______ _______ _______ _____ _____    ______ ____
ROOT
ATOM      1  C   UNL     1       2.166   4.306  -7.928  0.00  0.00    +0.090 C 
ATOM      2  N   UNL     1       2.109   5.252  -6.996  0.00  0.00    -0.269 NA
ATOM      3  C   UNL     1       1.105   4.544  -5.972  0.00  0.00    +0.082 C 
ATOM      4  C   UNL     1       1.655   5.494  -4.715  0.00  0.00    +0.022 C 
ATOM      5  C   UNL     1       3.062   4.933  -4.831  0.00  0.00    +0.019 C 
ATOM      6  C   UNL     1       3.335   5.151  -6.275  0.00  0.00    +0.072 C 
ENDROOT
BRANCH   3   7
ATOM      7  C   UNL     1      -0.139   5.563  -6.244  0.00  0.00    +0.011 A 
ATOM      8  C   UNL     1       0.018   6.682  -5.467  0.00  0.00    +0.096 A 
ATOM      9  N   UNL     1      -1.078   7.290  -4.957  0.00  0.00    -0.243 NA
ATOM     10  C   UNL     1      -2.292   6.736  -5.201  0.00  0.00    +0.099 A 
ATOM     11  C   UNL     1      -2.405   5.984  -6.364  0.00  0.00    +0.020 A 
ATOM     12  C   UNL     1      -1.345   5.100  -6.559  0.00  0.00    +0.000 A 
ENDBRANCH   3   7
TORSDOF 1
ENDMDL
MODEL 8
REMARK VINA RESULT:      -4.9      6.368      9.110
REMARK  Name = 
REMARK  1 active torsions:
REMARK  status: ('A' for Active; 'I' for Inactive)
REMARK    1  A    between atoms: C_6  and  C_7
REMARK                            x       y       z     vdW  Elec       q    Type
REMARK                         _______ _______ _______ _____ _____    ______ ____
ROOT
ATOM      1  C   UNL     1       4.348   5.652  -6.743  0.00  0.00    +0.090 C 
ATOM      2  N   UNL     1       3.845   5.997  -7.923  0.00  0.00    -0.269 NA
ATOM      3  C   UNL     1       4.360   4.758  -8.794  0.00  0.00    +0.082 C 
ATOM      4  C   UNL     1       3.174   5.020  -9.938  0.00  0.00    +0.022 C 
ATOM      5  C   UNL     1       2.066   4.767  -8.931  0.00  0.00    +0.019 C 
ATOM      6  C   UNL     1       2.452   5.703  -7.844  0.00  0.00    +0.072 C 
ENDROOT
BRANCH   3   7
ATOM      7  C   UNL     1       5.438   5.617  -9.664  0.00  0.00    +0.011 A 
ATOM      8  C   UNL     1       5.107   5.542 -10.993  0.00  0.00    +0.096 A 
ATOM      9  N   UNL     1       6.093   5.513 -11.919  0.00  0.00    -0.243 NA
ATOM     10  C   UNL     1       7.379   5.512 -11.487  0.00  0.00    +0.099 A 
ATOM     11  C   UNL     1       7.617   6.106 -10.253  0.00  0.00    +0.020 A 
ATOM     12  C   UNL     1       6.703   5.726  -9.270  0.00  0.00    +0.000 A 
ENDBRANCH   3   7
TORSDOF 1
ENDMDL
MODEL 9
REMARK VINA RESULT:      -4.8      2.264      3.467
REMARK  Name = 
REMARK  1 active torsions:
REMARK  status: ('A' for Active; 'I' for Inactive)
REMARK    1  A    between atoms: C_6  and  C_7
REMARK                            x       y       z     vdW  Elec       q    Type
REMARK                         _______ _______ _______ _____ _____    ______ ____
ROOT
ATOM      1  C   UNL     1       3.012   5.250  -6.901  0.00  0.00    +0.090 C 
ATOM      2  N   UNL     1       1.857   4.788  -7.368  0.00  0.00    -0.269 NA
ATOM      3  C   UNL     1       1.102   6.177  -7.608  0.00  0.00    +0.082 C 
ATOM      4  C   UNL     1       0.066   5.467  -8.708  0.00  0.00    +0.022 C 
ATOM      5  C   UNL     1       1.209   5.111  -9.642  0.00  0.00    +0.019 C 
ATOM      6  C   UNL     1       2.121   4.394  -8.713  0.00  0.00    +0.072 C 
ENDROOT
BRANCH   3   7
ATOM      7  C   UNL     1       0.019   5.975  -6.406  0.00  0.00    +0.011 A 
ATOM      8  C   UNL     1      -1.100   5.361  -6.906  0.00  0.00    +0.096 A 
ATOM      9  N   UNL     1      -2.314   5.693  -6.409  0.00  0.00    -0.243 NA
ATOM     10  C   UNL     1      -2.376   6.663  -5.462  0.00  0.00    +0.099 A 
ATOM     11  C   UNL     1      -1.244   6.828  -4.672  0.00  0.00    +0.020 A 
ATOM     12  C   UNL     1      -0.056   6.843  -5.402  0.00  0.00    +0.000 A 
ENDBRANCH   3   7
TORSDOF 1
ENDMDL
