MODEL 1
REMARK VINA RESULT:      -7.2      0.000      0.000
REMARK  Name = 
REMARK  0 active torsions:
REMARK  status: ('A' for Active; 'I' for Inactive)
REMARK                            x       y       z     vdW  Elec       q    Type
REMARK                         _______ _______ _______ _____ _____    ______ ____
ROOT
ATOM      1  C   UNL     1       1.992   4.252  -8.501  0.00  0.00    +0.119 A 
ATOM      2  N   UNL     1       2.368   4.840  -9.623  0.00  0.00    -0.241 NA
ATOM      3  C   UNL     1       3.609   5.322  -9.666  0.00  0.00    +0.099 A 
ATOM      4  C   UNL     1       4.337   5.430  -8.484  0.00  0.00    +0.099 A 
ATOM      5  C   UNL     1       5.722   5.458  -8.625  0.00  0.00    +0.016 A 
ATOM      6  C   UNL     1       6.210   5.655  -9.908  0.00  0.00    -0.023 A 
ATOM      7  C   UNL     1       7.750   5.762 -10.330  0.00  0.00    +0.040 C 
ATOM      8  C   UNL     1       7.532   5.189 -11.839  0.00  0.00    +0.093 C 
ATOM      9  N   UNL     1       6.955   5.920 -12.758  0.00  0.00    -0.217 NA
ATOM     10  C   UNL     1       6.625   7.250 -12.766  0.00  0.00    +0.093 C 
ATOM     11  C   UNL     1       6.181   7.630 -11.228  0.00  0.00    +0.040 C 
ATOM     12  C   UNL     1       7.662   7.336 -10.660  0.00  0.00    +0.012 C 
ATOM     13  C   UNL     1       5.512   6.204 -10.896  0.00  0.00    -0.023 A 
ATOM     14  N   UNL     1       3.798   5.066  -7.327  0.00  0.00    -0.241 NA
ATOM     15  C   UNL     1       4.132   6.046 -10.736  0.00  0.00    +0.016 A 
ATOM     16  C   UNL     1       2.501   4.699  -7.334  0.00  0.00    +0.119 A 
ENDROOT
TORSDOF 0
ENDMDL
MODEL 2
REMARK VINA RESULT:      -7.1      5.193      9.422
REMARK  Name = 
REMARK  0 active torsions:
REMARK  status: ('A' for Active; 'I' for Inactive)
REMARK                            x       y       z     vdW  Elec       q    Type
REMARK                         _______ _______ _______ _____ _____    ______ ____
ROOT
ATOM      1  C   UNL     1       2.687   4.835  -6.477  0.00  0.00    +0.119 A 
ATOM      2  N   UNL     1       2.177   4.569  -5.287  0.00  0.00    -0.241 NA
ATOM      3  C   UNL     1       1.166   5.334  -4.877  0.00  0.00    +0.099 A 
ATOM      4  C   UNL     1       0.880   6.508  -5.568  0.00  0.00    +0.099 A 
ATOM      5  C   UNL     1      -0.419   6.990  -5.432  0.00  0.00    +0.016 A 
ATOM      6  C   UNL     1      -1.188   6.424  -4.426  0.00  0.00    -0.023 A 
ATOM      7  C   UNL     1      -2.689   6.824  -4.042  0.00  0.00    +0.040 C 
ATOM      8  C   UNL     1      -3.095   5.353  -3.473  0.00  0.00    +0.093 C 
ATOM      9  N   UNL     1      -2.634   4.924  -2.327  0.00  0.00    -0.217 NA
ATOM     10  C   UNL     1      -1.962   5.585  -1.331  0.00  0.00    +0.093 C 
ATOM     11  C   UNL     1      -0.996   6.690  -2.073  0.00  0.00    +0.040 C 
ATOM     12  C   UNL     1      -2.264   7.507  -2.646  0.00  0.00    +0.012 C 
ATOM     13  C   UNL     1      -0.687   5.790  -3.372  0.00  0.00    -0.023 A 
ATOM     14  N   UNL     1       1.611   6.867  -6.617  0.00  0.00    -0.241 NA
ATOM     15  C   UNL     1       0.577   5.245  -3.618  0.00  0.00    +0.016 A 
ATOM     16  C   UNL     1       2.691   6.114  -6.908  0.00  0.00    +0.119 A 
ENDROOT
TORSDOF 0
ENDMDL
MODEL 3
REMARK VINA RESULT:      -6.9      4.356      8.311
REMARK  Name = 
REMARK  0 active torsions:
REMARK  status: ('A' for Active; 'I' for Inactive)
REMARK                            x       y       z     vdW  Elec       q    Type
REMARK                         _______ _______ _______ _____ _____    ______ ____
ROOT
ATOM      1  C   UNL     1       2.590   3.783  -8.131  0.00  0.00    +0.119 A 
ATOM      2  N   UNL     1       2.343   4.207  -6.905  0.00  0.00    -0.241 NA
ATOM      3  C   UNL     1       1.220   4.899  -6.718  0.00  0.00    +0.099 A 
ATOM      4  C   UNL     1       0.519   5.366  -7.826  0.00  0.00    +0.099 A 
ATOM      5  C   UNL     1      -0.833   5.628  -7.622  0.00  0.00    +0.016 A 
ATOM      6  C   UNL     1      -1.265   5.666  -6.304  0.00  0.00    -0.023 A 
ATOM      7  C   UNL     1      -2.752   5.980  -5.803  0.00  0.00    +0.040 C 
ATOM      8  C   UNL     1      -2.638   5.100  -4.438  0.00  0.00    +0.093 C 
ATOM      9  N   UNL     1      -1.924   5.519  -3.425  0.00  0.00    -0.217 NA
ATOM     10  C   UNL     1      -1.342   6.737  -3.186  0.00  0.00    +0.093 C 
ATOM     11  C   UNL     1      -0.843   7.311  -4.644  0.00  0.00    +0.040 C 
ATOM     12  C   UNL     1      -2.357   7.417  -5.191  0.00  0.00    +0.012 C 
ATOM     13  C   UNL     1      -0.467   5.874  -5.264  0.00  0.00    -0.023 A 
ATOM     14  N   UNL     1       0.969   5.133  -9.054  0.00  0.00    -0.241 NA
ATOM     15  C   UNL     1       0.856   5.492  -5.511  0.00  0.00    +0.016 A 
ATOM     16  C   UNL     1       2.169   4.533  -9.172  0.00  0.00    +0.119 A 
ENDROOT
TORSDOF 0
ENDMDL
MODEL 4
REMARK VINA RESULT:      -6.8      8.005     10.106
REMARK  Name = 
REMARK  0 active torsions:
REMARK  status: ('A' for Active; 'I' for Inactive)
REMARK                            x       y       z     vdW  Elec       q    Type
REMARK                         _______ _______ _______ _____ _____    ______ ____
ROOT
ATOM      1  C   UNL     1       3.062   4.359  -1.125  0.00  0.00    +0.119 A 
ATOM      2  N   UNL     1       1.819   4.634  -0.770  0.00  0.00    -0.241 NA
ATOM      3  C   UNL     1       1.059   5.262  -1.666  0.00  0.00    +0.099 A 
ATOM      4  C   UNL     1       1.658   5.827  -2.788  0.00  0.00    +0.099 A 
ATOM      5  C   UNL     1       0.827   6.018  -3.888  0.00  0.00    +0.016 A 
ATOM      6  C   UNL     1      -0.536   5.893  -3.664  0.00  0.00    -0.023 A 
ATOM      7  C   UNL     1      -1.697   6.099  -4.745  0.00  0.00    +0.040 C 
ATOM      8  C   UNL     1      -2.746   5.075  -4.035  0.00  0.00    +0.093 C 
ATOM      9  N   UNL     1      -3.358   5.401  -2.926  0.00  0.00    -0.217 NA
ATOM     10  C   UNL     1      -3.442   6.603  -2.272  0.00  0.00    +0.093 C 
ATOM     11  C   UNL     1      -1.994   7.354  -2.489  0.00  0.00    +0.040 C 
ATOM     12  C   UNL     1      -2.221   7.470  -4.081  0.00  0.00    +0.012 C 
ATOM     13  C   UNL     1      -1.110   6.010  -2.472  0.00  0.00    -0.023 A 
ATOM     14  N   UNL     1       2.973   5.749  -2.959  0.00  0.00    -0.241 NA
ATOM     15  C   UNL     1      -0.240   5.702  -1.420  0.00  0.00    +0.016 A 
ATOM     16  C   UNL     1       3.698   5.207  -1.961  0.00  0.00    +0.119 A 
ENDROOT
TORSDOF 0
ENDMDL
MODEL 5
REMARK VINA RESULT:      -6.6      1.510      5.179
REMARK  Name = 
REMARK  0 active torsions:
REMARK  status: ('A' for Active; 'I' for Inactive)
REMARK                            x       y       z     vdW  Elec       q    Type
REMARK                         _______ _______ _______ _____ _____    ______ ____
ROOT
ATOM      1  C   UNL     1       6.939   7.607 -11.194  0.00  0.00    +0.119 A 
ATOM      2  N   UNL     1       5.620   7.563 -11.139  0.00  0.00    -0.241 NA
ATOM      3  C   UNL     1       5.079   6.731 -10.251  0.00  0.00    +0.099 A 
ATOM      4  C   UNL     1       5.885   5.778  -9.635  0.00  0.00    +0.099 A 
ATOM      5  C   UNL     1       5.426   5.292  -8.414  0.00  0.00    +0.016 A 
ATOM      6  C   UNL     1       4.111   5.589  -8.084  0.00  0.00    -0.023 A 
ATOM      7  C   UNL     1       3.337   5.121  -6.764  0.00  0.00    +0.040 C 
ATOM      8  C   UNL     1       2.331   6.401  -6.720  0.00  0.00    +0.093 C 
ATOM      9  N   UNL     1       1.349   6.514  -7.576  0.00  0.00    -0.217 NA
ATOM     10  C   UNL     1       0.836   5.611  -8.472  0.00  0.00    +0.093 C 
ATOM     11  C   UNL     1       2.107   4.723  -9.020  0.00  0.00    +0.040 C 
ATOM     12  C   UNL     1       2.380   4.097  -7.558  0.00  0.00    +0.012 C 
ATOM     13  C   UNL     1       3.178   5.924  -8.967  0.00  0.00    -0.023 A 
ATOM     14  N   UNL     1       7.176   5.693  -9.936  0.00  0.00    -0.241 NA
ATOM     15  C   UNL     1       3.710   6.499 -10.126  0.00  0.00    +0.016 A 
ATOM     16  C   UNL     1       7.636   6.482 -10.927  0.00  0.00    +0.119 A 
ENDROOT
TORSDOF 0
ENDMDL
MODEL 6
REMARK VINA RESULT:      -6.6      1.068      2.365
REMARK  Name = 
REMARK  0 active torsions:
REMARK  status: ('A' for Active; 'I' for Inactive)
REMARK                            x       y       z     vdW  Elec       q    Type
REMARK                         _______ _______ _______ _____ _____    ______ ____
ROOT
ATOM      1  C   UNL     1       2.932   4.925  -6.481  0.00  0.00    +0.119 A 
ATOM      2  N   UNL     1       4.161   5.312  -6.771  0.00  0.00    -0.241 NA
ATOM      3  C   UNL     1       4.513   5.298  -8.056  0.00  0.00    +0.099 A 
ATOM      4  C   UNL     1       3.698   4.641  -8.975  0.00  0.00    +0.099 A 
ATOM      5  C   UNL     1       3.821   5.055 -10.298  0.00  0.00    +0.016 A 
ATOM      6  C   UNL     1       4.912   5.857 -10.598  0.00  0.00    -0.023 A 
ATOM      7  C   UNL     1       5.297   6.432 -12.041  0.00  0.00    +0.040 C 
ATOM      8  C   UNL     1       6.048   7.762 -11.476  0.00  0.00    +0.093 C 
ATOM      9  N   UNL     1       7.221   7.680 -10.902  0.00  0.00    -0.217 NA
ATOM     10  C   UNL     1       8.108   6.638 -10.830  0.00  0.00    +0.093 C 
ATOM     11  C   UNL     1       7.209   5.265 -10.722  0.00  0.00    +0.040 C 
ATOM     12  C   UNL     1       6.588   5.480 -12.195  0.00  0.00    +0.012 C 
ATOM     13  C   UNL     1       6.016   5.920  -9.863  0.00  0.00    -0.023 A 
ATOM     14  N   UNL     1       2.590   4.028  -8.574  0.00  0.00    -0.241 NA
ATOM     15  C   UNL     1       5.793   5.589  -8.522  0.00  0.00    +0.016 A 
ATOM     16  C   UNL     1       2.354   3.977  -7.249  0.00  0.00    +0.119 A 
ENDROOT
TORSDOF 0
ENDMDL
MODEL 7
REMARK VINA RESULT:      -6.6      4.676      7.014
REMARK  Name = 
REMARK  0 active torsions:
REMARK  status: ('A' for Active; 'I' for Inactive)
REMARK                            x       y       z     vdW  Elec       q    Type
REMARK                         _______ _______ _______ _____ _____    ______ ____
ROOT
ATOM      1  C   UNL     1      -3.151   5.228  -3.345  0.00  0.00    +0.119 A 
ATOM      2  N   UNL     1      -2.675   5.605  -4.518  0.00  0.00    -0.241 NA
ATOM      3  C   UNL     1      -1.350   5.653  -4.646  0.00  0.00    +0.099 A 
ATOM      4  C   UNL     1      -0.555   5.576  -3.506  0.00  0.00    +0.099 A 
ATOM      5  C   UNL     1       0.753   5.143  -3.707  0.00  0.00    +0.016 A 
ATOM      6  C   UNL     1       1.199   5.107  -5.020  0.00  0.00    -0.023 A 
ATOM      7  C   UNL     1       2.661   4.684  -5.513  0.00  0.00    +0.040 C 
ATOM      8  C   UNL     1       2.177   4.141  -6.970  0.00  0.00    +0.093 C 
ATOM      9  N   UNL     1       1.812   4.974  -7.910  0.00  0.00    -0.217 NA
ATOM     10  C   UNL     1       1.930   6.337  -7.992  0.00  0.00    +0.093 C 
ATOM     11  C   UNL     1       1.728   6.915  -6.465  0.00  0.00    +0.040 C 
ATOM     12  C   UNL     1       3.067   6.183  -5.943  0.00  0.00    +0.012 C 
ATOM     13  C   UNL     1       0.656   5.804  -6.011  0.00  0.00    -0.023 A 
ATOM     14  N   UNL     1      -1.110   5.465  -2.304  0.00  0.00    -0.241 NA
ATOM     15  C   UNL     1      -0.688   6.114  -5.782  0.00  0.00    +0.016 A 
ATOM     16  C   UNL     1      -2.453   5.541  -2.232  0.00  0.00    +0.119 A 
ENDROOT
TORSDOF 0
ENDMDL
MODEL 8
REMARK VINA RESULT:      -6.5      1.353      5.239
REMARK  Name = 
REMARK  0 active torsions:
REMARK  status: ('A' for Active; 'I' for Inactive)
REMARK                            x       y       z     vdW  Elec       q    Type
REMARK                         _______ _______ _______ _____ _____    ______ ____
ROOT
ATOM      1  C   UNL     1       8.077   5.677 -11.085  0.00  0.00    +0.119 A 
ATOM      2  N   UNL     1       7.523   5.294  -9.949  0.00  0.00    -0.241 NA
ATOM      3  C   UNL     1       6.271   5.691  -9.723  0.00  0.00    +0.099 A 
ATOM      4  C   UNL     1       5.717   6.681 -10.529  0.00  0.00    +0.099 A 
ATOM      5  C   UNL     1       4.327   6.709 -10.587  0.00  0.00    +0.016 A 
ATOM      6  C   UNL     1       3.652   5.951  -9.641  0.00  0.00    -0.023 A 
ATOM      7  C   UNL     1       2.065   5.841  -9.472  0.00  0.00    +0.040 C 
ATOM      8  C   UNL     1       2.085   4.337  -8.847  0.00  0.00    +0.093 C 
ATOM      9  N   UNL     1       2.497   4.122  -7.625  0.00  0.00    -0.217 NA
ATOM     10  C   UNL     1       2.773   4.999  -6.608  0.00  0.00    +0.093 C 
ATOM     11  C   UNL     1       3.419   6.339  -7.310  0.00  0.00    +0.040 C 
ATOM     12  C   UNL     1       2.047   6.670  -8.090  0.00  0.00    +0.012 C 
ATOM     13  C   UNL     1       4.181   5.553  -8.490  0.00  0.00    -0.023 A 
ATOM     14  N   UNL     1       6.430   7.230 -11.506  0.00  0.00    -0.241 NA
ATOM     15  C   UNL     1       5.575   5.451  -8.540  0.00  0.00    +0.016 A 
ATOM     16  C   UNL     1       7.725   6.871 -11.608  0.00  0.00    +0.119 A 
ENDROOT
TORSDOF 0
ENDMDL
MODEL 9
REMARK VINA RESULT:      -6.5      3.871      6.353
REMARK  Name = 
REMARK  0 active torsions:
REMARK  status: ('A' for Active; 'I' for Inactive)
REMARK                            x       y       z     vdW  Elec       q    Type
REMARK                         _______ _______ _______ _____ _____    ______ ____
ROOT
ATOM      1  C   UNL     1      -2.162   7.481  -4.136  0.00  0.00    +0.119 A 
ATOM      2  N   UNL     1      -0.904   7.641  -4.503  0.00  0.00    -0.241 NA
ATOM      3  C   UNL     1      -0.449   6.845  -5.470  0.00  0.00    +0.099 A 
ATOM      4  C   UNL     1      -1.204   5.737  -5.847  0.00  0.00    +0.099 A 
ATOM      5  C   UNL     1      -0.962   5.247  -7.128  0.00  0.00    +0.016 A 
ATOM      6  C   UNL     1       0.172   5.722  -7.770  0.00  0.00    -0.023 A 
ATOM      7  C   UNL     1       0.689   5.293  -9.222  0.00  0.00    +0.040 C 
ATOM      8  C   UNL     1       1.427   6.708  -9.542  0.00  0.00    +0.093 C 
ATOM      9  N   UNL     1       2.547   7.032  -8.948  0.00  0.00    -0.217 NA
ATOM     10  C   UNL     1       3.396   6.285  -8.175  0.00  0.00    +0.093 C 
ATOM     11  C   UNL     1       2.454   5.248  -7.313  0.00  0.00    +0.040 C 
ATOM     12  C   UNL     1       1.961   4.487  -8.648  0.00  0.00    +0.012 C 
ATOM     13  C   UNL     1       1.213   6.259  -7.145  0.00  0.00    -0.023 A 
ATOM     14  N   UNL     1      -2.357   5.472  -5.244  0.00  0.00    -0.241 NA
ATOM     15  C   UNL     1       0.873   6.822  -5.910  0.00  0.00    +0.016 A 
ATOM     16  C   UNL     1      -2.702   6.245  -4.196  0.00  0.00    +0.119 A 
ENDROOT
TORSDOF 0
ENDMDL
