MODEL 1
REMARK VINA RESULT:      -6.8      0.000      0.000
REMARK  Name = 
REMARK  8 active torsions:
REMARK  status: ('A' for Active; 'I' for Inactive)
REMARK    1  A    between atoms: O_2  and  C_3
REMARK    2  A    between atoms: C_7  and  O_8
REMARK    3  A    between atoms: O_8  and  C_9
REMARK    4  A    between atoms: C_15  and  C_16
REMARK    5  A    between atoms: N_18  and  S_19
REMARK    6  A    between atoms: S_19  and  C_22
REMARK    7  A    between atoms: C_40  and  C_41
REMARK    8  A    between atoms: C_43  and  C_44
REMARK                            x       y       z     vdW  Elec       q    Type
REMARK                         _______ _______ _______ _____ _____    ______ ____
ROOT
ATOM      1  C   UNL     1       5.057   7.463  -1.733  0.00  0.00    +0.167 C 
ATOM      2  C   UNL     1       5.366   7.066  -0.146  0.00  0.00    +0.053 C 
ATOM      3  C   UNL     1       3.864   7.270   0.455  0.00  0.00    +0.089 C 
ATOM      4  C   UNL     1       4.133   8.925   0.023  0.00  0.00    +0.090 C 
ATOM      5  C   UNL     1       2.641   9.382   0.424  0.00  0.00    +0.242 C 
ATOM      6  N   UNL     1       2.640  10.771   0.683  0.00  0.00    -0.200 NA
ATOM      7  C   UNL     1       3.618  11.652   0.363  0.00  0.00    +0.154 C 
ATOM      8  C   UNL     1       4.106  12.489   1.739  0.00  0.00    +0.051 C 
ATOM      9  C   UNL     1       3.461  11.349   2.811  0.00  0.00    -0.029 C 
ATOM     10  C   UNL     1       4.440  11.009   3.670  0.00  0.00    -0.031 C 
ATOM     11  C   UNL     1       5.805  10.656   3.157  0.00  0.00    +0.026 C 
ATOM     12  C   UNL     1       6.189   9.241   3.505  0.00  0.00    +0.006 C 
ATOM     13  C   UNL     1       7.216   8.640   2.596  0.00  0.00    +0.022 C 
ATOM     14  C   UNL     1       6.593   7.673   1.592  0.00  0.00    +0.093 C 
ATOM     15  N   UNL     1       5.563   7.000   2.395  0.00  0.00    -0.278 N 
ATOM     16  C   UNL     1       5.838   6.529   3.750  0.00  0.00    +0.115 C 
ATOM     17  C   UNL     1       5.129  11.335   1.047  0.00  0.00    +0.036 C 
ATOM     18  O   UNL     1       1.695   8.674   0.131  0.00  0.00    -0.273 OA
ATOM     19  C   UNL     1       4.321   7.520   1.981  0.00  0.00    +0.226 C 
ATOM     20  O   UNL     1       3.319   7.250   2.718  0.00  0.00    -0.275 OA
ATOM     21  C   UNL     1       3.692   8.384  -1.456  0.00  0.00    +0.053 C 
ENDROOT
BRANCH   7  22
ATOM     22  C   UNL     1       3.946  12.303  -0.881  0.00  0.00    +0.280 C 
ATOM     23  N   UNL     1       5.155  13.078  -0.984  0.00  0.00    -0.062 NA
ATOM     24  O   UNL     1       3.025  12.878  -1.553  0.00  0.00    -0.270 OA
BRANCH  23  25
ATOM     25  S   UNL     1       5.328  14.165  -2.333  0.00  0.00    +0.074 S 
ATOM     26  O   UNL     1       4.336  15.253  -2.319  0.00  0.00    -0.153 OA
ATOM     27  O   UNL     1       5.088  13.338  -3.579  0.00  0.00    -0.153 OA
BRANCH  25  28
ATOM     28  C   UNL     1       7.010  14.758  -2.463  0.00  0.00    +0.151 C 
ATOM     29  C   UNL     1       7.687  14.995  -1.095  0.00  0.00    +0.027 C 
ATOM     30  C   UNL     1       8.106  13.839  -2.027  0.00  0.00    +0.027 C 
ENDBRANCH  25  28
ENDBRANCH  23  25
ENDBRANCH   7  22
BRANCH   1  31
ATOM     31  O   UNL     1       4.229   6.134  -1.931  0.00  0.00    -0.479 OA
BRANCH  31  37
ATOM     32  C   UNL     1       4.693   5.504  -6.748  0.00  0.00    +0.136 A 
ATOM     33  C   UNL     1       3.945   6.654  -6.512  0.00  0.00    +0.030 A 
ATOM     34  C   UNL     1       3.329   7.339  -7.668  0.00  0.00    +0.036 C 
ATOM     35  C   UNL     1       3.331   6.810  -5.275  0.00  0.00    +0.083 A 
ATOM     36  C   UNL     1       3.926   6.076  -4.248  0.00  0.00    +0.052 A 
ATOM     37  C   UNL     1       3.356   6.317  -3.001  0.00  0.00    +0.141 A 
ATOM     38  C   UNL     1       2.076   6.850  -2.892  0.00  0.00    +0.058 A 
ATOM     39  C   UNL     1       1.317   7.121  -4.034  0.00  0.00    +0.108 A 
ATOM     40  C   UNL     1       4.393   4.783  -4.472  0.00  0.00    +0.008 A 
ATOM     41  N   UNL     1       2.093   7.345  -5.128  0.00  0.00    -0.243 NA
ATOM     42  C   UNL     1       4.967   4.597  -5.730  0.00  0.00    +0.037 A 
BRANCH  39  43
ATOM     43  C   UNL     1      -0.052   6.588  -4.186  0.00  0.00    +0.128 A 
ATOM     44  S   UNL     1      -1.052   6.494  -5.583  0.00  0.00    -0.065 S 
ATOM     45  C   UNL     1      -2.507   6.048  -4.794  0.00  0.00    +0.052 A 
ATOM     46  C   UNL     1      -2.114   6.146  -3.462  0.00  0.00    +0.066 A 
ATOM     47  N   UNL     1      -0.813   5.917  -3.311  0.00  0.00    -0.241 NA
BRANCH  46  48
ATOM     48  C   UNL     1      -3.133   5.805  -2.416  0.00  0.00    +0.041 C 
ATOM     49  C   UNL     1      -2.646   6.079  -1.026  0.00  0.00    +0.006 C 
ATOM     50  C   UNL     1      -4.446   6.468  -2.744  0.00  0.00    +0.006 C 
ENDBRANCH  46  48
ENDBRANCH  39  43
BRANCH  32  52
ATOM     51  C   UNL     1       5.946   5.355  -8.713  0.00  0.00    +0.252 C 
ATOM     52  O   UNL     1       4.822   4.984  -8.041  0.00  0.00    -0.472 OA
ENDBRANCH  32  52
ENDBRANCH  31  37
ENDBRANCH   1  31
TORSDOF 8
ENDMDL
MODEL 2
REMARK VINA RESULT:      -6.6      2.631      9.619
REMARK  Name = 
REMARK  8 active torsions:
REMARK  status: ('A' for Active; 'I' for Inactive)
REMARK    1  A    between atoms: O_2  and  C_3
REMARK    2  A    between atoms: C_7  and  O_8
REMARK    3  A    between atoms: O_8  and  C_9
REMARK    4  A    between atoms: C_15  and  C_16
REMARK    5  A    between atoms: N_18  and  S_19
REMARK    6  A    between atoms: S_19  and  C_22
REMARK    7  A    between atoms: C_40  and  C_41
REMARK    8  A    between atoms: C_43  and  C_44
REMARK                            x       y       z     vdW  Elec       q    Type
REMARK                         _______ _______ _______ _____ _____    ______ ____
ROOT
ATOM      1  C   UNL     1       3.445   7.787  -3.731  0.00  0.00    +0.167 C 
ATOM      2  C   UNL     1       1.892   7.389  -3.282  0.00  0.00    +0.053 C 
ATOM      3  C   UNL     1       2.014   5.766  -3.389  0.00  0.00    +0.089 C 
ATOM      4  C   UNL     1       2.254   6.097  -5.072  0.00  0.00    +0.090 C 
ATOM      5  C   UNL     1       2.547   4.556  -5.441  0.00  0.00    +0.242 C 
ATOM      6  N   UNL     1       2.291   4.355  -6.816  0.00  0.00    -0.200 NA
ATOM      7  C   UNL     1       2.130   5.319  -7.755  0.00  0.00    +0.154 C 
ATOM      8  C   UNL     1       0.666   5.098  -8.555  0.00  0.00    +0.051 C 
ATOM      9  C   UNL     1       0.010   4.118  -7.342  0.00  0.00    -0.029 C 
ATOM     10  C   UNL     1      -1.187   4.637  -7.012  0.00  0.00    -0.031 C 
ATOM     11  C   UNL     1      -1.325   6.107  -6.746  0.00  0.00    +0.026 C 
ATOM     12  C   UNL     1      -1.783   6.384  -5.337  0.00  0.00    +0.006 C 
ATOM     13  C   UNL     1      -1.412   7.741  -4.824  0.00  0.00    +0.022 C 
ATOM     14  C   UNL     1      -0.219   7.684  -3.873  0.00  0.00    +0.093 C 
ATOM     15  N   UNL     1      -0.472   6.449  -3.118  0.00  0.00    -0.278 N 
ATOM     16  C   UNL     1      -1.801   6.128  -2.604  0.00  0.00    +0.115 C 
ATOM     17  C   UNL     1       0.854   6.390  -7.481  0.00  0.00    +0.036 C 
ATOM     18  O   UNL     1       3.240   3.880  -4.702  0.00  0.00    -0.273 OA
ATOM     19  C   UNL     1       0.439   5.488  -3.596  0.00  0.00    +0.226 C 
ATOM     20  O   UNL     1       0.226   4.283  -3.248  0.00  0.00    -0.275 OA
ATOM     21  C   UNL     1       3.785   6.386  -4.574  0.00  0.00    +0.053 C 
ENDROOT
BRANCH   7  22
ATOM     22  C   UNL     1       3.090   6.121  -8.473  0.00  0.00    +0.280 C 
ATOM     23  N   UNL     1       3.283   5.911  -9.884  0.00  0.00    -0.062 NA
ATOM     24  O   UNL     1       4.217   6.386  -7.934  0.00  0.00    -0.270 OA
BRANCH  23  25
ATOM     25  S   UNL     1       4.699   6.589 -10.635  0.00  0.00    +0.074 S 
ATOM     26  O   UNL     1       4.772   8.053 -10.495  0.00  0.00    -0.153 OA
ATOM     27  O   UNL     1       4.591   6.272 -12.112  0.00  0.00    -0.153 OA
BRANCH  25  28
ATOM     28  C   UNL     1       6.180   5.760 -10.070  0.00  0.00    +0.151 C 
ATOM     29  C   UNL     1       7.285   5.675 -11.146  0.00  0.00    +0.027 C 
ATOM     30  C   UNL     1       7.417   6.584  -9.906  0.00  0.00    +0.027 C 
ENDBRANCH  25  28
ENDBRANCH  23  25
ENDBRANCH   7  22
BRANCH   1  31
ATOM     31  O   UNL     1       4.011   7.213  -2.374  0.00  0.00    -0.479 OA
BRANCH  31  37
ATOM     32  C   UNL     1       4.834   7.282   2.436  0.00  0.00    +0.136 A 
ATOM     33  C   UNL     1       3.736   8.090   2.154  0.00  0.00    +0.030 A 
ATOM     34  C   UNL     1       3.158   8.895   3.250  0.00  0.00    +0.036 C 
ATOM     35  C   UNL     1       3.569   8.561   0.857  0.00  0.00    +0.083 A 
ATOM     36  C   UNL     1       4.204   7.787  -0.115  0.00  0.00    +0.052 A 
ATOM     37  C   UNL     1       3.949   8.221  -1.413  0.00  0.00    +0.141 A 
ATOM     38  C   UNL     1       3.513   9.519  -1.659  0.00  0.00    +0.058 A 
ATOM     39  C   UNL     1       3.358  10.430  -0.611  0.00  0.00    +0.108 A 
ATOM     40  C   UNL     1       5.466   7.243   0.115  0.00  0.00    +0.008 A 
ATOM     41  N   UNL     1       3.127   9.812   0.579  0.00  0.00    -0.243 NA
ATOM     42  C   UNL     1       5.667   6.812   1.426  0.00  0.00    +0.037 A 
BRANCH  39  43
ATOM     43  C   UNL     1       4.004  11.757  -0.650  0.00  0.00    +0.128 A 
ATOM     44  S   UNL     1       3.845  13.032  -1.794  0.00  0.00    -0.065 S 
ATOM     45  C   UNL     1       5.140  14.007  -1.235  0.00  0.00    +0.052 A 
ATOM     46  C   UNL     1       5.687  13.169  -0.266  0.00  0.00    +0.066 A 
ATOM     47  N   UNL     1       4.774  12.363   0.265  0.00  0.00    -0.241 NA
BRANCH  46  48
ATOM     48  C   UNL     1       6.872  13.683   0.497  0.00  0.00    +0.041 C 
ATOM     49  C   UNL     1       7.250  12.791   1.641  0.00  0.00    +0.006 C 
ATOM     50  C   UNL     1       8.006  13.972  -0.451  0.00  0.00    +0.006 C 
ENDBRANCH  46  48
ENDBRANCH  39  43
BRANCH  32  52
ATOM     51  C   UNL     1       6.763   7.185   3.750  0.00  0.00    +0.252 C 
ATOM     52  O   UNL     1       5.404   7.266   3.715  0.00  0.00    -0.472 OA
ENDBRANCH  32  52
ENDBRANCH  31  37
ENDBRANCH   1  31
TORSDOF 8
ENDMDL
MODEL 3
REMARK VINA RESULT:      -6.6      2.843      9.541
REMARK  Name = 
REMARK  8 active torsions:
REMARK  status: ('A' for Active; 'I' for Inactive)
REMARK    1  A    between atoms: O_2  and  C_3
REMARK    2  A    between atoms: C_7  and  O_8
REMARK    3  A    between atoms: O_8  and  C_9
REMARK    4  A    between atoms: C_15  and  C_16
REMARK    5  A    between atoms: N_18  and  S_19
REMARK    6  A    between atoms: S_19  and  C_22
REMARK    7  A    between atoms: C_40  and  C_41
REMARK    8  A    between atoms: C_43  and  C_44
REMARK                            x       y       z     vdW  Elec       q    Type
REMARK                         _______ _______ _______ _____ _____    ______ ____
ROOT
ATOM      1  C   UNL     1       3.450  10.565  -0.065  0.00  0.00    +0.167 C 
ATOM      2  C   UNL     1       2.231  10.173   0.999  0.00  0.00    +0.053 C 
ATOM      3  C   UNL     1       2.799   8.730   1.503  0.00  0.00    +0.089 C 
ATOM      4  C   UNL     1       2.539   8.276  -0.147  0.00  0.00    +0.090 C 
ATOM      5  C   UNL     1       3.182   6.811   0.044  0.00  0.00    +0.242 C 
ATOM      6  N   UNL     1       2.688   5.957  -0.968  0.00  0.00    -0.200 NA
ATOM      7  C   UNL     1       2.038   6.334  -2.096  0.00  0.00    +0.154 C 
ATOM      8  C   UNL     1       0.562   5.532  -2.200  0.00  0.00    +0.051 C 
ATOM      9  C   UNL     1       0.522   5.134  -0.556  0.00  0.00    -0.029 C 
ATOM     10  C   UNL     1      -0.665   5.543  -0.074  0.00  0.00    -0.031 C 
ATOM     11  C   UNL     1      -1.167   6.925  -0.377  0.00  0.00    +0.026 C 
ATOM     12  C   UNL     1      -1.351   7.745   0.875  0.00  0.00    +0.006 C 
ATOM     13  C   UNL     1      -1.291   9.225   0.655  0.00  0.00    +0.022 C 
ATOM     14  C   UNL     1       0.050   9.811   1.090  0.00  0.00    +0.093 C 
ATOM     15  N   UNL     1       0.354   9.045   2.306  0.00  0.00    -0.278 N 
ATOM     16  C   UNL     1      -0.664   8.786   3.320  0.00  0.00    +0.115 C 
ATOM     17  C   UNL     1       0.601   7.186  -1.852  0.00  0.00    +0.036 C 
ATOM     18  O   UNL     1       4.193   6.679   0.708  0.00  0.00    -0.273 OA
ATOM     19  C   UNL     1       1.375   8.135   1.967  0.00  0.00    +0.226 C 
ATOM     20  O   UNL     1       1.614   7.212   2.809  0.00  0.00    -0.275 OA
ATOM     21  C   UNL     1       3.986   9.009  -0.351  0.00  0.00    +0.053 C 
ENDROOT
BRANCH   7  22
ATOM     22  C   UNL     1       2.526   6.857  -3.348  0.00  0.00    +0.280 C 
ATOM     23  N   UNL     1       2.725   5.967  -4.463  0.00  0.00    -0.062 NA
ATOM     24  O   UNL     1       3.453   7.735  -3.346  0.00  0.00    -0.270 OA
BRANCH  23  25
ATOM     25  S   UNL     1       3.676   6.529  -5.809  0.00  0.00    +0.074 S 
ATOM     26  O   UNL     1       4.996   7.038  -5.400  0.00  0.00    -0.153 OA
ATOM     27  O   UNL     1       2.908   7.681  -6.422  0.00  0.00    -0.153 OA
BRANCH  25  28
ATOM     28  C   UNL     1       3.775   5.280  -7.085  0.00  0.00    +0.151 C 
ATOM     29  C   UNL     1       2.464   4.483  -7.270  0.00  0.00    +0.027 C 
ATOM     30  C   UNL     1       2.967   5.490  -8.326  0.00  0.00    +0.027 C 
ENDBRANCH  25  28
ENDBRANCH  23  25
ENDBRANCH   7  22
BRANCH   1  31
ATOM     31  O   UNL     1       4.456  10.787   1.131  0.00  0.00    -0.479 OA
BRANCH  31  37
ATOM     32  C   UNL     1       8.316  12.850   3.289  0.00  0.00    +0.136 A 
ATOM     33  C   UNL     1       7.397  13.843   2.964  0.00  0.00    +0.030 A 
ATOM     34  C   UNL     1       7.788  15.254   3.162  0.00  0.00    +0.036 C 
ATOM     35  C   UNL     1       6.441  13.575   1.992  0.00  0.00    +0.083 A 
ATOM     36  C   UNL     1       6.177  12.217   1.812  0.00  0.00    +0.052 A 
ATOM     37  C   UNL     1       5.152  11.973   0.902  0.00  0.00    +0.141 A 
ATOM     38  C   UNL     1       4.784  12.935  -0.033  0.00  0.00    +0.058 A 
ATOM     39  C   UNL     1       5.463  14.154  -0.107  0.00  0.00    +0.108 A 
ATOM     40  C   UNL     1       7.205  11.278   1.847  0.00  0.00    +0.008 A 
ATOM     41  N   UNL     1       6.042  14.493   1.077  0.00  0.00    -0.243 NA
ATOM     42  C   UNL     1       8.200  11.559   2.783  0.00  0.00    +0.037 A 
BRANCH  39  43
ATOM     43  C   UNL     1       6.030  14.639  -1.381  0.00  0.00    +0.128 A 
ATOM     44  S   UNL     1       5.845  14.025  -2.978  0.00  0.00    -0.065 S 
ATOM     45  C   UNL     1       7.053  14.979  -3.732  0.00  0.00    +0.052 A 
ATOM     46  C   UNL     1       7.606  15.611  -2.622  0.00  0.00    +0.066 A 
ATOM     47  N   UNL     1       6.721  15.757  -1.642  0.00  0.00    -0.241 NA
BRANCH  46  48
ATOM     48  C   UNL     1       8.724  16.581  -2.868  0.00  0.00    +0.041 C 
ATOM     49  C   UNL     1       9.937  16.283  -2.041  0.00  0.00    +0.006 C 
ATOM     50  C   UNL     1       9.002  16.678  -4.346  0.00  0.00    +0.006 C 
ENDBRANCH  46  48
ENDBRANCH  39  43
BRANCH  32  52
ATOM     51  C   UNL     1      10.622  12.496   3.172  0.00  0.00    +0.252 C 
ATOM     52  O   UNL     1       9.597  13.180   3.750  0.00  0.00    -0.472 OA
ENDBRANCH  32  52
ENDBRANCH  31  37
ENDBRANCH   1  31
TORSDOF 8
ENDMDL
MODEL 4
REMARK VINA RESULT:      -6.2      3.856      7.648
REMARK  Name = 
REMARK  8 active torsions:
REMARK  status: ('A' for Active; 'I' for Inactive)
REMARK    1  A    between atoms: O_2  and  C_3
REMARK    2  A    between atoms: C_7  and  O_8
REMARK    3  A    between atoms: O_8  and  C_9
REMARK    4  A    between atoms: C_15  and  C_16
REMARK    5  A    between atoms: N_18  and  S_19
REMARK    6  A    between atoms: S_19  and  C_22
REMARK    7  A    between atoms: C_40  and  C_41
REMARK    8  A    between atoms: C_43  and  C_44
REMARK                            x       y       z     vdW  Elec       q    Type
REMARK                         _______ _______ _______ _____ _____    ______ ____
ROOT
ATOM      1  C   UNL     1       2.451   6.230  -4.224  0.00  0.00    +0.167 C 
ATOM      2  C   UNL     1       3.534   6.842  -3.117  0.00  0.00    +0.053 C 
ATOM      3  C   UNL     1       3.435   5.661  -1.998  0.00  0.00    +0.089 C 
ATOM      4  C   UNL     1       1.802   6.216  -1.847  0.00  0.00    +0.090 C 
ATOM      5  C   UNL     1       1.391   5.055  -0.809  0.00  0.00    +0.242 C 
ATOM      6  N   UNL     1       0.265   5.478  -0.067  0.00  0.00    -0.200 NA
ATOM      7  C   UNL     1      -0.544   6.526  -0.357  0.00  0.00    +0.154 C 
ATOM      8  C   UNL     1      -0.633   7.562   0.966  0.00  0.00    +0.051 C 
ATOM      9  C   UNL     1       0.774   6.960   1.688  0.00  0.00    -0.029 C 
ATOM     10  C   UNL     1       1.568   8.013   1.956  0.00  0.00    -0.031 C 
ATOM     11  C   UNL     1       1.822   9.053   0.904  0.00  0.00    +0.026 C 
ATOM     12  C   UNL     1       3.282   9.142   0.541  0.00  0.00    +0.006 C 
ATOM     13  C   UNL     1       3.545   9.698  -0.824  0.00  0.00    +0.022 C 
ATOM     14  C   UNL     1       3.895   8.603  -1.828  0.00  0.00    +0.093 C 
ATOM     15  N   UNL     1       4.723   7.690  -1.028  0.00  0.00    -0.278 N 
ATOM     16  C   UNL     1       5.767   8.190  -0.136  0.00  0.00    +0.115 C 
ATOM     17  C   UNL     1       0.217   8.032  -0.419  0.00  0.00    +0.036 C 
ATOM     18  O   UNL     1       1.783   3.917  -0.992  0.00  0.00    -0.273 OA
ATOM     19  C   UNL     1       3.931   6.559  -0.755  0.00  0.00    +0.226 C 
ATOM     20  O   UNL     1       4.373   5.757   0.130  0.00  0.00    -0.275 OA
ATOM     21  C   UNL     1       1.588   5.271  -3.164  0.00  0.00    +0.053 C 
ENDROOT
BRANCH   7  22
ATOM     22  C   UNL     1      -1.628   6.662  -1.299  0.00  0.00    +0.280 C 
ATOM     23  N   UNL     1      -2.090   5.509  -2.027  0.00  0.00    -0.062 NA
ATOM     24  O   UNL     1      -1.672   7.682  -2.066  0.00  0.00    -0.270 OA
BRANCH  23  25
ATOM     25  S   UNL     1      -3.099   5.762  -3.422  0.00  0.00    +0.074 S 
ATOM     26  O   UNL     1      -4.315   6.533  -3.114  0.00  0.00    -0.153 OA
ATOM     27  O   UNL     1      -3.530   4.388  -3.891  0.00  0.00    -0.153 OA
BRANCH  25  28
ATOM     28  C   UNL     1      -2.157   6.459  -4.773  0.00  0.00    +0.151 C 
ATOM     29  C   UNL     1      -2.784   6.197  -6.161  0.00  0.00    +0.027 C 
ATOM     30  C   UNL     1      -2.761   7.602  -5.525  0.00  0.00    +0.027 C 
ENDBRANCH  25  28
ENDBRANCH  23  25
ENDBRANCH   7  22
BRANCH   1  31
ATOM     31  O   UNL     1       3.453   5.069  -4.599  0.00  0.00    -0.479 OA
BRANCH  31  37
ATOM     32  C   UNL     1       0.273   5.738  -8.240  0.00  0.00    +0.136 A 
ATOM     33  C   UNL     1       1.128   4.692  -8.574  0.00  0.00    +0.030 A 
ATOM     34  C   UNL     1       1.039   4.120  -9.933  0.00  0.00    +0.036 C 
ATOM     35  C   UNL     1       2.348   4.591  -7.916  0.00  0.00    +0.083 A 
ATOM     36  C   UNL     1       2.376   5.217  -6.669  0.00  0.00    +0.052 A 
ATOM     37  C   UNL     1       3.574   5.026  -5.987  0.00  0.00    +0.141 A 
ATOM     38  C   UNL     1       4.733   4.664  -6.666  0.00  0.00    +0.058 A 
ATOM     39  C   UNL     1       4.729   4.521  -8.055  0.00  0.00    +0.108 A 
ATOM     40  C   UNL     1       1.743   6.442  -6.470  0.00  0.00    +0.008 A 
ATOM     41  N   UNL     1       3.494   4.221  -8.540  0.00  0.00    -0.243 NA
ATOM     42  C   UNL     1       0.541   6.579  -7.164  0.00  0.00    +0.037 A 
BRANCH  39  43
ATOM     43  C   UNL     1       5.709   5.233  -8.900  0.00  0.00    +0.128 A 
ATOM     44  S   UNL     1       7.380   5.544  -8.633  0.00  0.00    -0.065 S 
ATOM     45  C   UNL     1       7.618   6.649  -9.922  0.00  0.00    +0.052 A 
ATOM     46  C   UNL     1       6.310   6.791 -10.378  0.00  0.00    +0.066 A 
ATOM     47  N   UNL     1       5.584   5.702 -10.149  0.00  0.00    -0.241 NA
BRANCH  46  48
ATOM     48  C   UNL     1       6.086   7.694 -11.555  0.00  0.00    +0.041 C 
ATOM     49  C   UNL     1       6.606   9.080 -11.323  0.00  0.00    +0.006 C 
ATOM     50  C   UNL     1       6.616   7.045 -12.807  0.00  0.00    +0.006 C 
ENDBRANCH  46  48
ENDBRANCH  39  43
BRANCH  32  52
ATOM     51  C   UNL     1      -0.044   6.883 -10.251  0.00  0.00    +0.252 C 
ATOM     52  O   UNL     1      -0.618   6.265  -9.182  0.00  0.00    -0.472 OA
ENDBRANCH  32  52
ENDBRANCH  31  37
ENDBRANCH   1  31
TORSDOF 8
ENDMDL
MODEL 5
REMARK VINA RESULT:      -5.4      3.953      7.247
REMARK  Name = 
REMARK  8 active torsions:
REMARK  status: ('A' for Active; 'I' for Inactive)
REMARK    1  A    between atoms: O_2  and  C_3
REMARK    2  A    between atoms: C_7  and  O_8
REMARK    3  A    between atoms: O_8  and  C_9
REMARK    4  A    between atoms: C_15  and  C_16
REMARK    5  A    between atoms: N_18  and  S_19
REMARK    6  A    between atoms: S_19  and  C_22
REMARK    7  A    between atoms: C_40  and  C_41
REMARK    8  A    between atoms: C_43  and  C_44
REMARK                            x       y       z     vdW  Elec       q    Type
REMARK                         _______ _______ _______ _____ _____    ______ ____
ROOT
ATOM      1  C   UNL     1       2.434   7.015  -5.168  0.00  0.00    +0.167 C 
ATOM      2  C   UNL     1       3.525   7.262  -3.934  0.00  0.00    +0.053 C 
ATOM      3  C   UNL     1       3.383   5.819  -3.188  0.00  0.00    +0.089 C 
ATOM      4  C   UNL     1       1.766   6.359  -2.888  0.00  0.00    +0.090 C 
ATOM      5  C   UNL     1       1.313   4.967  -2.215  0.00  0.00    +0.242 C 
ATOM      6  N   UNL     1       0.193   5.200  -1.385  0.00  0.00    -0.200 NA
ATOM      7  C   UNL     1      -0.583   6.311  -1.371  0.00  0.00    +0.154 C 
ATOM      8  C   UNL     1      -0.653   6.940   0.188  0.00  0.00    +0.051 C 
ATOM      9  C   UNL     1       0.730   6.119   0.714  0.00  0.00    -0.029 C 
ATOM     10  C   UNL     1       1.552   7.032   1.264  0.00  0.00    -0.031 C 
ATOM     11  C   UNL     1       1.844   8.315   0.544  0.00  0.00    +0.026 C 
ATOM     12  C   UNL     1       3.309   8.459   0.220  0.00  0.00    +0.006 C 
ATOM     13  C   UNL     1       3.598   9.365  -0.936  0.00  0.00    +0.022 C 
ATOM     14  C   UNL     1       3.926   8.583  -2.205  0.00  0.00    +0.093 C 
ATOM     15  N   UNL     1       4.721   7.459  -1.691  0.00  0.00    -0.278 N 
ATOM     16  C   UNL     1       5.771   7.660  -0.696  0.00  0.00    +0.115 C 
ATOM     17  C   UNL     1       0.221   7.751  -1.010  0.00  0.00    +0.036 C 
ATOM     18  O   UNL     1       1.674   3.914  -2.708  0.00  0.00    -0.273 OA
ATOM     19  C   UNL     1       3.894   6.321  -1.744  0.00  0.00    +0.226 C 
ATOM     20  O   UNL     1       4.306   5.292  -1.118  0.00  0.00    -0.275 OA
ATOM     21  C   UNL     1       1.535   5.825  -4.416  0.00  0.00    +0.053 C 
ENDROOT
BRANCH   7  22
ATOM     22  C   UNL     1      -1.655   6.736  -2.237  0.00  0.00    +0.280 C 
ATOM     23  N   UNL     1      -1.679   6.299  -3.609  0.00  0.00    -0.062 NA
ATOM     24  O   UNL     1      -2.072   7.942  -2.178  0.00  0.00    -0.270 OA
BRANCH  23  25
ATOM     25  S   UNL     1      -2.728   7.129  -4.722  0.00  0.00    +0.074 S 
ATOM     26  O   UNL     1      -2.409   8.561  -4.847  0.00  0.00    -0.153 OA
ATOM     27  O   UNL     1      -4.127   7.017  -4.153  0.00  0.00    -0.153 OA
BRANCH  25  28
ATOM     28  C   UNL     1      -2.781   6.287  -6.299  0.00  0.00    +0.151 C 
ATOM     29  C   UNL     1      -1.396   5.802  -6.784  0.00  0.00    +0.027 C 
ATOM     30  C   UNL     1      -2.490   4.821  -6.314  0.00  0.00    +0.027 C 
ENDBRANCH  25  28
ENDBRANCH  23  25
ENDBRANCH   7  22
BRANCH   1  31
ATOM     31  O   UNL     1       3.405   5.975  -5.851  0.00  0.00    -0.479 OA
BRANCH  31  37
ATOM     32  C   UNL     1       6.716   5.834  -9.433  0.00  0.00    +0.136 A 
ATOM     33  C   UNL     1       5.806   6.853  -9.699  0.00  0.00    +0.030 A 
ATOM     34  C   UNL     1       5.895   7.552 -10.998  0.00  0.00    +0.036 C 
ATOM     35  C   UNL     1       4.565   6.820  -9.074  0.00  0.00    +0.083 A 
ATOM     36  C   UNL     1       4.544   6.082  -7.891  0.00  0.00    +0.052 A 
ATOM     37  C   UNL     1       3.318   6.137  -7.233  0.00  0.00    +0.141 A 
ATOM     38  C   UNL     1       2.158   6.490  -7.913  0.00  0.00    +0.058 A 
ATOM     39  C   UNL     1       2.189   6.759  -9.284  0.00  0.00    +0.108 A 
ATOM     40  C   UNL     1       5.247   4.884  -7.782  0.00  0.00    +0.008 A 
ATOM     41  N   UNL     1       3.415   7.177  -9.699  0.00  0.00    -0.243 NA
ATOM     42  C   UNL     1       6.473   4.884  -8.447  0.00  0.00    +0.037 A 
BRANCH  39  43
ATOM     43  C   UNL     1       1.279   6.070 -10.220  0.00  0.00    +0.128 A 
ATOM     44  S   UNL     1       0.192   4.764  -9.946  0.00  0.00    -0.065 S 
ATOM     45  C   UNL     1      -0.190   4.434 -11.584  0.00  0.00    +0.052 A 
ATOM     46  C   UNL     1       0.689   5.302 -12.229  0.00  0.00    +0.066 A 
ATOM     47  N   UNL     1       0.964   6.370 -11.487  0.00  0.00    -0.241 NA
BRANCH  46  48
ATOM     48  C   UNL     1       0.652   5.331 -13.728  0.00  0.00    +0.041 C 
ATOM     49  C   UNL     1       1.727   6.195 -14.313  0.00  0.00    +0.006 C 
ATOM     50  C   UNL     1       0.639   3.924 -14.268  0.00  0.00    +0.006 C 
ENDBRANCH  46  48
ENDBRANCH  39  43
BRANCH  32  52
ATOM     51  C   UNL     1       7.155   4.988 -11.566  0.00  0.00    +0.252 C 
ATOM     52  O   UNL     1       7.663   5.450 -10.390  0.00  0.00    -0.472 OA
ENDBRANCH  32  52
ENDBRANCH  31  37
ENDBRANCH   1  31
TORSDOF 8
ENDMDL
MODEL 6
REMARK VINA RESULT:      -5.2      1.700      4.570
REMARK  Name = 
REMARK  8 active torsions:
REMARK  status: ('A' for Active; 'I' for Inactive)
REMARK    1  A    between atoms: O_2  and  C_3
REMARK    2  A    between atoms: C_7  and  O_8
REMARK    3  A    between atoms: O_8  and  C_9
REMARK    4  A    between atoms: C_15  and  C_16
REMARK    5  A    between atoms: N_18  and  S_19
REMARK    6  A    between atoms: S_19  and  C_22
REMARK    7  A    between atoms: C_40  and  C_41
REMARK    8  A    between atoms: C_43  and  C_44
REMARK                            x       y       z     vdW  Elec       q    Type
REMARK                         _______ _______ _______ _____ _____    ______ ____
ROOT
ATOM      1  C   UNL     1       3.995   7.358  -1.547  0.00  0.00    +0.167 C 
ATOM      2  C   UNL     1       4.509   6.934  -0.021  0.00  0.00    +0.053 C 
ATOM      3  C   UNL     1       3.234   7.490   0.831  0.00  0.00    +0.089 C 
ATOM      4  C   UNL     1       3.774   9.029   0.251  0.00  0.00    +0.090 C 
ATOM      5  C   UNL     1       2.527   9.825   0.888  0.00  0.00    +0.242 C 
ATOM      6  N   UNL     1       2.883  11.183   1.054  0.00  0.00    -0.200 NA
ATOM      7  C   UNL     1       3.952  11.808   0.504  0.00  0.00    +0.154 C 
ATOM      8  C   UNL     1       4.869  12.540   1.710  0.00  0.00    +0.051 C 
ATOM      9  C   UNL     1       4.207  11.601   2.953  0.00  0.00    -0.029 C 
ATOM     10  C   UNL     1       5.233  11.063   3.638  0.00  0.00    -0.031 C 
ATOM     11  C   UNL     1       6.361  10.396   2.907  0.00  0.00    +0.026 C 
ATOM     12  C   UNL     1       6.482   8.938   3.270  0.00  0.00    +0.006 C 
ATOM     13  C   UNL     1       7.155   8.098   2.229  0.00  0.00    +0.022 C 
ATOM     14  C   UNL     1       6.151   7.279   1.420  0.00  0.00    +0.093 C 
ATOM     15  N   UNL     1       5.173   6.878   2.440  0.00  0.00    -0.278 N 
ATOM     16  C   UNL     1       5.594   6.385   3.749  0.00  0.00    +0.115 C 
ATOM     17  C   UNL     1       5.458  11.167   0.918  0.00  0.00    +0.036 C 
ATOM     18  O   UNL     1       1.409   9.347   0.820  0.00  0.00    -0.273 OA
ATOM     19  C   UNL     1       4.021   7.660   2.228  0.00  0.00    +0.226 C 
ATOM     20  O   UNL     1       3.146   7.643   3.152  0.00  0.00    -0.275 OA
ATOM     21  C   UNL     1       2.947   8.573  -1.084  0.00  0.00    +0.053 C 
ENDROOT
BRANCH   7  22
ATOM     22  C   UNL     1       4.169  12.340  -0.819  0.00  0.00    +0.280 C 
ATOM     23  N   UNL     1       5.378  13.069  -1.106  0.00  0.00    -0.062 NA
ATOM     24  O   UNL     1       3.198  12.882  -1.448  0.00  0.00    -0.270 OA
BRANCH  23  25
ATOM     25  S   UNL     1       5.439  14.030  -2.555  0.00  0.00    +0.074 S 
ATOM     26  O   UNL     1       4.634  13.463  -3.650  0.00  0.00    -0.153 OA
ATOM     27  O   UNL     1       6.886  14.034  -3.002  0.00  0.00    -0.153 OA
BRANCH  25  28
ATOM     28  C   UNL     1       5.036  15.737  -2.207  0.00  0.00    +0.151 C 
ATOM     29  C   UNL     1       4.600  15.981  -0.745  0.00  0.00    +0.027 C 
ATOM     30  C   UNL     1       5.947  16.494  -1.294  0.00  0.00    +0.027 C 
ENDBRANCH  25  28
ENDBRANCH  23  25
ENDBRANCH   7  22
BRANCH   1  31
ATOM     31  O   UNL     1       2.871   6.250  -1.503  0.00  0.00    -0.479 OA
BRANCH  31  37
ATOM     32  C   UNL     1      -1.689   6.373  -3.238  0.00  0.00    +0.136 A 
ATOM     33  C   UNL     1      -0.977   5.384  -3.910  0.00  0.00    +0.030 A 
ATOM     34  C   UNL     1      -1.623   4.708  -5.054  0.00  0.00    +0.036 C 
ATOM     35  C   UNL     1       0.412   5.438  -3.900  0.00  0.00    +0.083 A 
ATOM     36  C   UNL     1       0.946   6.153  -2.828  0.00  0.00    +0.052 A 
ATOM     37  C   UNL     1       2.337   6.117  -2.784  0.00  0.00    +0.141 A 
ATOM     38  C   UNL     1       3.080   5.809  -3.918  0.00  0.00    +0.058 A 
ATOM     39  C   UNL     1       2.447   5.565  -5.140  0.00  0.00    +0.108 A 
ATOM     40  C   UNL     1       0.346   7.329  -2.383  0.00  0.00    +0.008 A 
ATOM     41  N   UNL     1       1.170   5.124  -4.980  0.00  0.00    -0.243 NA
ATOM     42  C   UNL     1      -1.047   7.310  -2.435  0.00  0.00    +0.037 A 
BRANCH  39  43
ATOM     43  C   UNL     1       2.836   6.297  -6.362  0.00  0.00    +0.128 A 
ATOM     44  S   UNL     1       2.117   7.674  -7.103  0.00  0.00    -0.065 S 
ATOM     45  C   UNL     1       3.001   7.633  -8.571  0.00  0.00    +0.052 A 
ATOM     46  C   UNL     1       3.701   6.440  -8.413  0.00  0.00    +0.066 A 
ATOM     47  N   UNL     1       3.925   6.163  -7.132  0.00  0.00    -0.241 NA
BRANCH  46  48
ATOM     48  C   UNL     1       4.637   6.040  -9.514  0.00  0.00    +0.041 C 
ATOM     49  C   UNL     1       4.861   7.140 -10.507  0.00  0.00    +0.006 C 
ATOM     50  C   UNL     1       5.907   5.479  -8.930  0.00  0.00    +0.006 C 
ENDBRANCH  46  48
ENDBRANCH  39  43
BRANCH  32  52
ATOM     51  C   UNL     1      -3.954   6.635  -2.732  0.00  0.00    +0.252 C 
ATOM     52  O   UNL     1      -2.968   6.750  -3.664  0.00  0.00    -0.472 OA
ENDBRANCH  32  52
ENDBRANCH  31  37
ENDBRANCH   1  31
TORSDOF 8
ENDMDL
MODEL 7
REMARK VINA RESULT:      -4.8      4.182      8.206
REMARK  Name = 
REMARK  8 active torsions:
REMARK  status: ('A' for Active; 'I' for Inactive)
REMARK    1  A    between atoms: O_2  and  C_3
REMARK    2  A    between atoms: C_7  and  O_8
REMARK    3  A    between atoms: O_8  and  C_9
REMARK    4  A    between atoms: C_15  and  C_16
REMARK    5  A    between atoms: N_18  and  S_19
REMARK    6  A    between atoms: S_19  and  C_22
REMARK    7  A    between atoms: C_40  and  C_41
REMARK    8  A    between atoms: C_43  and  C_44
REMARK                            x       y       z     vdW  Elec       q    Type
REMARK                         _______ _______ _______ _____ _____    ______ ____
ROOT
ATOM      1  C   UNL     1       1.834   5.507  -5.711  0.00  0.00    +0.167 C 
ATOM      2  C   UNL     1       3.322   6.067  -5.218  0.00  0.00    +0.053 C 
ATOM      3  C   UNL     1       3.662   4.919  -4.110  0.00  0.00    +0.089 C 
ATOM      4  C   UNL     1       2.291   5.589  -3.291  0.00  0.00    +0.090 C 
ATOM      5  C   UNL     1       2.316   4.480  -2.122  0.00  0.00    +0.242 C 
ATOM      6  N   UNL     1       1.651   4.995  -0.986  0.00  0.00    -0.200 NA
ATOM      7  C   UNL     1       0.853   6.089  -0.945  0.00  0.00    +0.154 C 
ATOM      8  C   UNL     1       1.406   7.157   0.232  0.00  0.00    +0.051 C 
ATOM      9  C   UNL     1       2.954   6.476   0.298  0.00  0.00    -0.029 C 
ATOM     10  C   UNL     1       3.839   7.477   0.141  0.00  0.00    -0.031 C 
ATOM     11  C   UNL     1       3.661   8.475  -0.966  0.00  0.00    +0.026 C 
ATOM     12  C   UNL     1       4.818   8.456  -1.932  0.00  0.00    +0.006 C 
ATOM     13  C   UNL     1       4.484   8.964  -3.301  0.00  0.00    +0.022 C 
ATOM     14  C   UNL     1       4.303   7.826  -4.303  0.00  0.00    +0.093 C 
ATOM     15  N   UNL     1       5.348   6.876  -3.899  0.00  0.00    -0.278 N 
ATOM     16  C   UNL     1       6.701   7.323  -3.576  0.00  0.00    +0.115 C 
ATOM     17  C   UNL     1       1.588   7.538  -1.406  0.00  0.00    +0.036 C 
ATOM     18  O   UNL     1       2.528   3.315  -2.401  0.00  0.00    -0.273 OA
ATOM     19  C   UNL     1       4.698   5.808  -3.253  0.00  0.00    +0.226 C 
ATOM     20  O   UNL     1       5.440   4.997  -2.611  0.00  0.00    -0.275 OA
ATOM     21  C   UNL     1       1.473   4.633  -4.335  0.00  0.00    +0.053 C 
ENDROOT
BRANCH   7  22
ATOM     22  C   UNL     1      -0.525   6.279  -1.327  0.00  0.00    +0.280 C 
ATOM     23  N   UNL     1      -1.091   5.476  -2.380  0.00  0.00    -0.062 NA
ATOM     24  O   UNL     1      -0.999   7.462  -1.406  0.00  0.00    -0.270 OA
BRANCH  23  25
ATOM     25  S   UNL     1      -2.597   5.985  -3.088  0.00  0.00    +0.074 S 
ATOM     26  O   UNL     1      -3.448   6.729  -2.144  0.00  0.00    -0.153 OA
ATOM     27  O   UNL     1      -3.335   4.720  -3.475  0.00  0.00    -0.153 OA
BRANCH  25  28
ATOM     28  C   UNL     1      -2.317   6.868  -4.618  0.00  0.00    +0.151 C 
ATOM     29  C   UNL     1      -1.989   8.364  -4.414  0.00  0.00    +0.027 C 
ATOM     30  C   UNL     1      -0.930   7.351  -4.897  0.00  0.00    +0.027 C 
ENDBRANCH  25  28
ENDBRANCH  23  25
ENDBRANCH   7  22
BRANCH   1  31
ATOM     31  O   UNL     1       2.508   4.272  -6.427  0.00  0.00    -0.479 OA
BRANCH  31  37
ATOM     32  C   UNL     1      -0.375   5.689 -10.100  0.00  0.00    +0.136 A 
ATOM     33  C   UNL     1       0.605   4.836 -10.599  0.00  0.00    +0.030 A 
ATOM     34  C   UNL     1       0.697   4.652 -12.062  0.00  0.00    +0.036 C 
ATOM     35  C   UNL     1       1.763   4.643  -9.856  0.00  0.00    +0.083 A 
ATOM     36  C   UNL     1       1.616   4.905  -8.493  0.00  0.00    +0.052 A 
ATOM     37  C   UNL     1       2.759   4.619  -7.753  0.00  0.00    +0.141 A 
ATOM     38  C   UNL     1       4.005   4.536  -8.367  0.00  0.00    +0.058 A 
ATOM     39  C   UNL     1       4.143   4.779  -9.736  0.00  0.00    +0.108 A 
ATOM     40  C   UNL     1       0.851   5.983  -8.052  0.00  0.00    +0.008 A 
ATOM     41  N   UNL     1       2.992   4.537 -10.421  0.00  0.00    -0.243 NA
ATOM     42  C   UNL     1      -0.290   6.221  -8.817  0.00  0.00    +0.037 A 
BRANCH  39  43
ATOM     43  C   UNL     1       5.122   5.761 -10.244  0.00  0.00    +0.128 A 
ATOM     44  S   UNL     1       5.074   7.480 -10.225  0.00  0.00    -0.065 S 
ATOM     45  C   UNL     1       6.411   7.759 -11.262  0.00  0.00    +0.052 A 
ATOM     46  C   UNL     1       6.703   6.455 -11.654  0.00  0.00    +0.066 A 
ATOM     47  N   UNL     1       6.357   5.569 -10.727  0.00  0.00    -0.241 NA
BRANCH  46  48
ATOM     48  C   UNL     1       7.865   6.260 -12.582  0.00  0.00    +0.041 C 
ATOM     49  C   UNL     1       9.066   5.691 -11.889  0.00  0.00    +0.006 C 
ATOM     50  C   UNL     1       7.430   5.474 -13.791  0.00  0.00    +0.006 C 
ENDBRANCH  46  48
ENDBRANCH  39  43
BRANCH  32  52
ATOM     51  C   UNL     1      -0.766   7.605 -11.378  0.00  0.00    +0.252 C 
ATOM     52  O   UNL     1      -1.223   6.391 -10.965  0.00  0.00    -0.472 OA
ENDBRANCH  32  52
ENDBRANCH  31  37
ENDBRANCH   1  31
TORSDOF 8
ENDMDL
MODEL 8
REMARK VINA RESULT:      -4.6      4.491      8.265
REMARK  Name = 
REMARK  8 active torsions:
REMARK  status: ('A' for Active; 'I' for Inactive)
REMARK    1  A    between atoms: O_2  and  C_3
REMARK    2  A    between atoms: C_7  and  O_8
REMARK    3  A    between atoms: O_8  and  C_9
REMARK    4  A    between atoms: C_15  and  C_16
REMARK    5  A    between atoms: N_18  and  S_19
REMARK    6  A    between atoms: S_19  and  C_22
REMARK    7  A    between atoms: C_40  and  C_41
REMARK    8  A    between atoms: C_43  and  C_44
REMARK                            x       y       z     vdW  Elec       q    Type
REMARK                         _______ _______ _______ _____ _____    ______ ____
ROOT
ATOM      1  C   UNL     1       2.242   6.318  -6.709  0.00  0.00    +0.167 C 
ATOM      2  C   UNL     1       3.710   6.607  -5.979  0.00  0.00    +0.053 C 
ATOM      3  C   UNL     1       3.854   5.208  -5.154  0.00  0.00    +0.089 C 
ATOM      4  C   UNL     1       2.460   5.795  -4.311  0.00  0.00    +0.090 C 
ATOM      5  C   UNL     1       2.289   4.449  -3.441  0.00  0.00    +0.242 C 
ATOM      6  N   UNL     1       1.553   4.748  -2.272  0.00  0.00    -0.200 NA
ATOM      7  C   UNL     1       0.835   5.872  -2.036  0.00  0.00    +0.154 C 
ATOM      8  C   UNL     1       1.344   6.583  -0.598  0.00  0.00    +0.051 C 
ATOM      9  C   UNL     1       2.825   5.763  -0.573  0.00  0.00    -0.029 C 
ATOM     10  C   UNL     1       3.791   6.687  -0.415  0.00  0.00    -0.031 C 
ATOM     11  C   UNL     1       3.796   7.925  -1.262  0.00  0.00    +0.026 C 
ATOM     12  C   UNL     1       5.039   8.022  -2.110  0.00  0.00    +0.006 C 
ATOM     13  C   UNL     1       4.881   8.861  -3.340  0.00  0.00    +0.022 C 
ATOM     14  C   UNL     1       4.718   8.008  -4.595  0.00  0.00    +0.093 C 
ATOM     15  N   UNL     1       5.648   6.897  -4.348  0.00  0.00    -0.278 N 
ATOM     16  C   UNL     1       6.990   7.128  -3.821  0.00  0.00    +0.115 C 
ATOM     17  C   UNL     1       1.715   7.313  -2.077  0.00  0.00    +0.036 C 
ATOM     18  O   UNL     1       2.443   3.365  -3.973  0.00  0.00    -0.273 OA
ATOM     19  C   UNL     1       4.861   5.774  -4.029  0.00  0.00    +0.226 C 
ATOM     20  O   UNL     1       5.475   4.771  -3.542  0.00  0.00    -0.275 OA
ATOM     21  C   UNL     1       1.683   5.187  -5.615  0.00  0.00    +0.053 C 
ENDROOT
BRANCH   7  22
ATOM     22  C   UNL     1      -0.480   6.273  -2.470  0.00  0.00    +0.280 C 
ATOM     23  N   UNL     1      -1.457   5.270  -2.806  0.00  0.00    -0.062 NA
ATOM     24  O   UNL     1      -0.606   7.261  -3.270  0.00  0.00    -0.270 OA
BRANCH  23  25
ATOM     25  S   UNL     1      -2.871   5.759  -3.696  0.00  0.00    +0.074 S 
ATOM     26  O   UNL     1      -3.772   6.616  -2.907  0.00  0.00    -0.153 OA
ATOM     27  O   UNL     1      -3.622   4.488  -4.034  0.00  0.00    -0.153 OA
BRANCH  25  28
ATOM     28  C   UNL     1      -2.418   6.485  -5.266  0.00  0.00    +0.151 C 
ATOM     29  C   UNL     1      -1.660   5.513  -6.198  0.00  0.00    +0.027 C 
ATOM     30  C   UNL     1      -3.103   5.972  -6.492  0.00  0.00    +0.027 C 
ENDBRANCH  25  28
ENDBRANCH  23  25
ENDBRANCH   7  22
BRANCH   1  31
ATOM     31  O   UNL     1       2.893   5.224  -7.642  0.00  0.00    -0.479 OA
BRANCH  31  37
ATOM     32  C   UNL     1       6.826   6.290 -10.329  0.00  0.00    +0.136 A 
ATOM     33  C   UNL     1       5.878   7.295 -10.497  0.00  0.00    +0.030 A 
ATOM     34  C   UNL     1       6.137   8.343 -11.506  0.00  0.00    +0.036 C 
ATOM     35  C   UNL     1       4.551   7.021 -10.187  0.00  0.00    +0.083 A 
ATOM     36  C   UNL     1       4.384   5.972  -9.282  0.00  0.00    +0.052 A 
ATOM     37  C   UNL     1       3.056   5.774  -8.913  0.00  0.00    +0.141 A 
ATOM     38  C   UNL     1       2.016   6.249  -9.705  0.00  0.00    +0.058 A 
ATOM     39  C   UNL     1       2.280   6.904 -10.911  0.00  0.00    +0.108 A 
ATOM     40  C   UNL     1       5.180   4.831  -9.354  0.00  0.00    +0.008 A 
ATOM     41  N   UNL     1       3.511   7.484 -10.923  0.00  0.00    -0.243 NA
ATOM     42  C   UNL     1       6.503   5.085  -9.714  0.00  0.00    +0.037 A 
BRANCH  39  43
ATOM     43  C   UNL     1       1.647   6.468 -12.172  0.00  0.00    +0.128 A 
ATOM     44  S   UNL     1       1.372   4.883 -12.782  0.00  0.00    -0.065 S 
ATOM     45  C   UNL     1       0.899   5.326 -14.369  0.00  0.00    +0.052 A 
ATOM     46  C   UNL     1       1.134   6.698 -14.330  0.00  0.00    +0.066 A 
ATOM     47  N   UNL     1       1.004   7.188 -13.101  0.00  0.00    -0.241 NA
BRANCH  46  48
ATOM     48  C   UNL     1       0.815   7.486 -15.566  0.00  0.00    +0.041 C 
ATOM     49  C   UNL     1      -0.487   7.081 -16.186  0.00  0.00    +0.006 C 
ATOM     50  C   UNL     1       0.919   8.960 -15.275  0.00  0.00    +0.006 C 
ENDBRANCH  46  48
ENDBRANCH  39  43
BRANCH  32  52
ATOM     51  C   UNL     1       7.981   5.289 -12.095  0.00  0.00    +0.252 C 
ATOM     52  O   UNL     1       7.975   6.247 -11.127  0.00  0.00    -0.472 OA
ENDBRANCH  32  52
ENDBRANCH  31  37
ENDBRANCH   1  31
TORSDOF 8
ENDMDL
MODEL 9
REMARK VINA RESULT:      -4.0      6.256     12.265
REMARK  Name = 
REMARK  8 active torsions:
REMARK  status: ('A' for Active; 'I' for Inactive)
REMARK    1  A    between atoms: O_2  and  C_3
REMARK    2  A    between atoms: C_7  and  O_8
REMARK    3  A    between atoms: O_8  and  C_9
REMARK    4  A    between atoms: C_15  and  C_16
REMARK    5  A    between atoms: N_18  and  S_19
REMARK    6  A    between atoms: S_19  and  C_22
REMARK    7  A    between atoms: C_40  and  C_41
REMARK    8  A    between atoms: C_43  and  C_44
REMARK                            x       y       z     vdW  Elec       q    Type
REMARK                         _______ _______ _______ _____ _____    ______ ____
ROOT
ATOM      1  C   UNL     1       1.815   6.505 -11.046  0.00  0.00    +0.167 C 
ATOM      2  C   UNL     1       0.880   6.894 -12.368  0.00  0.00    +0.053 C 
ATOM      3  C   UNL     1       1.202   5.588 -13.290  0.00  0.00    +0.089 C 
ATOM      4  C   UNL     1       2.810   6.231 -13.284  0.00  0.00    +0.090 C 
ATOM      5  C   UNL     1       3.427   4.977 -14.085  0.00  0.00    +0.242 C 
ATOM      6  N   UNL     1       4.629   5.377 -14.712  0.00  0.00    -0.200 NA
ATOM      7  C   UNL     1       5.333   6.506 -14.457  0.00  0.00    +0.154 C 
ATOM      8  C   UNL     1       5.567   7.368 -15.883  0.00  0.00    +0.051 C 
ATOM      9  C   UNL     1       4.314   6.583 -16.707  0.00  0.00    -0.029 C 
ATOM     10  C   UNL     1       3.517   7.536 -17.226  0.00  0.00    -0.031 C 
ATOM     11  C   UNL     1       3.059   8.682 -16.373  0.00  0.00    +0.026 C 
ATOM     12  C   UNL     1       1.559   8.717 -16.235  0.00  0.00    +0.006 C 
ATOM     13  C   UNL     1       1.069   9.425 -15.009  0.00  0.00    +0.022 C 
ATOM     14  C   UNL     1       0.627   8.446 -13.924  0.00  0.00    +0.093 C 
ATOM     15  N   UNL     1      -0.026   7.383 -14.700  0.00  0.00    -0.278 N 
ATOM     16  C   UNL     1      -0.949   7.692 -15.790  0.00  0.00    +0.115 C 
ATOM     17  C   UNL     1       4.498   7.952 -14.710  0.00  0.00    +0.036 C 
ATOM     18  O   UNL     1       3.069   3.847 -13.805  0.00  0.00    -0.273 OA
ATOM     19  C   UNL     1       0.853   6.283 -14.702  0.00  0.00    +0.226 C 
ATOM     20  O   UNL     1       0.587   5.346 -15.521  0.00  0.00    -0.275 OA
ATOM     21  C   UNL     1       2.872   5.479 -11.833  0.00  0.00    +0.053 C 
ENDROOT
BRANCH   7  22
ATOM     22  C   UNL     1       6.257   6.837 -13.400  0.00  0.00    +0.280 C 
ATOM     23  N   UNL     1       7.344   5.942 -13.096  0.00  0.00    -0.062 NA
ATOM     24  O   UNL     1       5.815   7.338 -12.311  0.00  0.00    -0.270 OA
BRANCH  23  25
ATOM     25  S   UNL     1       8.188   6.148 -11.588  0.00  0.00    +0.074 S 
ATOM     26  O   UNL     1       8.177   7.543 -11.115  0.00  0.00    -0.153 OA
ATOM     27  O   UNL     1       9.628   5.762 -11.850  0.00  0.00    -0.153 OA
BRANCH  25  28
ATOM     28  C   UNL     1       7.593   4.992 -10.360  0.00  0.00    +0.151 C 
ATOM     29  C   UNL     1       7.438   5.613  -8.954  0.00  0.00    +0.027 C 
ATOM     30  C   UNL     1       6.220   5.209  -9.810  0.00  0.00    +0.027 C 
ENDBRANCH  25  28
ENDBRANCH  23  25
ENDBRANCH   7  22
BRANCH   1  31
ATOM     31  O   UNL     1       0.827   5.335 -10.661  0.00  0.00    -0.479 OA
BRANCH  31  37
ATOM     32  C   UNL     1       4.048   5.977  -7.051  0.00  0.00    +0.136 A 
ATOM     33  C   UNL     1       3.187   4.939  -6.709  0.00  0.00    +0.030 A 
ATOM     34  C   UNL     1       3.285   4.365  -5.351  0.00  0.00    +0.036 C 
ATOM     35  C   UNL     1       1.960   4.847  -7.355  0.00  0.00    +0.083 A 
ATOM     36  C   UNL     1       1.925   5.474  -8.601  0.00  0.00    +0.052 A 
ATOM     37  C   UNL     1       0.719   5.293  -9.272  0.00  0.00    +0.141 A 
ATOM     38  C   UNL     1      -0.436   4.940  -8.582  0.00  0.00    +0.058 A 
ATOM     39  C   UNL     1      -0.420   4.797  -7.192  0.00  0.00    +0.108 A 
ATOM     40  C   UNL     1       2.567   6.694  -8.806  0.00  0.00    +0.008 A 
ATOM     41  N   UNL     1       0.817   4.487  -6.719  0.00  0.00    -0.243 NA
ATOM     42  C   UNL     1       3.776   6.820  -8.124  0.00  0.00    +0.037 A 
BRANCH  39  43
ATOM     43  C   UNL     1      -1.386   5.518  -6.338  0.00  0.00    +0.128 A 
ATOM     44  S   UNL     1      -2.756   6.462  -6.772  0.00  0.00    -0.065 S 
ATOM     45  C   UNL     1      -3.072   7.134  -5.227  0.00  0.00    +0.052 A 
ATOM     46  C   UNL     1      -1.972   6.662  -4.516  0.00  0.00    +0.066 A 
ATOM     47  N   UNL     1      -1.523   5.510  -5.005  0.00  0.00    -0.241 NA
BRANCH  46  48
ATOM     48  C   UNL     1      -1.884   7.026  -3.064  0.00  0.00    +0.041 C 
ATOM     49  C   UNL     1      -3.162   6.765  -2.326  0.00  0.00    +0.006 C 
ATOM     50  C   UNL     1      -0.677   6.371  -2.443  0.00  0.00    +0.006 C 
ENDBRANCH  46  48
ENDBRANCH  39  43
BRANCH  32  52
ATOM     51  C   UNL     1       4.410   7.295  -5.157  0.00  0.00    +0.252 C 
ATOM     52  O   UNL     1       4.952   6.497  -6.118  0.00  0.00    -0.472 OA
ENDBRANCH  32  52
ENDBRANCH  31  37
ENDBRANCH   1  31
TORSDOF 8
ENDMDL
