MODEL 1
REMARK VINA RESULT:      -9.9      0.000      0.000
REMARK  Name = 
REMARK  6 active torsions:
REMARK  status: ('A' for Active; 'I' for Inactive)
REMARK    1  A    between atoms: C_2  and  C_3
REMARK    2  A    between atoms: C_8  and  C_9
REMARK    3  A    between atoms: C_12  and  N_13
REMARK    4  A    between atoms: N_13  and  C_14
REMARK    5  A    between atoms: C_14  and  C_15
REMARK    6  A    between atoms: C_15  and  C_17
REMARK                            x       y       z     vdW  Elec       q    Type
REMARK                         _______ _______ _______ _____ _____    ______ ____
ROOT
ATOM      1  C   UNL     1       3.415   5.679  -6.893  0.00  0.00    +0.126 C 
ENDROOT
BRANCH   1   2
ATOM      2  C   UNL     1       3.360   4.740  -5.495  0.00  0.00    +0.192 C 
ATOM      3  O   UNL     1       2.264   3.796  -6.060  0.00  0.00    -0.217 OA
BRANCH   2   4
ATOM      4  C   UNL     1       2.234   5.747  -4.813  0.00  0.00    +0.011 A 
ATOM      5  C   UNL     1       2.650   6.133  -3.543  0.00  0.00    +0.020 A 
ATOM      6  C   UNL     1       1.843   6.017  -2.417  0.00  0.00    +0.123 A 
ATOM      7  N   UNL     1       2.360   6.113  -1.165  0.00  0.00    -0.205 NA
ATOM      8  C   UNL     1       3.702   6.224  -1.019  0.00  0.00    +0.279 A 
ATOM      9  C   UNL     1       4.370   6.854  -2.054  0.00  0.00    +0.063 A 
ATOM     10  O   UNL     1       4.302   5.718  -0.024  0.00  0.00    -0.265 OA
ATOM     11  C   UNL     1       0.576   5.460  -2.536  0.00  0.00    +0.213 A 
ATOM     12  O   UNL     1       0.019   4.731  -1.480  0.00  0.00    -0.285 OA
ATOM     13  C   UNL     1       0.110   5.275  -3.826  0.00  0.00    +0.043 A 
ATOM     14  C   UNL     1       3.936   6.550  -3.337  0.00  0.00    +0.006 A 
ATOM     15  C   UNL     1       0.975   5.188  -4.908  0.00  0.00    +0.002 A 
ENDBRANCH   2   4
ENDBRANCH   1   2
BRANCH   1  16
ATOM     16  N   UNL     1       3.051   4.802  -7.958  0.00  0.00    -0.216 NA
BRANCH  16  22
ATOM     17  C   UNL     1       7.489   5.769 -11.571  0.00  0.00    -0.026 A 
ATOM     18  C   UNL     1       6.391   5.956 -12.400  0.00  0.00    -0.026 A 
ATOM     19  C   UNL     1       5.263   6.481 -11.782  0.00  0.00    -0.009 A 
ATOM     20  C   UNL     1       5.138   6.508 -10.396  0.00  0.00    -0.025 A 
ATOM     21  C   UNL     1       3.859   6.430  -9.621  0.00  0.00    +0.044 C 
ATOM     22  C   UNL     1       4.012   5.033  -9.032  0.00  0.00    +0.082 C 
ATOM     23  C   UNL     1       5.432   5.145  -8.489  0.00  0.00    +0.044 C 
ATOM     24  C   UNL     1       6.100   5.883  -9.607  0.00  0.00    -0.025 A 
ATOM     25  C   UNL     1       7.359   5.790 -10.188  0.00  0.00    -0.009 A 
BRANCH  18  26
ATOM     26  C   UNL     1       6.495   5.796 -13.859  0.00  0.00    +0.026 C 
ATOM     27  C   UNL     1       6.341   7.107 -14.612  0.00  0.00    +0.005 C 
ENDBRANCH  18  26
BRANCH  17  29
ATOM     28  C   UNL     1       9.226   5.798 -12.088  0.00  0.00    +0.005 C 
ATOM     29  C   UNL     1       8.859   5.825 -12.163  0.00  0.00    +0.026 C 
ENDBRANCH  17  29
ENDBRANCH  16  22
ENDBRANCH   1  16
TORSDOF 6
ENDMDL
MODEL 2
REMARK VINA RESULT:      -9.8      1.877      3.210
REMARK  Name = 
REMARK  6 active torsions:
REMARK  status: ('A' for Active; 'I' for Inactive)
REMARK    1  A    between atoms: C_2  and  C_3
REMARK    2  A    between atoms: C_8  and  C_9
REMARK    3  A    between atoms: C_12  and  N_13
REMARK    4  A    between atoms: N_13  and  C_14
REMARK    5  A    between atoms: C_14  and  C_15
REMARK    6  A    between atoms: C_15  and  C_17
REMARK                            x       y       z     vdW  Elec       q    Type
REMARK                         _______ _______ _______ _____ _____    ______ ____
ROOT
ATOM      1  C   UNL     1       3.634   5.179  -6.821  0.00  0.00    +0.126 C 
ENDROOT
BRANCH   1   2
ATOM      2  C   UNL     1       2.527   6.347  -6.320  0.00  0.00    +0.192 C 
ATOM      3  O   UNL     1       3.485   6.930  -5.247  0.00  0.00    -0.217 OA
BRANCH   2   4
ATOM      4  C   UNL     1       1.846   5.294  -5.236  0.00  0.00    +0.011 A 
ATOM      5  C   UNL     1       0.458   5.367  -5.312  0.00  0.00    +0.020 A 
ATOM      6  C   UNL     1      -0.349   5.559  -4.197  0.00  0.00    +0.123 A 
ATOM      7  N   UNL     1      -1.651   5.922  -4.322  0.00  0.00    -0.205 NA
ATOM      8  C   UNL     1      -2.136   6.200  -5.555  0.00  0.00    +0.279 A 
ATOM      9  C   UNL     1      -1.542   5.518  -6.603  0.00  0.00    +0.063 A 
ATOM     10  O   UNL     1      -3.030   7.081  -5.731  0.00  0.00    -0.265 OA
ATOM     11  C   UNL     1       0.236   5.722  -2.946  0.00  0.00    +0.213 A 
ATOM     12  O   UNL     1      -0.372   6.531  -1.980  0.00  0.00    -0.285 OA
ATOM     13  C   UNL     1       1.589   5.444  -2.865  0.00  0.00    +0.043 A 
ATOM     14  C   UNL     1      -0.166   5.361  -6.529  0.00  0.00    +0.006 A 
ATOM     15  C   UNL     1       2.407   5.469  -3.986  0.00  0.00    +0.002 A 
ENDBRANCH   2   4
ENDBRANCH   1   2
BRANCH   1  16
ATOM     16  N   UNL     1       3.082   4.611  -8.008  0.00  0.00    -0.216 NA
BRANCH  16  22
ATOM     17  C   UNL     1       7.524   5.693 -11.581  0.00  0.00    -0.026 A 
ATOM     18  C   UNL     1       6.434   5.776 -12.437  0.00  0.00    -0.026 A 
ATOM     19  C   UNL     1       5.264   6.257 -11.863  0.00  0.00    -0.009 A 
ATOM     20  C   UNL     1       5.109   6.336 -10.482  0.00  0.00    -0.025 A 
ATOM     21  C   UNL     1       3.822   6.213  -9.727  0.00  0.00    +0.044 C 
ATOM     22  C   UNL     1       4.048   4.853  -9.074  0.00  0.00    +0.082 C 
ATOM     23  C   UNL     1       5.448   5.077  -8.512  0.00  0.00    +0.044 C 
ATOM     24  C   UNL     1       6.092   5.806  -9.650  0.00  0.00    -0.025 A 
ATOM     25  C   UNL     1       7.365   5.765 -10.203  0.00  0.00    -0.009 A 
BRANCH  18  26
ATOM     26  C   UNL     1       6.576   5.560 -13.886  0.00  0.00    +0.026 C 
ATOM     27  C   UNL     1       6.410   6.836 -14.695  0.00  0.00    +0.005 C 
ENDBRANCH  18  26
BRANCH  17  29
ATOM     28  C   UNL     1       9.267   5.804 -12.069  0.00  0.00    +0.005 C 
ATOM     29  C   UNL     1       8.900   5.808 -12.152  0.00  0.00    +0.026 C 
ENDBRANCH  17  29
ENDBRANCH  16  22
ENDBRANCH   1  16
TORSDOF 6
ENDMDL
MODEL 3
REMARK VINA RESULT:      -9.4      1.691      2.686
REMARK  Name = 
REMARK  6 active torsions:
REMARK  status: ('A' for Active; 'I' for Inactive)
REMARK    1  A    between atoms: C_2  and  C_3
REMARK    2  A    between atoms: C_8  and  C_9
REMARK    3  A    between atoms: C_12  and  N_13
REMARK    4  A    between atoms: N_13  and  C_14
REMARK    5  A    between atoms: C_14  and  C_15
REMARK    6  A    between atoms: C_15  and  C_17
REMARK                            x       y       z     vdW  Elec       q    Type
REMARK                         _______ _______ _______ _____ _____    ______ ____
ROOT
ATOM      1  C   UNL     1       1.529   6.583  -7.005  0.00  0.00    +0.126 C 
ENDROOT
BRANCH   1   2
ATOM      2  C   UNL     1       0.901   5.235  -6.212  0.00  0.00    +0.192 C 
ATOM      3  O   UNL     1      -0.238   5.039  -7.248  0.00  0.00    -0.217 OA
BRANCH   2   4
ATOM      4  C   UNL     1      -0.049   6.193  -5.249  0.00  0.00    +0.011 A 
ATOM      5  C   UNL     1       0.329   6.050  -3.917  0.00  0.00    +0.020 A 
ATOM      6  C   UNL     1      -0.576   5.760  -2.903  0.00  0.00    +0.123 A 
ATOM      7  N   UNL     1      -0.158   5.335  -1.684  0.00  0.00    -0.205 NA
ATOM      8  C   UNL     1       1.161   5.095  -1.493  0.00  0.00    +0.279 A 
ATOM      9  C   UNL     1       2.028   5.860  -2.254  0.00  0.00    +0.063 A 
ATOM     10  O   UNL     1       1.560   4.178  -0.714  0.00  0.00    -0.265 OA
ATOM     11  C   UNL     1      -1.916   5.564  -3.215  0.00  0.00    +0.213 A 
ATOM     12  O   UNL     1      -2.697   4.676  -2.467  0.00  0.00    -0.285 OA
ATOM     13  C   UNL     1      -2.300   5.909  -4.499  0.00  0.00    +0.043 A 
ATOM     14  C   UNL     1       1.651   6.086  -3.570  0.00  0.00    +0.006 A 
ATOM     15  C   UNL     1      -1.383   5.984  -5.539  0.00  0.00    +0.002 A 
ENDBRANCH   2   4
ENDBRANCH   1   2
BRANCH   1  16
ATOM     16  N   UNL     1       2.899   6.655  -6.613  0.00  0.00    -0.216 NA
BRANCH  16  22
ATOM     17  C   UNL     1       5.322   5.722 -11.803  0.00  0.00    -0.026 A 
ATOM     18  C   UNL     1       6.406   6.147 -11.046  0.00  0.00    -0.026 A 
ATOM     19  C   UNL     1       6.368   5.793  -9.704  0.00  0.00    -0.009 A 
ATOM     20  C   UNL     1       5.198   5.341  -9.102  0.00  0.00    -0.025 A 
ATOM     21  C   UNL     1       4.814   5.519  -7.665  0.00  0.00    +0.044 C 
ATOM     22  C   UNL     1       3.688   6.532  -7.834  0.00  0.00    +0.082 C 
ATOM     23  C   UNL     1       2.894   5.841  -8.938  0.00  0.00    +0.044 C 
ATOM     24  C   UNL     1       4.005   5.361  -9.820  0.00  0.00    -0.025 A 
ATOM     25  C   UNL     1       4.153   5.277 -11.199  0.00  0.00    -0.009 A 
BRANCH  18  26
ATOM     26  C   UNL     1       7.592   6.750 -11.675  0.00  0.00    +0.026 C 
ATOM     27  C   UNL     1       8.725   5.757 -11.879  0.00  0.00    +0.005 C 
ENDBRANCH  18  26
BRANCH  17  29
ATOM     28  C   UNL     1       5.338   5.392 -13.585  0.00  0.00    +0.005 C 
ATOM     29  C   UNL     1       5.513   5.476 -13.264  0.00  0.00    +0.026 C 
ENDBRANCH  17  29
ENDBRANCH  16  22
ENDBRANCH   1  16
TORSDOF 6
ENDMDL
MODEL 4
REMARK VINA RESULT:      -9.4      2.016      2.700
REMARK  Name = 
REMARK  6 active torsions:
REMARK  status: ('A' for Active; 'I' for Inactive)
REMARK    1  A    between atoms: C_2  and  C_3
REMARK    2  A    between atoms: C_8  and  C_9
REMARK    3  A    between atoms: C_12  and  N_13
REMARK    4  A    between atoms: N_13  and  C_14
REMARK    5  A    between atoms: C_14  and  C_15
REMARK    6  A    between atoms: C_15  and  C_17
REMARK                            x       y       z     vdW  Elec       q    Type
REMARK                         _______ _______ _______ _____ _____    ______ ____
ROOT
ATOM      1  C   UNL     1       3.350   5.331  -6.963  0.00  0.00    +0.126 C 
ENDROOT
BRANCH   1   2
ATOM      2  C   UNL     1       2.421   4.802  -5.661  0.00  0.00    +0.192 C 
ATOM      3  O   UNL     1       1.691   3.719  -6.500  0.00  0.00    -0.217 OA
BRANCH   2   4
ATOM      4  C   UNL     1       1.252   5.933  -5.981  0.00  0.00    +0.011 A 
ATOM      5  C   UNL     1       0.416   6.077  -4.878  0.00  0.00    +0.020 A 
ATOM      6  C   UNL     1      -0.969   5.999  -4.966  0.00  0.00    +0.123 A 
ATOM      7  N   UNL     1      -1.739   5.843  -3.859  0.00  0.00    -0.205 NA
ATOM      8  C   UNL     1      -1.132   5.659  -2.663  0.00  0.00    +0.279 A 
ATOM      9  C   UNL     1       0.109   6.254  -2.519  0.00  0.00    +0.063 A 
ATOM     10  O   UNL     1      -1.650   4.930  -1.764  0.00  0.00    -0.265 OA
ATOM     11  C   UNL     1      -1.564   5.731  -6.193  0.00  0.00    +0.213 A 
ATOM     12  O   UNL     1      -2.764   5.014  -6.258  0.00  0.00    -0.285 OA
ATOM     13  C   UNL     1      -0.735   5.795  -7.300  0.00  0.00    +0.043 A 
ATOM     14  C   UNL     1       0.947   6.195  -3.623  0.00  0.00    +0.006 A 
ATOM     15  C   UNL     1       0.642   5.657  -7.189  0.00  0.00    +0.002 A 
ENDBRANCH   2   4
ENDBRANCH   1   2
BRANCH   1  16
ATOM     16  N   UNL     1       3.082   4.414  -8.023  0.00  0.00    -0.216 NA
BRANCH  16  22
ATOM     17  C   UNL     1       7.580   5.617 -11.487  0.00  0.00    -0.026 A 
ATOM     18  C   UNL     1       6.508   5.678 -12.368  0.00  0.00    -0.026 A 
ATOM     19  C   UNL     1       5.314   6.129 -11.819  0.00  0.00    -0.009 A 
ATOM     20  C   UNL     1       5.125   6.197 -10.442  0.00  0.00    -0.025 A 
ATOM     21  C   UNL     1       3.824   6.041  -9.718  0.00  0.00    +0.044 C 
ATOM     22  C   UNL     1       4.067   4.684  -9.065  0.00  0.00    +0.082 C 
ATOM     23  C   UNL     1       5.447   4.938  -8.469  0.00  0.00    +0.044 C 
ATOM     24  C   UNL     1       6.100   5.687  -9.589  0.00  0.00    -0.025 A 
ATOM     25  C   UNL     1       7.387   5.679 -10.113  0.00  0.00    -0.009 A 
BRANCH  18  26
ATOM     26  C   UNL     1       6.689   5.472 -13.814  0.00  0.00    +0.026 C 
ATOM     27  C   UNL     1       5.967   6.510 -14.656  0.00  0.00    +0.005 C 
ENDBRANCH  18  26
BRANCH  17  29
ATOM     28  C   UNL     1       9.229   6.015 -12.125  0.00  0.00    +0.005 C 
ATOM     29  C   UNL     1       8.965   5.767 -12.024  0.00  0.00    +0.026 C 
ENDBRANCH  17  29
ENDBRANCH  16  22
ENDBRANCH   1  16
TORSDOF 6
ENDMDL
MODEL 5
REMARK VINA RESULT:      -9.3      4.100      9.993
REMARK  Name = 
REMARK  6 active torsions:
REMARK  status: ('A' for Active; 'I' for Inactive)
REMARK    1  A    between atoms: C_2  and  C_3
REMARK    2  A    between atoms: C_8  and  C_9
REMARK    3  A    between atoms: C_12  and  N_13
REMARK    4  A    between atoms: N_13  and  C_14
REMARK    5  A    between atoms: C_14  and  C_15
REMARK    6  A    between atoms: C_15  and  C_17
REMARK                            x       y       z     vdW  Elec       q    Type
REMARK                         _______ _______ _______ _____ _____    ______ ____
ROOT
ATOM      1  C   UNL     1       0.237   5.574  -9.324  0.00  0.00    +0.126 C 
ENDROOT
BRANCH   1   2
ATOM      2  C   UNL     1       1.146   6.709 -10.173  0.00  0.00    +0.192 C 
ATOM      3  O   UNL     1       0.025   6.967 -11.215  0.00  0.00    -0.217 OA
BRANCH   2   4
ATOM      4  C   UNL     1       1.833   5.523 -11.106  0.00  0.00    +0.011 A 
ATOM      5  C   UNL     1       3.191   5.775 -11.272  0.00  0.00    +0.020 A 
ATOM      6  C   UNL     1       3.807   5.798 -12.517  0.00  0.00    +0.123 A 
ATOM      7  N   UNL     1       5.044   6.332 -12.683  0.00  0.00    -0.205 NA
ATOM      8  C   UNL     1       5.638   6.943 -11.631  0.00  0.00    +0.279 A 
ATOM      9  C   UNL     1       5.296   6.458 -10.381  0.00  0.00    +0.063 A 
ATOM     10  O   UNL     1       6.404   7.941 -11.792  0.00  0.00    -0.265 OA
ATOM     11  C   UNL     1       3.047   5.596 -13.663  0.00  0.00    +0.213 A 
ATOM     12  O   UNL     1       3.393   6.225 -14.864  0.00  0.00    -0.285 OA
ATOM     13  C   UNL     1       1.752   5.149 -13.465  0.00  0.00    +0.043 A 
ATOM     14  C   UNL     1       3.962   6.125 -10.198  0.00  0.00    +0.006 A 
ATOM     15  C   UNL     1       1.093   5.336 -12.257  0.00  0.00    +0.002 A 
ENDBRANCH   2   4
ENDBRANCH   1   2
BRANCH   1  16
ATOM     16  N   UNL     1       1.124   5.021  -8.353  0.00  0.00    -0.216 NA
BRANCH  16  22
ATOM     17  C   UNL     1      -2.152   5.977  -3.659  0.00  0.00    -0.026 A 
ATOM     18  C   UNL     1      -0.876   5.907  -3.115  0.00  0.00    -0.026 A 
ATOM     19  C   UNL     1       0.145   6.377  -3.933  0.00  0.00    -0.009 A 
ATOM     20  C   UNL     1      -0.053   6.591  -5.294  0.00  0.00    -0.025 A 
ATOM     21  C   UNL     1       0.984   6.473  -6.368  0.00  0.00    +0.044 C 
ATOM     22  C   UNL     1       0.486   5.206  -7.053  0.00  0.00    +0.082 C 
ATOM     23  C   UNL     1      -0.987   5.568  -7.207  0.00  0.00    +0.044 C 
ATOM     24  C   UNL     1      -1.256   6.209  -5.882  0.00  0.00    -0.025 A 
ATOM     25  C   UNL     1      -2.345   6.185  -5.018  0.00  0.00    -0.009 A 
BRANCH  18  26
ATOM     26  C   UNL     1      -0.661   5.549  -1.704  0.00  0.00    +0.026 C 
ATOM     27  C   UNL     1       0.746   5.044  -1.428  0.00  0.00    +0.005 C 
ENDBRANCH  18  26
BRANCH  17  29
ATOM     28  C   UNL     1      -3.689   6.187  -2.722  0.00  0.00    +0.005 C 
ATOM     29  C   UNL     1      -3.322   6.111  -2.740  0.00  0.00    +0.026 C 
ENDBRANCH  17  29
ENDBRANCH  16  22
ENDBRANCH   1  16
TORSDOF 6
ENDMDL
MODEL 6
REMARK VINA RESULT:      -9.2      3.164     10.023
REMARK  Name = 
REMARK  6 active torsions:
REMARK  status: ('A' for Active; 'I' for Inactive)
REMARK    1  A    between atoms: C_2  and  C_3
REMARK    2  A    between atoms: C_8  and  C_9
REMARK    3  A    between atoms: C_12  and  N_13
REMARK    4  A    between atoms: N_13  and  C_14
REMARK    5  A    between atoms: C_14  and  C_15
REMARK    6  A    between atoms: C_15  and  C_17
REMARK                            x       y       z     vdW  Elec       q    Type
REMARK                         _______ _______ _______ _____ _____    ______ ____
ROOT
ATOM      1  C   UNL     1       2.812   5.830  -8.279  0.00  0.00    +0.126 C 
ENDROOT
BRANCH   1   2
ATOM      2  C   UNL     1       3.848   4.649  -8.887  0.00  0.00    +0.192 C 
ATOM      3  O   UNL     1       4.797   4.714  -7.661  0.00  0.00    -0.217 OA
BRANCH   2   4
ATOM      4  C   UNL     1       4.727   5.786  -9.713  0.00  0.00    +0.011 A 
ATOM      5  C   UNL     1       4.343   5.804 -11.050  0.00  0.00    +0.020 A 
ATOM      6  C   UNL     1       5.253   5.711 -12.097  0.00  0.00    +0.123 A 
ATOM      7  N   UNL     1       4.847   5.432 -13.362  0.00  0.00    -0.205 NA
ATOM      8  C   UNL     1       3.542   5.139 -13.580  0.00  0.00    +0.279 A 
ATOM      9  C   UNL     1       2.640   5.738 -12.719  0.00  0.00    +0.063 A 
ATOM     10  O   UNL     1       3.190   4.315 -14.476  0.00  0.00    -0.265 OA
ATOM     11  C   UNL     1       6.605   5.556 -11.819  0.00  0.00    +0.213 A 
ATOM     12  O   UNL     1       7.429   4.829 -12.685  0.00  0.00    -0.285 OA
ATOM     13  C   UNL     1       6.982   5.745 -10.501  0.00  0.00    +0.043 A 
ATOM     14  C   UNL     1       3.018   5.805 -11.386  0.00  0.00    +0.006 A 
ATOM     15  C   UNL     1       6.074   5.621  -9.458  0.00  0.00    +0.002 A 
ENDBRANCH   2   4
ENDBRANCH   1   2
BRANCH   1  16
ATOM     16  N   UNL     1       1.493   5.331  -8.491  0.00  0.00    -0.216 NA
BRANCH  16  22
ATOM     17  C   UNL     1      -1.981   5.715  -3.859  0.00  0.00    -0.026 A 
ATOM     18  C   UNL     1      -0.721   5.849  -3.291  0.00  0.00    -0.026 A 
ATOM     19  C   UNL     1       0.224   6.483  -4.087  0.00  0.00    -0.009 A 
ATOM     20  C   UNL     1       0.020   6.671  -5.451  0.00  0.00    -0.025 A 
ATOM     21  C   UNL     1       1.082   6.729  -6.506  0.00  0.00    +0.044 C 
ATOM     22  C   UNL     1       0.809   5.402  -7.204  0.00  0.00    +0.082 C 
ATOM     23  C   UNL     1      -0.700   5.521  -7.385  0.00  0.00    +0.044 C 
ATOM     24  C   UNL     1      -1.094   6.102  -6.063  0.00  0.00    -0.025 A 
ATOM     25  C   UNL     1      -2.180   5.896  -5.221  0.00  0.00    -0.009 A 
BRANCH  18  26
ATOM     26  C   UNL     1      -0.477   5.522  -1.877  0.00  0.00    +0.026 C 
ATOM     27  C   UNL     1       0.945   5.057  -1.613  0.00  0.00    +0.005 C 
ENDBRANCH  18  26
BRANCH  17  29
ATOM     28  C   UNL     1      -3.506   5.810  -2.883  0.00  0.00    +0.005 C 
ATOM     29  C   UNL     1      -3.174   5.652  -2.962  0.00  0.00    +0.026 C 
ENDBRANCH  17  29
ENDBRANCH  16  22
ENDBRANCH   1  16
TORSDOF 6
ENDMDL
MODEL 7
REMARK VINA RESULT:      -9.1      1.312      2.357
REMARK  Name = 
REMARK  6 active torsions:
REMARK  status: ('A' for Active; 'I' for Inactive)
REMARK    1  A    between atoms: C_2  and  C_3
REMARK    2  A    between atoms: C_8  and  C_9
REMARK    3  A    between atoms: C_12  and  N_13
REMARK    4  A    between atoms: N_13  and  C_14
REMARK    5  A    between atoms: C_14  and  C_15
REMARK    6  A    between atoms: C_15  and  C_17
REMARK                            x       y       z     vdW  Elec       q    Type
REMARK                         _______ _______ _______ _____ _____    ______ ____
ROOT
ATOM      1  C   UNL     1       2.891   6.258  -7.410  0.00  0.00    +0.126 C 
ENDROOT
BRANCH   1   2
ATOM      2  C   UNL     1       1.760   6.030  -6.182  0.00  0.00    +0.192 C 
ATOM      3  O   UNL     1       1.614   7.550  -5.906  0.00  0.00    -0.217 OA
BRANCH   2   4
ATOM      4  C   UNL     1       2.960   5.871  -5.049  0.00  0.00    +0.011 A 
ATOM      5  C   UNL     1       2.406   5.817  -3.775  0.00  0.00    +0.020 A 
ATOM      6  C   UNL     1       2.829   6.634  -2.733  0.00  0.00    +0.123 A 
ATOM      7  N   UNL     1       2.090   6.777  -1.603  0.00  0.00    -0.205 NA
ATOM      8  C   UNL     1       0.871   6.191  -1.542  0.00  0.00    +0.279 A 
ATOM      9  C   UNL     1       0.725   5.028  -2.277  0.00  0.00    +0.063 A 
ATOM     10  O   UNL     1      -0.086   6.721  -0.901  0.00  0.00    -0.265 OA
ATOM     11  C   UNL     1       3.824   7.577  -2.961  0.00  0.00    +0.213 A 
ATOM     12  O   UNL     1       3.829   8.786  -2.258  0.00  0.00    -0.285 OA
ATOM     13  C   UNL     1       4.496   7.475  -4.166  0.00  0.00    +0.043 A 
ATOM     14  C   UNL     1       1.326   5.015  -3.527  0.00  0.00    +0.006 A 
ATOM     15  C   UNL     1       3.940   6.822  -5.259  0.00  0.00    +0.002 A 
ENDBRANCH   2   4
ENDBRANCH   1   2
BRANCH   1  16
ATOM     16  N   UNL     1       3.142   4.959  -7.946  0.00  0.00    -0.216 NA
BRANCH  16  22
ATOM     17  C   UNL     1       7.577   5.718 -11.611  0.00  0.00    -0.026 A 
ATOM     18  C   UNL     1       6.478   5.907 -12.439  0.00  0.00    -0.026 A 
ATOM     19  C   UNL     1       5.367   6.476 -11.830  0.00  0.00    -0.009 A 
ATOM     20  C   UNL     1       5.251   6.545 -10.445  0.00  0.00    -0.025 A 
ATOM     21  C   UNL     1       3.976   6.520  -9.660  0.00  0.00    +0.044 C 
ATOM     22  C   UNL     1       4.101   5.136  -9.032  0.00  0.00    +0.082 C 
ATOM     23  C   UNL     1       5.527   5.231  -8.501  0.00  0.00    +0.044 C 
ATOM     24  C   UNL     1       6.204   5.921  -9.644  0.00  0.00    -0.025 A 
ATOM     25  C   UNL     1       7.457   5.782 -10.229  0.00  0.00    -0.009 A 
BRANCH  18  26
ATOM     26  C   UNL     1       6.568   5.703 -13.894  0.00  0.00    +0.026 C 
ATOM     27  C   UNL     1       6.541   7.004 -14.678  0.00  0.00    +0.005 C 
ENDBRANCH  18  26
BRANCH  17  29
ATOM     28  C   UNL     1       9.282   5.891 -12.203  0.00  0.00    +0.005 C 
ATOM     29  C   UNL     1       8.944   5.726 -12.213  0.00  0.00    +0.026 C 
ENDBRANCH  17  29
ENDBRANCH  16  22
ENDBRANCH   1  16
TORSDOF 6
ENDMDL
MODEL 8
REMARK VINA RESULT:      -9.0      2.046      2.967
REMARK  Name = 
REMARK  6 active torsions:
REMARK  status: ('A' for Active; 'I' for Inactive)
REMARK    1  A    between atoms: C_2  and  C_3
REMARK    2  A    between atoms: C_8  and  C_9
REMARK    3  A    between atoms: C_12  and  N_13
REMARK    4  A    between atoms: N_13  and  C_14
REMARK    5  A    between atoms: C_14  and  C_15
REMARK    6  A    between atoms: C_15  and  C_17
REMARK                            x       y       z     vdW  Elec       q    Type
REMARK                         _______ _______ _______ _____ _____    ______ ____
ROOT
ATOM      1  C   UNL     1       0.004   5.950  -7.801  0.00  0.00    +0.126 C 
ENDROOT
BRANCH   1   2
ATOM      2  C   UNL     1      -0.493   5.041  -6.473  0.00  0.00    +0.192 C 
ATOM      3  O   UNL     1      -1.981   5.038  -6.912  0.00  0.00    -0.217 OA
BRANCH   2   4
ATOM      4  C   UNL     1      -0.696   6.410  -5.560  0.00  0.00    +0.011 A 
ATOM      5  C   UNL     1      -0.112   6.238  -4.309  0.00  0.00    +0.020 A 
ATOM      6  C   UNL     1      -0.789   6.484  -3.121  0.00  0.00    +0.123 A 
ATOM      7  N   UNL     1      -0.314   6.032  -1.931  0.00  0.00    -0.205 NA
ATOM      8  C   UNL     1       0.785   5.242  -1.925  0.00  0.00    +0.279 A 
ATOM      9  C   UNL     1       1.688   5.458  -2.951  0.00  0.00    +0.063 A 
ATOM     10  O   UNL     1       0.933   4.321  -1.066  0.00  0.00    -0.265 OA
ATOM     11  C   UNL     1      -2.119   6.886  -3.159  0.00  0.00    +0.213 A 
ATOM     12  O   UNL     1      -3.000   6.520  -2.135  0.00  0.00    -0.285 OA
ATOM     13  C   UNL     1      -2.612   7.244  -4.401  0.00  0.00    +0.043 A 
ATOM     14  C   UNL     1       1.143   5.706  -4.203  0.00  0.00    +0.006 A 
ATOM     15  C   UNL     1      -2.021   6.800  -5.576  0.00  0.00    +0.002 A 
ENDBRANCH   2   4
ENDBRANCH   1   2
BRANCH   1  16
ATOM     16  N   UNL     1       0.355   4.999  -8.806  0.00  0.00    -0.216 NA
BRANCH  16  22
ATOM     17  C   UNL     1       6.053   5.790  -9.577  0.00  0.00    -0.026 A 
ATOM     18  C   UNL     1       5.509   6.602 -10.564  0.00  0.00    -0.026 A 
ATOM     19  C   UNL     1       4.289   7.186 -10.246  0.00  0.00    -0.009 A 
ATOM     20  C   UNL     1       3.525   6.739  -9.173  0.00  0.00    -0.025 A 
ATOM     21  C   UNL     1       2.032   6.785  -9.069  0.00  0.00    +0.044 C 
ATOM     22  C   UNL     1       1.730   5.296  -9.197  0.00  0.00    +0.082 C 
ATOM     23  C   UNL     1       2.725   4.752  -8.177  0.00  0.00    +0.044 C 
ATOM     24  C   UNL     1       3.921   5.602  -8.474  0.00  0.00    -0.025 A 
ATOM     25  C   UNL     1       5.285   5.340  -8.511  0.00  0.00    -0.009 A 
BRANCH  18  26
ATOM     26  C   UNL     1       6.274   6.966 -11.767  0.00  0.00    +0.026 C 
ATOM     27  C   UNL     1       6.043   6.013 -12.928  0.00  0.00    +0.005 C 
ENDBRANCH  18  26
BRANCH  17  29
ATOM     28  C   UNL     1       7.831   5.448  -9.657  0.00  0.00    +0.005 C 
ATOM     29  C   UNL     1       7.536   5.630  -9.511  0.00  0.00    +0.026 C 
ENDBRANCH  17  29
ENDBRANCH  16  22
ENDBRANCH   1  16
TORSDOF 6
ENDMDL
MODEL 9
REMARK VINA RESULT:      -8.9      3.160      9.773
REMARK  Name = 
REMARK  6 active torsions:
REMARK  status: ('A' for Active; 'I' for Inactive)
REMARK    1  A    between atoms: C_2  and  C_3
REMARK    2  A    between atoms: C_8  and  C_9
REMARK    3  A    between atoms: C_12  and  N_13
REMARK    4  A    between atoms: N_13  and  C_14
REMARK    5  A    between atoms: C_14  and  C_15
REMARK    6  A    between atoms: C_15  and  C_17
REMARK                            x       y       z     vdW  Elec       q    Type
REMARK                         _______ _______ _______ _____ _____    ______ ____
ROOT
ATOM      1  C   UNL     1       4.233   6.126  -7.909  0.00  0.00    +0.126 C 
ENDROOT
BRANCH   1   2
ATOM      2  C   UNL     1       4.612   4.893  -8.993  0.00  0.00    +0.192 C 
ATOM      3  O   UNL     1       5.919   4.512  -8.248  0.00  0.00    -0.217 OA
BRANCH   2   4
ATOM      4  C   UNL     1       5.409   5.955  -9.986  0.00  0.00    +0.011 A 
ATOM      5  C   UNL     1       4.836   5.941 -11.253  0.00  0.00    +0.020 A 
ATOM      6  C   UNL     1       5.578   5.764 -12.415  0.00  0.00    +0.123 A 
ATOM      7  N   UNL     1       4.981   5.457 -13.595  0.00  0.00    -0.205 NA
ATOM      8  C   UNL     1       3.648   5.220 -13.610  0.00  0.00    +0.279 A 
ATOM      9  C   UNL     1       2.906   5.894 -12.656  0.00  0.00    +0.063 A 
ATOM     10  O   UNL     1       3.134   4.380 -14.408  0.00  0.00    -0.265 OA
ATOM     11  C   UNL     1       6.949   5.556 -12.328  0.00  0.00    +0.213 A 
ATOM     12  O   UNL     1       7.607   4.758 -13.270  0.00  0.00    -0.285 OA
ATOM     13  C   UNL     1       7.522   5.776 -11.088  0.00  0.00    +0.043 A 
ATOM     14  C   UNL     1       3.476   5.993 -11.394  0.00  0.00    +0.006 A 
ATOM     15  C   UNL     1       6.771   5.736  -9.920  0.00  0.00    +0.002 A 
ENDBRANCH   2   4
ENDBRANCH   1   2
BRANCH   1  16
ATOM     16  N   UNL     1       4.280   5.527  -6.615  0.00  0.00    -0.216 NA
BRANCH  16  22
ATOM     17  C   UNL     1      -0.460   6.297  -3.356  0.00  0.00    -0.026 A 
ATOM     18  C   UNL     1      -0.790   6.982  -4.519  0.00  0.00    -0.026 A 
ATOM     19  C   UNL     1      -0.261   6.454  -5.689  0.00  0.00    -0.009 A 
ATOM     20  C   UNL     1       0.772   5.521  -5.666  0.00  0.00    -0.025 A 
ATOM     21  C   UNL     1       1.826   5.340  -6.715  0.00  0.00    +0.044 C 
ATOM     22  C   UNL     1       3.030   5.877  -5.949  0.00  0.00    +0.082 C 
ATOM     23  C   UNL     1       2.861   5.105  -4.645  0.00  0.00    +0.044 C 
ATOM     24  C   UNL     1       1.379   5.199  -4.456  0.00  0.00    -0.025 A 
ATOM     25  C   UNL     1       0.575   5.371  -3.336  0.00  0.00    -0.009 A 
BRANCH  18  26
ATOM     26  C   UNL     1      -1.789   8.063  -4.516  0.00  0.00    +0.026 C 
ATOM     27  C   UNL     1      -3.037   7.720  -5.312  0.00  0.00    +0.005 C 
ENDBRANCH  18  26
BRANCH  17  29
ATOM     28  C   UNL     1      -1.424   6.346  -1.822  0.00  0.00    +0.005 C 
ATOM     29  C   UNL     1      -1.401   6.347  -2.197  0.00  0.00    +0.026 C 
ENDBRANCH  17  29
ENDBRANCH  16  22
ENDBRANCH   1  16
TORSDOF 6
ENDMDL
