MODEL 1
REMARK VINA RESULT:      -9.2      0.000      0.000
REMARK  Name = 
REMARK  5 active torsions:
REMARK  status: ('A' for Active; 'I' for Inactive)
REMARK    1  A    between atoms: C_2  and  O_3
REMARK    2  A    between atoms: O_3  and  C_4
REMARK    3  A    between atoms: C_13  and  C_14
REMARK    4  A    between atoms: N_16  and  CA_17
REMARK    5  A    between atoms: CA_26  and  C_27
REMARK                            x       y       z     vdW  Elec       q    Type
REMARK                         _______ _______ _______ _____ _____    ______ ____
ROOT
ATOM      1  C   UNL     1       4.061   4.894  -9.292  0.00  0.00    +0.268 C 
ATOM      2  N   UNL     1       3.929   5.657  -8.107  0.00  0.00    -0.191 NA
ATOM      3  O   UNL     1       3.607   3.717  -9.146  0.00  0.00    -0.268 OA
ENDROOT
BRANCH   1   5
ATOM      4  C   UNL     1       5.485   5.488 -11.239  0.00  0.00    +0.143 A 
ATOM      5  C   UNL     1       4.256   5.452 -10.638  0.00  0.00    +0.089 A 
ATOM      6  C   UNL     1       3.164   5.792 -11.434  0.00  0.00    +0.007 A 
ATOM      7  C   UNL     1       3.191   5.769 -12.800  0.00  0.00    +0.000 A 
ATOM      8  C   UNL     1       2.012   5.912 -13.472  0.00  0.00    +0.000 A 
ATOM      9  C   UNL     1       0.912   6.444 -12.810  0.00  0.00    +0.000 A 
ATOM     10  C   UNL     1       0.847   6.395 -11.424  0.00  0.00    +0.000 A 
ATOM     11  C   UNL     1       4.387   5.391 -13.383  0.00  0.00    +0.003 A 
ATOM     12  C   UNL     1       1.994   6.069 -10.738  0.00  0.00    +0.000 A 
ATOM     13  C   UNL     1       5.549   5.394 -12.619  0.00  0.00    +0.037 A 
BRANCH   4  14
ATOM     14  O   UNL     1       6.606   5.624 -10.424  0.00  0.00    -0.475 OA
BRANCH  14  16
ATOM     15  C   UNL     1       7.655   6.926 -10.288  0.00  0.00    +0.051 C 
ATOM     16  C   UNL     1       7.279   6.868 -10.602  0.00  0.00    +0.206 C 
ENDBRANCH  14  16
ENDBRANCH   4  14
ENDBRANCH   1   5
BRANCH   2  17
ATOM     17  CA  UNL     1       2.451   5.768  -7.528  0.00  0.00    +0.200 C 
ATOM     18  C   UNL     1       2.810   5.349  -5.938  0.00  0.00    +0.153 C 
ATOM     19  S   UNL     1       4.532   6.158  -5.712  0.00  0.00    -0.118 S 
ATOM     20  C   UNL     1       4.011   6.429  -4.076  0.00  0.00    +0.068 C 
ATOM     21  CA  UNL     1       2.448   6.969  -4.161  0.00  0.00    +0.189 C 
ATOM     22  C   UNL     1       4.788   7.596  -3.480  0.00  0.00    +0.013 C 
ATOM     23  C   UNL     1       4.081   5.306  -3.127  0.00  0.00    +0.013 C 
ATOM     24  N   UNL     1       2.250   6.734  -5.707  0.00  0.00    -0.259 N 
ATOM     25  C   UNL     1       2.644   7.277  -6.980  0.00  0.00    +0.249 C 
ATOM     26  O   UNL     1       2.027   8.169  -7.650  0.00  0.00    -0.273 OA
BRANCH  21  27
ATOM     27  C   UNL     1       1.751   5.542  -3.761  0.00  0.00    +0.383 C 
ATOM     28  OXT UNL     1       0.565   5.313  -4.483  0.00  0.00    -0.244 OA
ATOM     29  O   UNL     1       1.455   5.716  -2.531  0.00  0.00    -0.244 OA
ENDBRANCH  21  27
ENDBRANCH   2  17
TORSDOF 5
ENDMDL
MODEL 2
REMARK VINA RESULT:      -8.9      2.527      4.645
REMARK  Name = 
REMARK  5 active torsions:
REMARK  status: ('A' for Active; 'I' for Inactive)
REMARK    1  A    between atoms: C_2  and  O_3
REMARK    2  A    between atoms: O_3  and  C_4
REMARK    3  A    between atoms: C_13  and  C_14
REMARK    4  A    between atoms: N_16  and  CA_17
REMARK    5  A    between atoms: CA_26  and  C_27
REMARK                            x       y       z     vdW  Elec       q    Type
REMARK                         _______ _______ _______ _____ _____    ______ ____
ROOT
ATOM      1  C   UNL     1       1.759   6.984  -8.414  0.00  0.00    +0.268 C 
ATOM      2  N   UNL     1       0.977   6.298  -7.453  0.00  0.00    -0.191 NA
ATOM      3  O   UNL     1       2.210   8.080  -7.956  0.00  0.00    -0.268 OA
ENDROOT
BRANCH   1   5
ATOM      4  C   UNL     1       1.719   6.306 -10.803  0.00  0.00    +0.143 A 
ATOM      5  C   UNL     1       2.370   6.369  -9.600  0.00  0.00    +0.089 A 
ATOM      6  C   UNL     1       3.713   5.997  -9.599  0.00  0.00    +0.007 A 
ATOM      7  C   UNL     1       4.486   5.962 -10.726  0.00  0.00    +0.000 A 
ATOM      8  C   UNL     1       5.832   5.791 -10.580  0.00  0.00    +0.000 A 
ATOM      9  C   UNL     1       6.328   5.290  -9.383  0.00  0.00    +0.000 A 
ATOM     10  C   UNL     1       5.576   5.398  -8.221  0.00  0.00    +0.000 A 
ATOM     11  C   UNL     1       3.861   6.313 -11.909  0.00  0.00    +0.003 A 
ATOM     12  C   UNL     1       4.253   5.751  -8.343  0.00  0.00    +0.000 A 
ATOM     13  C   UNL     1       2.472   6.341 -11.964  0.00  0.00    +0.037 A 
BRANCH   4  14
ATOM     14  O   UNL     1       0.331   6.204 -10.789  0.00  0.00    -0.475 OA
BRANCH  14  16
ATOM     15  C   UNL     1      -0.773   7.300 -11.417  0.00  0.00    +0.051 C 
ATOM     16  C   UNL     1      -0.312   7.211 -11.567  0.00  0.00    +0.206 C 
ENDBRANCH  14  16
ENDBRANCH   4  14
ENDBRANCH   1   5
BRANCH   2  17
ATOM     17  CA  UNL     1       1.707   5.992  -6.072  0.00  0.00    +0.200 C 
ATOM     18  C   UNL     1       0.545   6.671  -5.061  0.00  0.00    +0.153 C 
ATOM     19  S   UNL     1      -1.072   6.228  -5.988  0.00  0.00    -0.118 S 
ATOM     20  C   UNL     1      -1.753   6.079  -4.396  0.00  0.00    +0.068 C 
ATOM     21  CA  UNL     1      -0.646   5.253  -3.484  0.00  0.00    +0.189 C 
ATOM     22  C   UNL     1      -2.969   5.162  -4.446  0.00  0.00    +0.013 C 
ATOM     23  C   UNL     1      -2.143   7.308  -3.686  0.00  0.00    +0.013 C 
ATOM     24  N   UNL     1       0.514   5.247  -4.552  0.00  0.00    -0.259 N 
ATOM     25  C   UNL     1       0.884   4.627  -5.797  0.00  0.00    +0.249 C 
ATOM     26  O   UNL     1       1.563   3.558  -5.941  0.00  0.00    -0.273 OA
BRANCH  21  27
ATOM     27  C   UNL     1      -0.050   6.567  -2.708  0.00  0.00    +0.383 C 
ATOM     28  OXT UNL     1       1.334   6.459  -2.476  0.00  0.00    -0.244 OA
ATOM     29  O   UNL     1      -0.658   6.523  -1.586  0.00  0.00    -0.244 OA
ENDBRANCH  21  27
ENDBRANCH   2  17
TORSDOF 5
ENDMDL
MODEL 3
REMARK VINA RESULT:      -8.9      2.517      8.232
REMARK  Name = 
REMARK  5 active torsions:
REMARK  status: ('A' for Active; 'I' for Inactive)
REMARK    1  A    between atoms: C_2  and  O_3
REMARK    2  A    between atoms: O_3  and  C_4
REMARK    3  A    between atoms: C_13  and  C_14
REMARK    4  A    between atoms: N_16  and  CA_17
REMARK    5  A    between atoms: CA_26  and  C_27
REMARK                            x       y       z     vdW  Elec       q    Type
REMARK                         _______ _______ _______ _____ _____    ______ ____
ROOT
ATOM      1  C   UNL     1       0.929   4.739  -5.833  0.00  0.00    +0.268 C 
ATOM      2  N   UNL     1       0.881   5.504  -7.023  0.00  0.00    -0.191 NA
ATOM      3  O   UNL     1       1.506   3.622  -6.014  0.00  0.00    -0.268 OA
ENDROOT
BRANCH   1   5
ATOM      4  C   UNL     1      -0.458   5.539  -3.933  0.00  0.00    +0.143 A 
ATOM      5  C   UNL     1       0.773   5.281  -4.475  0.00  0.00    +0.089 A 
ATOM      6  C   UNL     1       1.864   5.373  -3.614  0.00  0.00    +0.007 A 
ATOM      7  C   UNL     1       1.757   5.311  -2.253  0.00  0.00    +0.000 A 
ATOM      8  C   UNL     1       2.903   5.197  -1.520  0.00  0.00    +0.000 A 
ATOM      9  C   UNL     1       4.120   5.523  -2.105  0.00  0.00    +0.000 A 
ATOM     10  C   UNL     1       4.251   5.508  -3.487  0.00  0.00    +0.000 A 
ATOM     11  C   UNL     1       0.480   5.158  -1.745  0.00  0.00    +0.003 A 
ATOM     12  C   UNL     1       3.102   5.437  -4.240  0.00  0.00    +0.000 A 
ATOM     13  C   UNL     1      -0.615   5.414  -2.563  0.00  0.00    +0.037 A 
BRANCH   4  14
ATOM     14  O   UNL     1      -1.484   5.919  -4.794  0.00  0.00    -0.475 OA
BRANCH  14  16
ATOM     15  C   UNL     1      -2.244   7.408  -4.922  0.00  0.00    +0.051 C 
ATOM     16  C   UNL     1      -1.835   7.295  -4.672  0.00  0.00    +0.206 C 
ENDBRANCH  14  16
ENDBRANCH   4  14
ENDBRANCH   1   5
BRANCH   2  17
ATOM     17  CA  UNL     1       2.287   5.782  -7.713  0.00  0.00    +0.200 C 
ATOM     18  C   UNL     1       1.887   5.229  -9.251  0.00  0.00    +0.153 C 
ATOM     19  S   UNL     1       0.057   5.781  -9.389  0.00  0.00    -0.118 S 
ATOM     20  C   UNL     1       0.427   6.028 -11.069  0.00  0.00    +0.068 C 
ATOM     21  CA  UNL     1       1.900   6.781 -11.124  0.00  0.00    +0.189 C 
ATOM     22  C   UNL     1      -0.545   7.042 -11.662  0.00  0.00    +0.013 C 
ATOM     23  C   UNL     1       0.452   4.854 -11.957  0.00  0.00    +0.013 C 
ATOM     24  N   UNL     1       2.231   6.662  -9.587  0.00  0.00    -0.259 N 
ATOM     25  C   UNL     1       1.849   7.218  -8.315  0.00  0.00    +0.249 C 
ATOM     26  O   UNL     1       2.376   8.222  -7.735  0.00  0.00    -0.273 OA
BRANCH  21  27
ATOM     27  C   UNL     1       2.762   5.441 -11.506  0.00  0.00    +0.383 C 
ATOM     28  OXT UNL     1       4.014   5.419 -10.863  0.00  0.00    -0.244 OA
ATOM     29  O   UNL     1       2.949   5.585 -12.762  0.00  0.00    -0.244 OA
ENDBRANCH  21  27
ENDBRANCH   2  17
TORSDOF 5
ENDMDL
MODEL 4
REMARK VINA RESULT:      -8.9      2.179      7.051
REMARK  Name = 
REMARK  5 active torsions:
REMARK  status: ('A' for Active; 'I' for Inactive)
REMARK    1  A    between atoms: C_2  and  O_3
REMARK    2  A    between atoms: O_3  and  C_4
REMARK    3  A    between atoms: C_13  and  C_14
REMARK    4  A    between atoms: N_16  and  CA_17
REMARK    5  A    between atoms: CA_26  and  C_27
REMARK                            x       y       z     vdW  Elec       q    Type
REMARK                         _______ _______ _______ _____ _____    ______ ____
ROOT
ATOM      1  C   UNL     1       2.676   7.159  -7.172  0.00  0.00    +0.268 C 
ATOM      2  N   UNL     1       3.604   6.499  -8.013  0.00  0.00    -0.191 NA
ATOM      3  O   UNL     1       2.098   8.118  -7.772  0.00  0.00    -0.268 OA
ENDROOT
BRANCH   1   5
ATOM      4  C   UNL     1       2.747   6.621  -4.748  0.00  0.00    +0.143 A 
ATOM      5  C   UNL     1       2.091   6.590  -5.949  0.00  0.00    +0.089 A 
ATOM      6  C   UNL     1       0.764   6.168  -5.923  0.00  0.00    +0.007 A 
ATOM      7  C   UNL     1      -0.004   6.167  -4.793  0.00  0.00    +0.000 A 
ATOM      8  C   UNL     1      -1.344   5.938  -4.923  0.00  0.00    +0.000 A 
ATOM      9  C   UNL     1      -1.823   5.349  -6.087  0.00  0.00    +0.000 A 
ATOM     10  C   UNL     1      -1.078   5.419  -7.256  0.00  0.00    +0.000 A 
ATOM     11  C   UNL     1       0.609   6.610  -3.635  0.00  0.00    +0.003 A 
ATOM     12  C   UNL     1       0.231   5.829  -7.160  0.00  0.00    +0.000 A 
ATOM     13  C   UNL     1       1.996   6.694  -3.587  0.00  0.00    +0.037 A 
BRANCH   4  14
ATOM     14  O   UNL     1       4.138   6.572  -4.763  0.00  0.00    -0.475 OA
BRANCH  14  16
ATOM     15  C   UNL     1       5.234   7.737  -4.256  0.00  0.00    +0.051 C 
ATOM     16  C   UNL     1       4.745   7.732  -4.197  0.00  0.00    +0.206 C 
ENDBRANCH  14  16
ENDBRANCH   4  14
ENDBRANCH   1   5
BRANCH   2  17
ATOM     17  CA  UNL     1       3.010   5.939  -9.379  0.00  0.00    +0.200 C 
ATOM     18  C   UNL     1       4.157   6.618 -10.407  0.00  0.00    +0.153 C 
ATOM     19  S   UNL     1       5.745   6.488  -9.342  0.00  0.00    -0.118 S 
ATOM     20  C   UNL     1       6.547   6.222 -10.861  0.00  0.00    +0.068 C 
ATOM     21  CA  UNL     1       5.602   5.165 -11.716  0.00  0.00    +0.189 C 
ATOM     22  C   UNL     1       7.849   5.468 -10.625  0.00  0.00    +0.013 C 
ATOM     23  C   UNL     1       6.848   7.390 -11.705  0.00  0.00    +0.013 C 
ATOM     24  N   UNL     1       4.379   5.156 -10.721  0.00  0.00    -0.259 N 
ATOM     25  C   UNL     1       3.994   4.657  -9.427  0.00  0.00    +0.249 C 
ATOM     26  O   UNL     1       3.428   3.543  -9.180  0.00  0.00    -0.273 OA
BRANCH  21  27
ATOM     27  C   UNL     1       4.921   6.293 -12.689  0.00  0.00    +0.383 C 
ATOM     28  OXT UNL     1       3.568   6.010 -12.956  0.00  0.00    -0.244 OA
ATOM     29  O   UNL     1       5.588   6.161 -13.770  0.00  0.00    -0.244 OA
ENDBRANCH  21  27
ENDBRANCH   2  17
TORSDOF 5
ENDMDL
MODEL 5
REMARK VINA RESULT:      -8.5      1.987      7.671
REMARK  Name = 
REMARK  5 active torsions:
REMARK  status: ('A' for Active; 'I' for Inactive)
REMARK    1  A    between atoms: C_2  and  O_3
REMARK    2  A    between atoms: O_3  and  C_4
REMARK    3  A    between atoms: C_13  and  C_14
REMARK    4  A    between atoms: N_16  and  CA_17
REMARK    5  A    between atoms: CA_26  and  C_27
REMARK                            x       y       z     vdW  Elec       q    Type
REMARK                         _______ _______ _______ _____ _____    ______ ____
ROOT
ATOM      1  C   UNL     1       2.789   7.250  -7.144  0.00  0.00    +0.268 C 
ATOM      2  N   UNL     1       3.631   6.525  -8.022  0.00  0.00    -0.191 NA
ATOM      3  O   UNL     1       2.156   8.168  -7.752  0.00  0.00    -0.268 OA
ENDROOT
BRANCH   1   5
ATOM      4  C   UNL     1       1.120   6.147  -5.672  0.00  0.00    +0.143 A 
ATOM      5  C   UNL     1       2.327   6.773  -5.833  0.00  0.00    +0.089 A 
ATOM      6  C   UNL     1       3.183   6.765  -4.734  0.00  0.00    +0.007 A 
ATOM      7  C   UNL     1       3.072   5.880  -3.699  0.00  0.00    +0.000 A 
ATOM      8  C   UNL     1       4.086   5.825  -2.786  0.00  0.00    +0.000 A 
ATOM      9  C   UNL     1       4.983   6.882  -2.701  0.00  0.00    +0.000 A 
ATOM     10  C   UNL     1       5.155   7.735  -3.783  0.00  0.00    +0.000 A 
ATOM     11  C   UNL     1       2.038   4.966  -3.782  0.00  0.00    +0.003 A 
ATOM     12  C   UNL     1       4.235   7.670  -4.803  0.00  0.00    +0.000 A 
ATOM     13  C   UNL     1       0.998   5.193  -4.677  0.00  0.00    +0.037 A 
BRANCH   4  14
ATOM     14  O   UNL     1       0.077   6.513  -6.519  0.00  0.00    -0.475 OA
BRANCH  14  16
ATOM     15  C   UNL     1      -0.599   5.441  -7.618  0.00  0.00    +0.051 C 
ATOM     16  C   UNL     1      -0.567   5.396  -7.128  0.00  0.00    +0.206 C 
ENDBRANCH  14  16
ENDBRANCH   4  14
ENDBRANCH   1   5
BRANCH   2  17
ATOM     17  CA  UNL     1       2.906   5.874  -9.281  0.00  0.00    +0.200 C 
ATOM     18  C   UNL     1       3.896   6.540 -10.468  0.00  0.00    +0.153 C 
ATOM     19  S   UNL     1       5.602   6.523  -9.594  0.00  0.00    -0.118 S 
ATOM     20  C   UNL     1       6.232   6.207 -11.182  0.00  0.00    +0.068 C 
ATOM     21  CA  UNL     1       5.239   5.073 -11.868  0.00  0.00    +0.189 C 
ATOM     22  C   UNL     1       7.583   5.514 -11.066  0.00  0.00    +0.013 C 
ATOM     23  C   UNL     1       6.383   7.340 -12.110  0.00  0.00    +0.013 C 
ATOM     24  N   UNL     1       4.141   5.073 -10.736  0.00  0.00    -0.259 N 
ATOM     25  C   UNL     1       3.931   4.627  -9.384  0.00  0.00    +0.249 C 
ATOM     26  O   UNL     1       3.444   3.508  -9.019  0.00  0.00    -0.273 OA
BRANCH  21  27
ATOM     27  C   UNL     1       4.403   6.124 -12.806  0.00  0.00    +0.383 C 
ATOM     28  OXT UNL     1       3.041   5.781 -12.896  0.00  0.00    -0.244 OA
ATOM     29  O   UNL     1       4.943   5.959 -13.952  0.00  0.00    -0.244 OA
ENDBRANCH  21  27
ENDBRANCH   2  17
TORSDOF 5
ENDMDL
MODEL 6
REMARK VINA RESULT:      -8.4      1.558      3.420
REMARK  Name = 
REMARK  5 active torsions:
REMARK  status: ('A' for Active; 'I' for Inactive)
REMARK    1  A    between atoms: C_2  and  O_3
REMARK    2  A    between atoms: O_3  and  C_4
REMARK    3  A    between atoms: C_13  and  C_14
REMARK    4  A    between atoms: N_16  and  CA_17
REMARK    5  A    between atoms: CA_26  and  C_27
REMARK                            x       y       z     vdW  Elec       q    Type
REMARK                         _______ _______ _______ _____ _____    ______ ____
ROOT
ATOM      1  C   UNL     1       3.557   4.452  -8.448  0.00  0.00    +0.268 C 
ATOM      2  N   UNL     1       3.615   5.074  -7.177  0.00  0.00    -0.191 NA
ATOM      3  O   UNL     1       2.814   3.422  -8.433  0.00  0.00    -0.268 OA
ENDROOT
BRANCH   1   5
ATOM      4  C   UNL     1       2.950   5.411 -10.657  0.00  0.00    +0.143 A 
ATOM      5  C   UNL     1       3.899   5.102  -9.721  0.00  0.00    +0.089 A 
ATOM      6  C   UNL     1       5.180   5.604  -9.944  0.00  0.00    +0.007 A 
ATOM      7  C   UNL     1       5.442   6.657 -10.774  0.00  0.00    +0.000 A 
ATOM      8  C   UNL     1       6.695   7.199 -10.754  0.00  0.00    +0.000 A 
ATOM      9  C   UNL     1       7.743   6.467 -10.211  0.00  0.00    +0.000 A 
ATOM     10  C   UNL     1       7.481   5.448  -9.305  0.00  0.00    +0.000 A 
ATOM     11  C   UNL     1       4.352   7.221 -11.413  0.00  0.00    +0.003 A 
ATOM     12  C   UNL     1       6.182   5.016  -9.183  0.00  0.00    +0.000 A 
ATOM     13  C   UNL     1       3.154   6.517 -11.465  0.00  0.00    +0.037 A 
BRANCH   4  14
ATOM     14  O   UNL     1       1.830   4.589 -10.748  0.00  0.00    -0.475 OA
BRANCH  14  16
ATOM     15  C   UNL     1       0.231   4.968 -10.411  0.00  0.00    +0.051 C 
ATOM     16  C   UNL     1       0.609   5.276 -10.484  0.00  0.00    +0.206 C 
ENDBRANCH  14  16
ENDBRANCH   4  14
ENDBRANCH   1   5
BRANCH   2  17
ATOM     17  CA  UNL     1       2.210   5.488  -6.555  0.00  0.00    +0.200 C 
ATOM     18  C   UNL     1       2.608   5.236  -4.939  0.00  0.00    +0.153 C 
ATOM     19  S   UNL     1       4.441   5.793  -4.907  0.00  0.00    -0.118 S 
ATOM     20  C   UNL     1       4.073   6.358  -3.305  0.00  0.00    +0.068 C 
ATOM     21  CA  UNL     1       2.604   7.117  -3.397  0.00  0.00    +0.189 C 
ATOM     22  C   UNL     1       5.051   7.460  -2.916  0.00  0.00    +0.013 C 
ATOM     23  C   UNL     1       4.040   5.376  -2.209  0.00  0.00    +0.013 C 
ATOM     24  N   UNL     1       2.273   6.709  -4.883  0.00  0.00    -0.259 N 
ATOM     25  C   UNL     1       2.658   7.009  -6.237  0.00  0.00    +0.249 C 
ATOM     26  O   UNL     1       2.137   7.887  -6.999  0.00  0.00    -0.273 OA
BRANCH  21  27
ATOM     27  C   UNL     1       1.734   5.880  -2.766  0.00  0.00    +0.383 C 
ATOM     28  OXT UNL     1       0.485   5.739  -3.399  0.00  0.00    -0.244 OA
ATOM     29  O   UNL     1       1.542   6.265  -1.564  0.00  0.00    -0.244 OA
ENDBRANCH  21  27
ENDBRANCH   2  17
TORSDOF 5
ENDMDL
MODEL 7
REMARK VINA RESULT:      -8.2      2.424      4.750
REMARK  Name = 
REMARK  5 active torsions:
REMARK  status: ('A' for Active; 'I' for Inactive)
REMARK    1  A    between atoms: C_2  and  O_3
REMARK    2  A    between atoms: O_3  and  C_4
REMARK    3  A    between atoms: C_13  and  C_14
REMARK    4  A    between atoms: N_16  and  CA_17
REMARK    5  A    between atoms: CA_26  and  C_27
REMARK                            x       y       z     vdW  Elec       q    Type
REMARK                         _______ _______ _______ _____ _____    ______ ____
ROOT
ATOM      1  C   UNL     1       1.675   7.221  -7.186  0.00  0.00    +0.268 C 
ATOM      2  N   UNL     1       1.879   6.890  -5.824  0.00  0.00    -0.191 NA
ATOM      3  O   UNL     1       2.103   8.386  -7.455  0.00  0.00    -0.268 OA
ENDROOT
BRANCH   1   5
ATOM      4  C   UNL     1       0.313   5.472  -8.307  0.00  0.00    +0.143 A 
ATOM      5  C   UNL     1       1.438   6.250  -8.264  0.00  0.00    +0.089 A 
ATOM      6  C   UNL     1       2.259   6.220  -9.389  0.00  0.00    +0.007 A 
ATOM      7  C   UNL     1       1.835   5.804 -10.620  0.00  0.00    +0.000 A 
ATOM      8  C   UNL     1       2.654   6.016 -11.691  0.00  0.00    +0.000 A 
ATOM      9  C   UNL     1       4.001   6.280 -11.475  0.00  0.00    +0.000 A 
ATOM     10  C   UNL     1       4.422   6.780 -10.250  0.00  0.00    +0.000 A 
ATOM     11  C   UNL     1       0.517   5.392 -10.707  0.00  0.00    +0.003 A 
ATOM     12  C   UNL     1       3.534   6.739  -9.201  0.00  0.00    +0.000 A 
ATOM     13  C   UNL     1      -0.182   5.094  -9.543  0.00  0.00    +0.037 A 
BRANCH   4  14
ATOM     14  O   UNL     1      -0.269   5.098  -7.098  0.00  0.00    -0.475 OA
BRANCH  14  16
ATOM     15  C   UNL     1      -1.788   5.484  -6.501  0.00  0.00    +0.051 C 
ATOM     16  C   UNL     1      -1.604   5.575  -6.949  0.00  0.00    +0.206 C 
ENDBRANCH  14  16
ENDBRANCH   4  14
ENDBRANCH   1   5
BRANCH   2  17
ATOM     17  CA  UNL     1       3.383   6.993  -5.315  0.00  0.00    +0.200 C 
ATOM     18  C   UNL     1       3.042   7.250  -3.687  0.00  0.00    +0.153 C 
ATOM     19  S   UNL     1       1.489   6.153  -3.446  0.00  0.00    -0.118 S 
ATOM     20  C   UNL     1       2.131   5.875  -1.855  0.00  0.00    +0.068 C 
ATOM     21  CA  UNL     1       3.755   5.609  -2.040  0.00  0.00    +0.189 C 
ATOM     22  C   UNL     1       1.587   4.562  -1.307  0.00  0.00    +0.013 C 
ATOM     23  C   UNL     1       1.927   6.912  -0.830  0.00  0.00    +0.013 C 
ATOM     24  N   UNL     1       3.832   5.967  -3.573  0.00  0.00    -0.259 N 
ATOM     25  C   UNL     1       3.468   5.442  -4.863  0.00  0.00    +0.249 C 
ATOM     26  O   UNL     1       4.187   4.708  -5.616  0.00  0.00    -0.273 OA
BRANCH  21  27
ATOM     27  C   UNL     1       4.228   7.106  -1.572  0.00  0.00    +0.383 C 
ATOM     28  OXT UNL     1       5.261   7.610  -2.385  0.00  0.00    -0.244 OA
ATOM     29  O   UNL     1       4.693   6.894  -0.402  0.00  0.00    -0.244 OA
ENDBRANCH  21  27
ENDBRANCH   2  17
TORSDOF 5
ENDMDL
MODEL 8
REMARK VINA RESULT:      -8.1      2.075      4.251
REMARK  Name = 
REMARK  5 active torsions:
REMARK  status: ('A' for Active; 'I' for Inactive)
REMARK    1  A    between atoms: C_2  and  O_3
REMARK    2  A    between atoms: O_3  and  C_4
REMARK    3  A    between atoms: C_13  and  C_14
REMARK    4  A    between atoms: N_16  and  CA_17
REMARK    5  A    between atoms: CA_26  and  C_27
REMARK                            x       y       z     vdW  Elec       q    Type
REMARK                         _______ _______ _______ _____ _____    ______ ____
ROOT
ATOM      1  C   UNL     1       3.808   6.570 -10.554  0.00  0.00    +0.268 C 
ATOM      2  N   UNL     1       2.877   6.002  -9.651  0.00  0.00    -0.191 NA
ATOM      3  O   UNL     1       4.578   7.398  -9.975  0.00  0.00    -0.268 OA
ENDROOT
BRANCH   1   5
ATOM      4  C   UNL     1       3.265   5.814 -12.857  0.00  0.00    +0.143 A 
ATOM      5  C   UNL     1       4.180   5.995 -11.855  0.00  0.00    +0.089 A 
ATOM      6  C   UNL     1       5.517   5.791 -12.188  0.00  0.00    +0.007 A 
ATOM      7  C   UNL     1       5.985   5.814 -13.472  0.00  0.00    +0.000 A 
ATOM      8  C   UNL     1       7.337   5.814 -13.667  0.00  0.00    +0.000 A 
ATOM      9  C   UNL     1       8.172   5.416 -12.631  0.00  0.00    +0.000 A 
ATOM     10  C   UNL     1       7.724   5.469 -11.318  0.00  0.00    +0.000 A 
ATOM     11  C   UNL     1       5.048   6.048 -14.462  0.00  0.00    +0.003 A 
ATOM     12  C   UNL     1       6.378   5.653 -11.107  0.00  0.00    +0.000 A 
ATOM     13  C   UNL     1       3.696   5.904 -14.169  0.00  0.00    +0.037 A 
BRANCH   4  14
ATOM     14  O   UNL     1       1.947   5.544 -12.497  0.00  0.00    -0.475 OA
BRANCH  14  16
ATOM     15  C   UNL     1       0.625   6.572 -12.593  0.00  0.00    +0.051 C 
ATOM     16  C   UNL     1       1.045   6.589 -12.851  0.00  0.00    +0.206 C 
ENDBRANCH  14  16
ENDBRANCH   4  14
ENDBRANCH   1   5
BRANCH   2  17
ATOM     17  CA  UNL     1       3.510   5.282  -8.380  0.00  0.00    +0.200 C 
ATOM     18  C   UNL     1       2.505   5.971  -7.219  0.00  0.00    +0.153 C 
ATOM     19  S   UNL     1       0.841   6.067  -8.166  0.00  0.00    -0.118 S 
ATOM     20  C   UNL     1       0.126   5.747  -6.615  0.00  0.00    +0.068 C 
ATOM     21  CA  UNL     1       1.026   4.545  -5.918  0.00  0.00    +0.189 C 
ATOM     22  C   UNL     1      -1.254   5.131  -6.808  0.00  0.00    +0.013 C 
ATOM     23  C   UNL     1      -0.007   6.863  -5.664  0.00  0.00    +0.013 C 
ATOM     24  N   UNL     1       2.171   4.513  -7.001  0.00  0.00    -0.259 N 
ATOM     25  C   UNL     1       2.417   4.090  -8.354  0.00  0.00    +0.249 C 
ATOM     26  O   UNL     1       2.860   2.955  -8.728  0.00  0.00    -0.273 OA
BRANCH  21  27
ATOM     27  C   UNL     1       1.874   5.526  -4.917  0.00  0.00    +0.383 C 
ATOM     28  OXT UNL     1       3.207   5.101  -4.769  0.00  0.00    -0.244 OA
ATOM     29  O   UNL     1       1.269   5.371  -3.803  0.00  0.00    -0.244 OA
ENDBRANCH  21  27
ENDBRANCH   2  17
TORSDOF 5
ENDMDL
MODEL 9
REMARK VINA RESULT:      -7.9      2.721      7.265
REMARK  Name = 
REMARK  5 active torsions:
REMARK  status: ('A' for Active; 'I' for Inactive)
REMARK    1  A    between atoms: C_2  and  O_3
REMARK    2  A    between atoms: O_3  and  C_4
REMARK    3  A    between atoms: C_13  and  C_14
REMARK    4  A    between atoms: N_16  and  CA_17
REMARK    5  A    between atoms: CA_26  and  C_27
REMARK                            x       y       z     vdW  Elec       q    Type
REMARK                         _______ _______ _______ _____ _____    ______ ____
ROOT
ATOM      1  C   UNL     1       1.481   4.317  -6.777  0.00  0.00    +0.268 C 
ATOM      2  N   UNL     1       1.430   4.835  -8.094  0.00  0.00    -0.191 NA
ATOM      3  O   UNL     1       2.251   3.310  -6.698  0.00  0.00    -0.268 OA
ENDROOT
BRANCH   1   5
ATOM      4  C   UNL     1       2.000   5.348  -4.577  0.00  0.00    +0.143 A 
ATOM      5  C   UNL     1       1.098   5.055  -5.565  0.00  0.00    +0.089 A 
ATOM      6  C   UNL     1      -0.155   5.655  -5.461  0.00  0.00    +0.007 A 
ATOM      7  C   UNL     1      -0.398   6.766  -4.704  0.00  0.00    +0.000 A 
ATOM      8  C   UNL     1      -1.604   7.391  -4.843  0.00  0.00    +0.000 A 
ATOM      9  C   UNL     1      -2.662   6.705  -5.425  0.00  0.00    +0.000 A 
ATOM     10  C   UNL     1      -2.412   5.623  -6.260  0.00  0.00    +0.000 A 
ATOM     11  C   UNL     1       0.682   7.287  -4.015  0.00  0.00    +0.003 A 
ATOM     12  C   UNL     1      -1.141   5.097  -6.265  0.00  0.00    +0.000 A 
ATOM     13  C   UNL     1       1.820   6.506  -3.841  0.00  0.00    +0.037 A 
BRANCH   4  14
ATOM     14  O   UNL     1       3.048   4.456  -4.366  0.00  0.00    -0.475 OA
BRANCH  14  16
ATOM     15  C   UNL     1       4.699   4.755  -4.368  0.00  0.00    +0.051 C 
ATOM     16  C   UNL     1       4.330   5.079  -4.414  0.00  0.00    +0.206 C 
ENDBRANCH  14  16
ENDBRANCH   4  14
ENDBRANCH   1   5
BRANCH   2  17
ATOM     17  CA  UNL     1       2.835   5.238  -8.724  0.00  0.00    +0.200 C 
ATOM     18  C   UNL     1       2.440   4.946 -10.334  0.00  0.00    +0.153 C 
ATOM     19  S   UNL     1       0.606   5.498 -10.382  0.00  0.00    -0.118 S 
ATOM     20  C   UNL     1       0.975   6.026 -11.996  0.00  0.00    +0.068 C 
ATOM     21  CA  UNL     1       2.441   6.790 -11.920  0.00  0.00    +0.189 C 
ATOM     22  C   UNL     1      -0.005   7.116 -12.412  0.00  0.00    +0.013 C 
ATOM     23  C   UNL     1       1.011   5.017 -13.068  0.00  0.00    +0.013 C 
ATOM     24  N   UNL     1       2.772   6.418 -10.424  0.00  0.00    -0.259 N 
ATOM     25  C   UNL     1       2.384   6.750  -9.078  0.00  0.00    +0.249 C 
ATOM     26  O   UNL     1       2.902   7.647  -8.336  0.00  0.00    -0.273 OA
BRANCH  21  27
ATOM     27  C   UNL     1       3.316   5.541 -12.520  0.00  0.00    +0.383 C 
ATOM     28  OXT UNL     1       4.566   5.420 -11.885  0.00  0.00    -0.244 OA
ATOM     29  O   UNL     1       3.505   5.895 -13.732  0.00  0.00    -0.244 OA
ENDBRANCH  21  27
ENDBRANCH   2  17
TORSDOF 5
ENDMDL
