MODEL 1
REMARK VINA RESULT:      -9.1      0.000      0.000
REMARK  Name = 
REMARK  8 active torsions:
REMARK  status: ('A' for Active; 'I' for Inactive)
REMARK    1  A    between atoms: O_2  and  C_3
REMARK    2  A    between atoms: C_4  and  O_5
REMARK    3  A    between atoms: O_5  and  C_6
REMARK    4  A    between atoms: C_6  and  C_7
REMARK    5  A    between atoms: C_7  and  C_8
REMARK    6  A    between atoms: C_8  and  N_9
REMARK    7  A    between atoms: C_20  and  N_21
REMARK    8  A    between atoms: C_22  and  C_24
REMARK                            x       y       z     vdW  Elec       q    Type
REMARK                         _______ _______ _______ _____ _____    ______ ____
ROOT
ATOM      1  C   UNL     1       2.261   5.854  -8.153  0.00  0.00    +0.190 A 
ATOM      2  C   UNL     1       1.517   6.100  -7.021  0.00  0.00    +0.124 A 
ATOM      3  N   UNL     1       2.061   6.598  -5.810  0.00  0.00    -0.208 NA
ATOM      4  C   UNL     1       1.466   6.438  -4.665  0.00  0.00    +0.237 A 
ATOM      5  N   UNL     1       0.038   6.490  -4.672  0.00  0.00    -0.281 N 
ATOM      6  C   UNL     1      -0.641   6.136  -5.861  0.00  0.00    +0.143 A 
ATOM      7  N   UNL     1      -1.921   6.263  -5.717  0.00  0.00    -0.252 NA
ATOM      8  C   UNL     1      -2.252   6.531  -4.341  0.00  0.00    +0.152 C 
ATOM      9  C   UNL     1      -0.949   6.396  -3.603  0.00  0.00    +0.137 C 
ATOM     10  C   UNL     1       0.179   5.760  -7.019  0.00  0.00    +0.055 A 
ATOM     11  C   UNL     1      -0.435   5.397  -8.210  0.00  0.00    +0.008 A 
ATOM     12  C   UNL     1       0.248   5.642  -9.395  0.00  0.00    +0.040 A 
ATOM     13  C   UNL     1       1.627   5.476  -9.330  0.00  0.00    +0.174 A 
ENDROOT
BRANCH   4  14
ATOM     14  N   UNL     1       2.143   6.736  -3.440  0.00  0.00    -0.172 NA
ATOM     15  C   UNL     1       3.208   6.135  -3.059  0.00  0.00    +0.285 C 
ATOM     16  O   UNL     1       3.555   4.956  -3.713  0.00  0.00    -0.265 OA
BRANCH  15  17
ATOM     17  C   UNL     1       4.016   6.577  -1.914  0.00  0.00    +0.096 A 
ATOM     18  C   UNL     1       4.134   7.923  -1.586  0.00  0.00    +0.108 A 
ATOM     19  N   UNL     1       4.049   8.316  -0.291  0.00  0.00    -0.209 NA
ATOM     20  C   UNL     1       4.050   7.418   0.723  0.00  0.00    +0.257 A 
ATOM     21  N   UNL     1       3.302   7.661   1.920  0.00  0.00    -0.086 NA
ATOM     22  N   UNL     1       4.439   6.164   0.383  0.00  0.00    -0.209 NA
ATOM     23  C   UNL     1       4.318   5.695  -0.882  0.00  0.00    +0.108 A 
ENDBRANCH  15  17
ENDBRANCH   4  14
BRANCH   1  25
ATOM     24  C   UNL     1       4.697   5.547  -7.897  0.00  0.00    +0.253 C 
ATOM     25  O   UNL     1       3.565   6.328  -8.186  0.00  0.00    -0.467 OA
ENDBRANCH   1  25
BRANCH  13  26
ATOM     26  O   UNL     1       2.383   5.100 -10.442  0.00  0.00    -0.472 OA
BRANCH  26  27
ATOM     27  C   UNL     1       2.683   6.075 -11.412  0.00  0.00    +0.207 C 
BRANCH  27  28
ATOM     28  C   UNL     1       3.858   5.699 -12.274  0.00  0.00    +0.065 C 
BRANCH  28  29
ATOM     29  C   UNL     1       5.185   5.934 -11.584  0.00  0.00    +0.076 C 
BRANCH  29  30
ATOM     30  N   UNL     1       6.000   6.912 -12.295  0.00  0.00    -0.268 NA
ATOM     31  C   UNL     1       7.368   6.760 -11.804  0.00  0.00    +0.105 C 
ATOM     32  C   UNL     1       7.613   5.262 -11.712  0.00  0.00    +0.159 C 
ATOM     33  O   UNL     1       7.462   4.697 -12.987  0.00  0.00    -0.351 OA
ATOM     34  C   UNL     1       7.276   5.667 -13.968  0.00  0.00    +0.159 C 
ATOM     35  C   UNL     1       6.030   6.503 -13.696  0.00  0.00    +0.105 C 
ENDBRANCH  29  30
ENDBRANCH  28  29
ENDBRANCH  27  28
ENDBRANCH  26  27
ENDBRANCH  13  26
TORSDOF 8
ENDMDL
MODEL 2
REMARK VINA RESULT:      -8.9      2.414      3.243
REMARK  Name = 
REMARK  8 active torsions:
REMARK  status: ('A' for Active; 'I' for Inactive)
REMARK    1  A    between atoms: O_2  and  C_3
REMARK    2  A    between atoms: C_4  and  O_5
REMARK    3  A    between atoms: O_5  and  C_6
REMARK    4  A    between atoms: C_6  and  C_7
REMARK    5  A    between atoms: C_7  and  C_8
REMARK    6  A    between atoms: C_8  and  N_9
REMARK    7  A    between atoms: C_20  and  N_21
REMARK    8  A    between atoms: C_22  and  C_24
REMARK                            x       y       z     vdW  Elec       q    Type
REMARK                         _______ _______ _______ _____ _____    ______ ____
ROOT
ATOM      1  C   UNL     1       3.098   6.231  -5.856  0.00  0.00    +0.190 A 
ATOM      2  C   UNL     1       1.748   6.188  -5.587  0.00  0.00    +0.124 A 
ATOM      3  N   UNL     1       1.159   6.728  -4.416  0.00  0.00    -0.208 NA
ATOM      4  C   UNL     1      -0.001   6.335  -3.979  0.00  0.00    +0.237 A 
ATOM      5  N   UNL     1      -0.979   6.003  -4.967  0.00  0.00    -0.281 N 
ATOM      6  C   UNL     1      -0.531   5.564  -6.235  0.00  0.00    +0.143 A 
ATOM      7  N   UNL     1      -1.531   5.334  -7.023  0.00  0.00    -0.252 NA
ATOM      8  C   UNL     1      -2.774   5.407  -6.300  0.00  0.00    +0.152 C 
ATOM      9  C   UNL     1      -2.368   5.574  -4.862  0.00  0.00    +0.137 C 
ATOM     10  C   UNL     1       0.919   5.503  -6.452  0.00  0.00    +0.055 A 
ATOM     11  C   UNL     1       1.415   5.074  -7.675  0.00  0.00    +0.008 A 
ATOM     12  C   UNL     1       2.642   5.575  -8.092  0.00  0.00    +0.040 A 
ATOM     13  C   UNL     1       3.573   5.780  -7.081  0.00  0.00    +0.174 A 
ENDROOT
BRANCH   4  14
ATOM     14  N   UNL     1      -0.463   6.716  -2.679  0.00  0.00    -0.172 NA
ATOM     15  C   UNL     1      -0.274   6.009  -1.628  0.00  0.00    +0.285 C 
ATOM     16  O   UNL     1       0.136   4.689  -1.802  0.00  0.00    -0.265 OA
BRANCH  15  17
ATOM     17  C   UNL     1      -0.560   6.491  -0.271  0.00  0.00    +0.096 A 
ATOM     18  C   UNL     1       0.448   6.976   0.555  0.00  0.00    +0.108 A 
ATOM     19  N   UNL     1       0.247   8.104   1.280  0.00  0.00    -0.209 NA
ATOM     20  C   UNL     1      -0.980   8.670   1.384  0.00  0.00    +0.257 A 
ATOM     21  N   UNL     1      -1.126  10.091   1.492  0.00  0.00    -0.086 NA
ATOM     22  N   UNL     1      -2.012   7.888   0.980  0.00  0.00    -0.209 NA
ATOM     23  C   UNL     1      -1.845   6.892   0.078  0.00  0.00    +0.108 A 
ENDBRANCH  15  17
ENDBRANCH   4  14
BRANCH   1  25
ATOM     24  C   UNL     1       4.760   6.553  -4.060  0.00  0.00    +0.253 C 
ATOM     25  O   UNL     1       3.893   7.037  -5.053  0.00  0.00    -0.467 OA
ENDBRANCH   1  25
BRANCH  13  26
ATOM     26  O   UNL     1       4.949   5.698  -7.309  0.00  0.00    -0.472 OA
BRANCH  26  27
ATOM     27  C   UNL     1       5.400   5.050  -8.476  0.00  0.00    +0.207 C 
BRANCH  27  28
ATOM     28  C   UNL     1       6.421   5.855  -9.233  0.00  0.00    +0.065 C 
BRANCH  28  29
ATOM     29  C   UNL     1       6.582   5.393 -10.665  0.00  0.00    +0.076 C 
BRANCH  29  30
ATOM     30  N   UNL     1       6.201   6.431 -11.616  0.00  0.00    -0.268 NA
ATOM     31  C   UNL     1       7.434   6.906 -12.239  0.00  0.00    +0.105 C 
ATOM     32  C   UNL     1       8.261   5.663 -12.528  0.00  0.00    +0.159 C 
ATOM     33  O   UNL     1       7.539   4.828 -13.394  0.00  0.00    -0.351 OA
ATOM     34  C   UNL     1       6.366   5.429 -13.840  0.00  0.00    +0.159 C 
ATOM     35  C   UNL     1       5.442   5.778 -12.678  0.00  0.00    +0.105 C 
ENDBRANCH  29  30
ENDBRANCH  28  29
ENDBRANCH  27  28
ENDBRANCH  26  27
ENDBRANCH  13  26
TORSDOF 8
ENDMDL
MODEL 3
REMARK VINA RESULT:      -8.9      3.019      9.875
REMARK  Name = 
REMARK  8 active torsions:
REMARK  status: ('A' for Active; 'I' for Inactive)
REMARK    1  A    between atoms: O_2  and  C_3
REMARK    2  A    between atoms: C_4  and  O_5
REMARK    3  A    between atoms: O_5  and  C_6
REMARK    4  A    between atoms: C_6  and  C_7
REMARK    5  A    between atoms: C_7  and  C_8
REMARK    6  A    between atoms: C_8  and  N_9
REMARK    7  A    between atoms: C_20  and  N_21
REMARK    8  A    between atoms: C_22  and  C_24
REMARK                            x       y       z     vdW  Elec       q    Type
REMARK                         _______ _______ _______ _____ _____    ______ ____
ROOT
ATOM      1  C   UNL     1       0.770   6.431  -5.527  0.00  0.00    +0.190 A 
ATOM      2  C   UNL     1       1.056   6.152  -6.844  0.00  0.00    +0.124 A 
ATOM      3  N   UNL     1       2.342   6.306  -7.423  0.00  0.00    -0.208 NA
ATOM      4  C   UNL     1       2.513   6.443  -8.705  0.00  0.00    +0.237 A 
ATOM      5  N   UNL     1       1.628   5.707  -9.552  0.00  0.00    -0.281 N 
ATOM      6  C   UNL     1       0.347   5.372  -9.056  0.00  0.00    +0.143 A 
ATOM      7  N   UNL     1      -0.319   4.683  -9.925  0.00  0.00    -0.252 NA
ATOM      8  C   UNL     1       0.378   4.648 -11.186  0.00  0.00    +0.152 C 
ATOM      9  C   UNL     1       1.544   5.579 -11.002  0.00  0.00    +0.137 C 
ATOM     10  C   UNL     1       0.024   5.790  -7.687  0.00  0.00    +0.055 A 
ATOM     11  C   UNL     1      -1.222   5.495  -7.151  0.00  0.00    +0.008 A 
ATOM     12  C   UNL     1      -1.314   5.319  -5.776  0.00  0.00    +0.040 A 
ATOM     13  C   UNL     1      -0.490   6.142  -5.017  0.00  0.00    +0.174 A 
ENDROOT
BRANCH   4  14
ATOM     14  N   UNL     1       3.783   6.832  -9.237  0.00  0.00    -0.172 NA
ATOM     15  C   UNL     1       4.785   6.039  -9.323  0.00  0.00    +0.285 C 
ATOM     16  O   UNL     1       4.728   4.846  -8.608  0.00  0.00    -0.265 OA
BRANCH  15  17
ATOM     17  C   UNL     1       6.015   6.372 -10.054  0.00  0.00    +0.096 A 
ATOM     18  C   UNL     1       7.193   5.662  -9.852  0.00  0.00    +0.108 A 
ATOM     19  N   UNL     1       7.952   5.293 -10.913  0.00  0.00    -0.209 NA
ATOM     20  C   UNL     1       7.707   5.766 -12.159  0.00  0.00    +0.257 A 
ATOM     21  N   UNL     1       7.951   4.955 -13.314  0.00  0.00    -0.086 NA
ATOM     22  N   UNL     1       6.872   6.834 -12.216  0.00  0.00    -0.209 NA
ATOM     23  C   UNL     1       5.954   7.078 -11.250  0.00  0.00    +0.108 A 
ENDBRANCH  15  17
ENDBRANCH   4  14
BRANCH   1  25
ATOM     24  C   UNL     1       2.484   5.653  -3.930  0.00  0.00    +0.253 C 
ATOM     25  O   UNL     1       1.835   6.657  -4.667  0.00  0.00    -0.467 OA
ENDBRANCH   1  25
BRANCH  13  26
ATOM     26  O   UNL     1      -0.828   6.540  -3.722  0.00  0.00    -0.472 OA
BRANCH  26  27
ATOM     27  C   UNL     1      -1.284   5.564  -2.815  0.00  0.00    +0.207 C 
BRANCH  27  28
ATOM     28  C   UNL     1      -0.598   5.644  -1.478  0.00  0.00    +0.065 C 
BRANCH  28  29
ATOM     29  C   UNL     1      -0.863   6.953  -0.765  0.00  0.00    +0.076 C 
BRANCH  29  30
ATOM     30  N   UNL     1      -1.237   6.744   0.630  0.00  0.00    -0.268 NA
ATOM     31  C   UNL     1      -0.136   7.255   1.443  0.00  0.00    +0.105 C 
ATOM     32  C   UNL     1       0.286   8.565   0.798  0.00  0.00    +0.159 C 
ATOM     33  O   UNL     1      -0.805   9.447   0.803  0.00  0.00    -0.351 OA
ATOM     34  C   UNL     1      -1.888   8.931   1.508  0.00  0.00    +0.159 C 
ATOM     35  C   UNL     1      -2.374   7.619   0.901  0.00  0.00    +0.105 C 
ENDBRANCH  29  30
ENDBRANCH  28  29
ENDBRANCH  27  28
ENDBRANCH  26  27
ENDBRANCH  13  26
TORSDOF 8
ENDMDL
MODEL 4
REMARK VINA RESULT:      -8.7      3.141     10.420
REMARK  Name = 
REMARK  8 active torsions:
REMARK  status: ('A' for Active; 'I' for Inactive)
REMARK    1  A    between atoms: O_2  and  C_3
REMARK    2  A    between atoms: C_4  and  O_5
REMARK    3  A    between atoms: O_5  and  C_6
REMARK    4  A    between atoms: C_6  and  C_7
REMARK    5  A    between atoms: C_7  and  C_8
REMARK    6  A    between atoms: C_8  and  N_9
REMARK    7  A    between atoms: C_20  and  N_21
REMARK    8  A    between atoms: C_22  and  C_24
REMARK                            x       y       z     vdW  Elec       q    Type
REMARK                         _______ _______ _______ _____ _____    ______ ____
ROOT
ATOM      1  C   UNL     1       2.251   5.741  -6.865  0.00  0.00    +0.190 A 
ATOM      2  C   UNL     1       3.061   5.861  -7.972  0.00  0.00    +0.124 A 
ATOM      3  N   UNL     1       2.609   6.317  -9.236  0.00  0.00    -0.208 NA
ATOM      4  C   UNL     1       3.242   6.043 -10.339  0.00  0.00    +0.237 A 
ATOM      5  N   UNL     1       4.669   5.997 -10.264  0.00  0.00    -0.281 N 
ATOM      6  C   UNL     1       5.267   5.675  -9.024  0.00  0.00    +0.143 A 
ATOM      7  N   UNL     1       6.557   5.705  -9.112  0.00  0.00    -0.252 NA
ATOM      8  C   UNL     1       6.968   5.860 -10.484  0.00  0.00    +0.152 C 
ATOM      9  C   UNL     1       5.694   5.767 -11.275  0.00  0.00    +0.137 C 
ATOM     10  C   UNL     1       4.371   5.431  -7.887  0.00  0.00    +0.055 A 
ATOM     11  C   UNL     1       4.902   5.105  -6.647  0.00  0.00    +0.008 A 
ATOM     12  C   UNL     1       4.186   5.472  -5.515  0.00  0.00    +0.040 A 
ATOM     13  C   UNL     1       2.804   5.396  -5.638  0.00  0.00    +0.174 A 
ENDROOT
BRANCH   4  14
ATOM     14  N   UNL     1       2.644   6.306 -11.612  0.00  0.00    -0.172 NA
ATOM     15  C   UNL     1       1.499   5.851 -11.961  0.00  0.00    +0.285 C 
ATOM     16  O   UNL     1       0.948   4.829 -11.193  0.00  0.00    -0.265 OA
BRANCH  15  17
ATOM     17  C   UNL     1       0.796   6.287 -13.175  0.00  0.00    +0.096 A 
ATOM     18  C   UNL     1       0.537   7.631 -13.420  0.00  0.00    +0.108 A 
ATOM     19  N   UNL     1       0.737   8.144 -14.659  0.00  0.00    -0.209 NA
ATOM     20  C   UNL     1       0.991   7.346 -15.724  0.00  0.00    +0.257 A 
ATOM     21  N   UNL     1       1.849   7.786 -16.784  0.00  0.00    -0.086 NA
ATOM     22  N   UNL     1       0.737   6.028 -15.531  0.00  0.00    -0.209 NA
ATOM     23  C   UNL     1       0.755   5.468 -14.298  0.00  0.00    +0.108 A 
ENDBRANCH  15  17
ENDBRANCH   4  14
BRANCH   1  25
ATOM     24  C   UNL     1      -0.175   5.601  -7.295  0.00  0.00    +0.253 C 
ATOM     25  O   UNL     1       0.984   6.303  -6.926  0.00  0.00    -0.467 OA
ENDBRANCH   1  25
BRANCH  13  26
ATOM     26  O   UNL     1       1.973   5.145  -4.543  0.00  0.00    -0.472 OA
BRANCH  26  27
ATOM     27  C   UNL     1       1.995   6.046  -3.461  0.00  0.00    +0.207 C 
BRANCH  27  28
ATOM     28  C   UNL     1       0.703   6.066  -2.691  0.00  0.00    +0.065 C 
BRANCH  28  29
ATOM     29  C   UNL     1      -0.503   5.808  -3.570  0.00  0.00    +0.076 C 
BRANCH  29  30
ATOM     30  N   UNL     1      -1.351   6.989  -3.687  0.00  0.00    -0.268 NA
ATOM     31  C   UNL     1      -2.441   6.639  -4.594  0.00  0.00    +0.105 C 
ATOM     32  C   UNL     1      -2.878   5.237  -4.198  0.00  0.00    +0.159 C 
ATOM     33  O   UNL     1      -3.309   5.255  -2.863  0.00  0.00    -0.351 OA
ATOM     34  C   UNL     1      -3.345   6.546  -2.345  0.00  0.00    +0.159 C 
ATOM     35  C   UNL     1      -1.968   7.200  -2.381  0.00  0.00    +0.105 C 
ENDBRANCH  29  30
ENDBRANCH  28  29
ENDBRANCH  27  28
ENDBRANCH  26  27
ENDBRANCH  13  26
TORSDOF 8
ENDMDL
MODEL 5
REMARK VINA RESULT:      -8.5      2.131      9.173
REMARK  Name = 
REMARK  8 active torsions:
REMARK  status: ('A' for Active; 'I' for Inactive)
REMARK    1  A    between atoms: O_2  and  C_3
REMARK    2  A    between atoms: C_4  and  O_5
REMARK    3  A    between atoms: O_5  and  C_6
REMARK    4  A    between atoms: C_6  and  C_7
REMARK    5  A    between atoms: C_7  and  C_8
REMARK    6  A    between atoms: C_8  and  N_9
REMARK    7  A    between atoms: C_20  and  N_21
REMARK    8  A    between atoms: C_22  and  C_24
REMARK                            x       y       z     vdW  Elec       q    Type
REMARK                         _______ _______ _______ _____ _____    ______ ____
ROOT
ATOM      1  C   UNL     1       2.068   6.248  -5.567  0.00  0.00    +0.190 A 
ATOM      2  C   UNL     1       2.037   6.077  -6.932  0.00  0.00    +0.124 A 
ATOM      3  N   UNL     1       3.180   6.166  -7.766  0.00  0.00    -0.208 NA
ATOM      4  C   UNL     1       3.092   6.415  -9.039  0.00  0.00    +0.237 A 
ATOM      5  N   UNL     1       1.971   5.854  -9.725  0.00  0.00    -0.281 N 
ATOM      6  C   UNL     1       0.793   5.594  -8.988  0.00  0.00    +0.143 A 
ATOM      7  N   UNL     1      -0.115   5.061  -9.740  0.00  0.00    -0.252 NA
ATOM      8  C   UNL     1       0.292   5.088 -11.121  0.00  0.00    +0.152 C 
ATOM      9  C   UNL     1       1.569   5.881 -11.126  0.00  0.00    +0.137 C 
ATOM     10  C   UNL     1       0.816   5.901  -7.553  0.00  0.00    +0.055 A 
ATOM     11  C   UNL     1      -0.315   5.672  -6.780  0.00  0.00    +0.008 A 
ATOM     12  C   UNL     1      -0.134   5.368  -5.436  0.00  0.00    +0.040 A 
ATOM     13  C   UNL     1       0.919   6.029  -4.816  0.00  0.00    +0.174 A 
ENDROOT
BRANCH   4  14
ATOM     14  N   UNL     1       4.258   6.734  -9.806  0.00  0.00    -0.172 NA
ATOM     15  C   UNL     1       5.303   5.995  -9.841  0.00  0.00    +0.285 C 
ATOM     16  O   UNL     1       5.424   4.999  -8.875  0.00  0.00    -0.265 OA
BRANCH  15  17
ATOM     17  C   UNL     1       6.410   6.210 -10.782  0.00  0.00    +0.096 A 
ATOM     18  C   UNL     1       7.220   5.161 -11.202  0.00  0.00    +0.108 A 
ATOM     19  N   UNL     1       7.564   5.052 -12.509  0.00  0.00    -0.209 NA
ATOM     20  C   UNL     1       7.310   6.046 -13.395  0.00  0.00    +0.257 A 
ATOM     21  N   UNL     1       6.996   5.750 -14.760  0.00  0.00    -0.086 NA
ATOM     22  N   UNL     1       6.977   7.239 -12.842  0.00  0.00    -0.209 NA
ATOM     23  C   UNL     1       6.424   7.328 -11.609  0.00  0.00    +0.108 A 
ENDBRANCH  15  17
ENDBRANCH   4  14
BRANCH   1  25
ATOM     24  C   UNL     1       4.006   5.149  -4.505  0.00  0.00    +0.253 C 
ATOM     25  O   UNL     1       3.309   6.286  -4.947  0.00  0.00    -0.467 OA
ENDBRANCH   1  25
BRANCH  13  26
ATOM     26  O   UNL     1       0.909   6.326  -3.451  0.00  0.00    -0.472 OA
BRANCH  26  27
ATOM     27  C   UNL     1       0.516   5.320  -2.547  0.00  0.00    +0.207 C 
BRANCH  27  28
ATOM     28  C   UNL     1       1.138   5.483  -1.186  0.00  0.00    +0.065 C 
BRANCH  28  29
ATOM     29  C   UNL     1       2.590   5.903  -1.257  0.00  0.00    +0.076 C 
BRANCH  29  30
ATOM     30  N   UNL     1       3.039   6.514  -0.011  0.00  0.00    -0.268 NA
ATOM     31  C   UNL     1       4.479   6.723  -0.136  0.00  0.00    +0.105 C 
ATOM     32  C   UNL     1       4.702   7.253  -1.545  0.00  0.00    +0.159 C 
ATOM     33  O   UNL     1       3.996   8.456  -1.695  0.00  0.00    -0.351 OA
ATOM     34  C   UNL     1       3.426   8.878  -0.497  0.00  0.00    +0.159 C 
ATOM     35  C   UNL     1       2.445   7.847   0.048  0.00  0.00    +0.105 C 
ENDBRANCH  29  30
ENDBRANCH  28  29
ENDBRANCH  27  28
ENDBRANCH  26  27
ENDBRANCH  13  26
TORSDOF 8
ENDMDL
MODEL 6
REMARK VINA RESULT:      -8.4      3.669     10.715
REMARK  Name = 
REMARK  8 active torsions:
REMARK  status: ('A' for Active; 'I' for Inactive)
REMARK    1  A    between atoms: O_2  and  C_3
REMARK    2  A    between atoms: C_4  and  O_5
REMARK    3  A    between atoms: O_5  and  C_6
REMARK    4  A    between atoms: C_6  and  C_7
REMARK    5  A    between atoms: C_7  and  C_8
REMARK    6  A    between atoms: C_8  and  N_9
REMARK    7  A    between atoms: C_20  and  N_21
REMARK    8  A    between atoms: C_22  and  C_24
REMARK                            x       y       z     vdW  Elec       q    Type
REMARK                         _______ _______ _______ _____ _____    ______ ____
ROOT
ATOM      1  C   UNL     1      -0.869   5.705  -4.826  0.00  0.00    +0.190 A 
ATOM      2  C   UNL     1       0.236   5.829  -5.638  0.00  0.00    +0.124 A 
ATOM      3  N   UNL     1       0.187   6.304  -6.973  0.00  0.00    -0.208 NA
ATOM      4  C   UNL     1       1.118   6.035  -7.840  0.00  0.00    +0.237 A 
ATOM      5  N   UNL     1       2.457   5.970  -7.342  0.00  0.00    -0.281 N 
ATOM      6  C   UNL     1       2.653   5.626  -5.985  0.00  0.00    +0.143 A 
ATOM      7  N   UNL     1       3.911   5.640  -5.682  0.00  0.00    -0.252 NA
ATOM      8  C   UNL     1       4.715   5.806  -6.866  0.00  0.00    +0.152 C 
ATOM      9  C   UNL     1       3.735   5.739  -8.004  0.00  0.00    +0.137 C 
ATOM     10  C   UNL     1       1.456   5.381  -5.172  0.00  0.00    +0.055 A 
ATOM     11  C   UNL     1       1.590   5.033  -3.835  0.00  0.00    +0.008 A 
ATOM     12  C   UNL     1       0.571   5.396  -2.963  0.00  0.00    +0.040 A 
ATOM     13  C   UNL     1      -0.712   5.340  -3.495  0.00  0.00    +0.174 A 
ENDROOT
BRANCH   4  14
ATOM     14  N   UNL     1       0.931   6.321  -9.229  0.00  0.00    -0.172 NA
ATOM     15  C   UNL     1       0.803   5.414 -10.125  0.00  0.00    +0.285 C 
ATOM     16  O   UNL     1       1.149   4.111  -9.779  0.00  0.00    -0.265 OA
BRANCH  15  17
ATOM     17  C   UNL     1       0.405   5.701 -11.509  0.00  0.00    +0.096 A 
ATOM     18  C   UNL     1       0.339   7.004 -11.990  0.00  0.00    +0.108 A 
ATOM     19  N   UNL     1       0.834   7.299 -13.217  0.00  0.00    -0.209 NA
ATOM     20  C   UNL     1       1.215   6.327 -14.081  0.00  0.00    +0.257 A 
ATOM     21  N   UNL     1       2.308   6.533 -14.984  0.00  0.00    -0.086 NA
ATOM     22  N   UNL     1       0.794   5.077 -13.764  0.00  0.00    -0.209 NA
ATOM     23  C   UNL     1       0.508   4.720 -12.489  0.00  0.00    +0.108 A 
ENDBRANCH  15  17
ENDBRANCH   4  14
BRANCH   1  25
ATOM     24  C   UNL     1      -2.430   7.611  -4.984  0.00  0.00    +0.253 C 
ATOM     25  O   UNL     1      -2.055   6.285  -5.255  0.00  0.00    -0.467 OA
ENDBRANCH   1  25
BRANCH  13  26
ATOM     26  O   UNL     1      -1.835   5.087  -2.703  0.00  0.00    -0.472 OA
BRANCH  26  27
ATOM     27  C   UNL     1      -1.856   5.589  -1.387  0.00  0.00    +0.207 C 
BRANCH  27  28
ATOM     28  C   UNL     1      -2.365   7.003  -1.310  0.00  0.00    +0.065 C 
BRANCH  28  29
ATOM     29  C   UNL     1      -1.486   7.892  -0.457  0.00  0.00    +0.076 C 
BRANCH  29  30
ATOM     30  N   UNL     1      -1.597   7.566   0.960  0.00  0.00    -0.268 NA
ATOM     31  C   UNL     1      -0.256   7.684   1.527  0.00  0.00    +0.105 C 
ATOM     32  C   UNL     1       0.341   8.947   0.926  0.00  0.00    +0.159 C 
ATOM     33  O   UNL     1      -0.463  10.042   1.279  0.00  0.00    -0.351 OA
ATOM     34  C   UNL     1      -1.468   9.684   2.172  0.00  0.00    +0.159 C 
ATOM     35  C   UNL     1      -2.389   8.623   1.580  0.00  0.00    +0.105 C 
ENDBRANCH  29  30
ENDBRANCH  28  29
ENDBRANCH  27  28
ENDBRANCH  26  27
ENDBRANCH  13  26
TORSDOF 8
ENDMDL
MODEL 7
REMARK VINA RESULT:      -8.3      2.434      3.397
REMARK  Name = 
REMARK  8 active torsions:
REMARK  status: ('A' for Active; 'I' for Inactive)
REMARK    1  A    between atoms: O_2  and  C_3
REMARK    2  A    between atoms: C_4  and  O_5
REMARK    3  A    between atoms: O_5  and  C_6
REMARK    4  A    between atoms: C_6  and  C_7
REMARK    5  A    between atoms: C_7  and  C_8
REMARK    6  A    between atoms: C_8  and  N_9
REMARK    7  A    between atoms: C_20  and  N_21
REMARK    8  A    between atoms: C_22  and  C_24
REMARK                            x       y       z     vdW  Elec       q    Type
REMARK                         _______ _______ _______ _____ _____    ______ ____
ROOT
ATOM      1  C   UNL     1       3.836   6.148 -10.746  0.00  0.00    +0.190 A 
ATOM      2  C   UNL     1       3.130   5.934  -9.584  0.00  0.00    +0.124 A 
ATOM      3  N   UNL     1       3.700   6.017  -8.288  0.00  0.00    -0.208 NA
ATOM      4  C   UNL     1       3.167   5.428  -7.257  0.00  0.00    +0.237 A 
ATOM      5  N   UNL     1       1.739   5.381  -7.214  0.00  0.00    -0.281 N 
ATOM      6  C   UNL     1       1.028   5.417  -8.436  0.00  0.00    +0.143 A 
ATOM      7  N   UNL     1      -0.249   5.399  -8.228  0.00  0.00    -0.252 NA
ATOM      8  C   UNL     1      -0.532   5.149  -6.838  0.00  0.00    +0.152 C 
ATOM      9  C   UNL     1       0.808   4.855  -6.223  0.00  0.00    +0.137 C 
ATOM     10  C   UNL     1       1.815   5.524  -9.670  0.00  0.00    +0.055 A 
ATOM     11  C   UNL     1       1.170   5.556 -10.899  0.00  0.00    +0.008 A 
ATOM     12  C   UNL     1       1.784   6.244 -11.938  0.00  0.00    +0.040 A 
ATOM     13  C   UNL     1       3.171   6.160 -11.966  0.00  0.00    +0.174 A 
ENDROOT
BRANCH   4  14
ATOM     14  N   UNL     1       3.880   5.327  -6.021  0.00  0.00    -0.172 NA
ATOM     15  C   UNL     1       3.983   6.292  -5.185  0.00  0.00    +0.285 C 
ATOM     16  O   UNL     1       3.641   7.568  -5.626  0.00  0.00    -0.265 OA
BRANCH  15  17
ATOM     17  C   UNL     1       4.531   6.130  -3.832  0.00  0.00    +0.096 A 
ATOM     18  C   UNL     1       4.953   7.224  -3.085  0.00  0.00    +0.108 A 
ATOM     19  N   UNL     1       4.630   7.312  -1.770  0.00  0.00    -0.209 NA
ATOM     20  C   UNL     1       4.077   6.269  -1.105  0.00  0.00    +0.257 A 
ATOM     21  N   UNL     1       3.133   6.488  -0.051  0.00  0.00    -0.086 NA
ATOM     22  N   UNL     1       4.150   5.074  -1.743  0.00  0.00    -0.209 NA
ATOM     23  C   UNL     1       4.252   4.987  -3.091  0.00  0.00    +0.108 A 
ENDBRANCH  15  17
ENDBRANCH   4  14
BRANCH   1  25
ATOM     24  C   UNL     1       6.253   5.959 -10.283  0.00  0.00    +0.253 C 
ATOM     25  O   UNL     1       5.108   6.691 -10.641  0.00  0.00    -0.467 OA
ENDBRANCH   1  25
BRANCH  13  26
ATOM     26  O   UNL     1       3.897   6.246 -13.156  0.00  0.00    -0.472 OA
BRANCH  26  27
ATOM     27  C   UNL     1       4.746   5.178 -13.505  0.00  0.00    +0.207 C 
BRANCH  27  28
ATOM     28  C   UNL     1       6.094   5.638 -13.990  0.00  0.00    +0.065 C 
BRANCH  28  29
ATOM     29  C   UNL     1       6.010   6.880 -14.852  0.00  0.00    +0.076 C 
BRANCH  29  30
ATOM     30  N   UNL     1       6.390   6.608 -16.234  0.00  0.00    -0.268 NA
ATOM     31  C   UNL     1       5.273   7.036 -17.072  0.00  0.00    +0.105 C 
ATOM     32  C   UNL     1       4.809   8.366 -16.498  0.00  0.00    +0.159 C 
ATOM     33  O   UNL     1       5.871   9.282 -16.554  0.00  0.00    -0.351 OA
ATOM     34  C   UNL     1       6.971   8.763 -17.231  0.00  0.00    +0.159 C 
ATOM     35  C   UNL     1       7.498   7.502 -16.554  0.00  0.00    +0.105 C 
ENDBRANCH  29  30
ENDBRANCH  28  29
ENDBRANCH  27  28
ENDBRANCH  26  27
ENDBRANCH  13  26
TORSDOF 8
ENDMDL
MODEL 8
REMARK VINA RESULT:      -8.2      3.244     10.096
REMARK  Name = 
REMARK  8 active torsions:
REMARK  status: ('A' for Active; 'I' for Inactive)
REMARK    1  A    between atoms: O_2  and  C_3
REMARK    2  A    between atoms: C_4  and  O_5
REMARK    3  A    between atoms: O_5  and  C_6
REMARK    4  A    between atoms: C_6  and  C_7
REMARK    5  A    between atoms: C_7  and  C_8
REMARK    6  A    between atoms: C_8  and  N_9
REMARK    7  A    between atoms: C_20  and  N_21
REMARK    8  A    between atoms: C_22  and  C_24
REMARK                            x       y       z     vdW  Elec       q    Type
REMARK                         _______ _______ _______ _____ _____    ______ ____
ROOT
ATOM      1  C   UNL     1       2.068   5.804  -2.298  0.00  0.00    +0.190 A 
ATOM      2  C   UNL     1       1.429   5.596  -3.499  0.00  0.00    +0.124 A 
ATOM      3  N   UNL     1       2.072   5.100  -4.661  0.00  0.00    -0.208 NA
ATOM      4  C   UNL     1       1.594   5.293  -5.855  0.00  0.00    +0.237 A 
ATOM      5  N   UNL     1       0.170   5.281  -5.984  0.00  0.00    -0.281 N 
ATOM      6  C   UNL     1      -0.610   5.637  -4.859  0.00  0.00    +0.143 A 
ATOM      7  N   UNL     1      -1.872   5.548  -5.126  0.00  0.00    -0.252 NA
ATOM      8  C   UNL     1      -2.078   5.309  -6.531  0.00  0.00    +0.152 C 
ATOM      9  C   UNL     1      -0.707   5.418  -7.140  0.00  0.00    +0.137 C 
ATOM     10  C   UNL     1       0.106   5.973  -3.623  0.00  0.00    +0.055 A 
ATOM     11  C   UNL     1      -0.608   6.336  -2.489  0.00  0.00    +0.008 A 
ATOM     12  C   UNL     1      -0.048   6.055  -1.249  0.00  0.00    +0.040 A 
ATOM     13  C   UNL     1       1.334   6.184  -1.180  0.00  0.00    +0.174 A 
ENDROOT
BRANCH   4  14
ATOM     14  N   UNL     1       2.376   4.994  -7.015  0.00  0.00    -0.172 NA
ATOM     15  C   UNL     1       3.076   5.868  -7.638  0.00  0.00    +0.285 C 
ATOM     16  O   UNL     1       2.838   7.209  -7.353  0.00  0.00    -0.265 OA
BRANCH  15  17
ATOM     17  C   UNL     1       4.036   5.524  -8.695  0.00  0.00    +0.096 A 
ATOM     18  C   UNL     1       3.801   5.856 -10.025  0.00  0.00    +0.108 A 
ATOM     19  N   UNL     1       4.802   6.368 -10.783  0.00  0.00    -0.209 NA
ATOM     20  C   UNL     1       6.084   6.384 -10.347  0.00  0.00    +0.257 A 
ATOM     21  N   UNL     1       6.972   7.447 -10.712  0.00  0.00    -0.086 NA
ATOM     22  N   UNL     1       6.336   5.601  -9.268  0.00  0.00    -0.209 NA
ATOM     23  C   UNL     1       5.367   5.269  -8.382  0.00  0.00    +0.108 A 
ENDBRANCH  15  17
ENDBRANCH   4  14
BRANCH   1  25
ATOM     24  C   UNL     1       3.698   4.285  -1.236  0.00  0.00    +0.253 C 
ATOM     25  O   UNL     1       3.350   5.294  -2.149  0.00  0.00    -0.467 OA
ENDBRANCH   1  25
BRANCH  13  26
ATOM     26  O   UNL     1       1.991   6.523   0.005  0.00  0.00    -0.472 OA
BRANCH  26  27
ATOM     27  C   UNL     1       2.077   7.883   0.360  0.00  0.00    +0.207 C 
BRANCH  27  28
ATOM     28  C   UNL     1       1.629   8.146   1.772  0.00  0.00    +0.065 C 
BRANCH  28  29
ATOM     29  C   UNL     1       0.125   8.067   1.930  0.00  0.00    +0.076 C 
BRANCH  29  30
ATOM     30  N   UNL     1      -0.557   9.080   1.133  0.00  0.00    -0.268 NA
ATOM     31  C   UNL     1      -1.718   8.430   0.529  0.00  0.00    +0.105 C 
ATOM     32  C   UNL     1      -2.327   7.565   1.622  0.00  0.00    +0.159 C 
ATOM     33  O   UNL     1      -2.702   8.387   2.696  0.00  0.00    -0.351 OA
ATOM     34  C   UNL     1      -2.543   9.737   2.399  0.00  0.00    +0.159 C 
ATOM     35  C   UNL     1      -1.092  10.067   2.066  0.00  0.00    +0.105 C 
ENDBRANCH  29  30
ENDBRANCH  28  29
ENDBRANCH  27  28
ENDBRANCH  26  27
ENDBRANCH  13  26
TORSDOF 8
ENDMDL
MODEL 9
REMARK VINA RESULT:      -8.1      2.637      3.191
REMARK  Name = 
REMARK  8 active torsions:
REMARK  status: ('A' for Active; 'I' for Inactive)
REMARK    1  A    between atoms: O_2  and  C_3
REMARK    2  A    between atoms: C_4  and  O_5
REMARK    3  A    between atoms: O_5  and  C_6
REMARK    4  A    between atoms: C_6  and  C_7
REMARK    5  A    between atoms: C_7  and  C_8
REMARK    6  A    between atoms: C_8  and  N_9
REMARK    7  A    between atoms: C_20  and  N_21
REMARK    8  A    between atoms: C_22  and  C_24
REMARK                            x       y       z     vdW  Elec       q    Type
REMARK                         _______ _______ _______ _____ _____    ______ ____
ROOT
ATOM      1  C   UNL     1       1.099   6.131  -6.535  0.00  0.00    +0.190 A 
ATOM      2  C   UNL     1       0.543   6.135  -5.276  0.00  0.00    +0.124 A 
ATOM      3  N   UNL     1       1.180   6.682  -4.133  0.00  0.00    -0.208 NA
ATOM      4  C   UNL     1       0.859   6.326  -2.924  0.00  0.00    +0.237 A 
ATOM      5  N   UNL     1      -0.521   6.041  -2.684  0.00  0.00    -0.281 N 
ATOM      6  C   UNL     1      -1.315   5.601  -3.769  0.00  0.00    +0.143 A 
ATOM      7  N   UNL     1      -2.541   5.417  -3.399  0.00  0.00    -0.252 NA
ATOM      8  C   UNL     1      -2.660   5.526  -1.968  0.00  0.00    +0.152 C 
ATOM      9  C   UNL     1      -1.246   5.661  -1.477  0.00  0.00    +0.137 C 
ATOM     10  C   UNL     1      -0.662   5.491  -5.079  0.00  0.00    +0.055 A 
ATOM     11  C   UNL     1      -1.391   5.058  -6.178  0.00  0.00    +0.008 A 
ATOM     12  C   UNL     1      -1.013   5.519  -7.433  0.00  0.00    +0.040 A 
ATOM     13  C   UNL     1       0.355   5.678  -7.618  0.00  0.00    +0.174 A 
ENDROOT
BRANCH   4  14
ATOM     14  N   UNL     1       1.669   6.708  -1.808  0.00  0.00    -0.172 NA
ATOM     15  C   UNL     1       2.944   6.588  -1.788  0.00  0.00    +0.285 C 
ATOM     16  O   UNL     1       3.534   5.789  -2.765  0.00  0.00    -0.265 OA
BRANCH  15  17
ATOM     17  C   UNL     1       3.791   7.167  -0.737  0.00  0.00    +0.096 A 
ATOM     18  C   UNL     1       3.435   8.341  -0.083  0.00  0.00    +0.108 A 
ATOM     19  N   UNL     1       3.574   8.436   1.263  0.00  0.00    -0.209 NA
ATOM     20  C   UNL     1       4.239   7.494   1.975  0.00  0.00    +0.257 A 
ATOM     21  N   UNL     1       3.839   7.165   3.310  0.00  0.00    -0.086 NA
ATOM     22  N   UNL     1       4.993   6.640   1.239  0.00  0.00    -0.209 NA
ATOM     23  C   UNL     1       4.714   6.377  -0.061  0.00  0.00    +0.108 A 
ENDBRANCH  15  17
ENDBRANCH   4  14
BRANCH   1  25
ATOM     24  C   UNL     1       3.544   6.385  -6.761  0.00  0.00    +0.253 C 
ATOM     25  O   UNL     1       2.236   6.898  -6.743  0.00  0.00    -0.467 OA
ENDBRANCH   1  25
BRANCH  13  26
ATOM     26  O   UNL     1       0.955   5.549  -8.872  0.00  0.00    -0.472 OA
BRANCH  26  27
ATOM     27  C   UNL     1       0.772   6.580  -9.814  0.00  0.00    +0.207 C 
BRANCH  27  28
ATOM     28  C   UNL     1      -0.123   6.176 -10.954  0.00  0.00    +0.065 C 
BRANCH  28  29
ATOM     29  C   UNL     1       0.621   5.436 -12.045  0.00  0.00    +0.076 C 
BRANCH  29  30
ATOM     30  N   UNL     1       1.624   6.279 -12.686  0.00  0.00    -0.268 NA
ATOM     31  C   UNL     1       2.428   5.407 -13.538  0.00  0.00    +0.105 C 
ATOM     32  C   UNL     1       1.444   4.475 -14.228  0.00  0.00    +0.159 C 
ATOM     33  O   UNL     1       0.545   5.242 -14.985  0.00  0.00    -0.351 OA
ATOM     34  C   UNL     1       0.894   6.589 -14.999  0.00  0.00    +0.159 C 
ATOM     35  C   UNL     1       0.911   7.176 -13.591  0.00  0.00    +0.105 C 
ENDBRANCH  29  30
ENDBRANCH  28  29
ENDBRANCH  27  28
ENDBRANCH  26  27
ENDBRANCH  13  26
TORSDOF 8
ENDMDL
