MODEL 1
REMARK VINA RESULT:      -7.7      0.000      0.000
REMARK  Name = 
REMARK  6 active torsions:
REMARK  status: ('A' for Active; 'I' for Inactive)
REMARK    1  A    between atoms: C_2  and  C_4
REMARK    2  A    between atoms: C_2  and  C_6
REMARK    3  A    between atoms: C_8  and  C_9
REMARK    4  A    between atoms: C_9  and  N_10
REMARK    5  A    between atoms: C_16  and  C_17
REMARK    6  A    between atoms: C_17  and  C_20
REMARK                            x       y       z     vdW  Elec       q    Type
REMARK                         _______ _______ _______ _____ _____    ______ ____
ROOT
ATOM      1  C   UNL     1       3.771   5.311  -8.510  0.00  0.00    -0.010 A 
ATOM      2  C   UNL     1       5.088   5.336  -8.917  0.00  0.00    -0.007 A 
ATOM      3  C   UNL     1       5.444   5.592 -10.235  0.00  0.00    -0.010 A 
ATOM      4  C   UNL     1       4.426   5.553 -11.174  0.00  0.00    -0.006 A 
ATOM      5  C   UNL     1       3.081   5.586 -10.826  0.00  0.00    +0.002 A 
ATOM      6  C   UNL     1       2.808   5.274  -9.507  0.00  0.00    -0.006 A 
ENDROOT
BRANCH   1   8
ATOM      7  C   UNL     1       4.705   5.756  -6.276  0.00  0.00    +0.020 C 
ATOM      8  C   UNL     1       3.429   5.702  -7.106  0.00  0.00    +0.098 C 
ATOM      9  C   UNL     1       2.848   7.106  -7.076  0.00  0.00    +0.020 C 
BRANCH   8  10
ATOM     10  C   UNL     1       2.467   4.802  -6.508  0.00  0.00    +0.075 C 
ATOM     11  N   UNL     1       1.755   4.009  -6.098  0.00  0.00    -0.196 NA
ENDBRANCH   8  10
ENDBRANCH   1   8
BRANCH   3  12
ATOM     12  C   UNL     1       6.791   6.171 -10.551  0.00  0.00    +0.098 C 
ATOM     13  C   UNL     1       6.610   7.606 -11.037  0.00  0.00    +0.020 C 
ATOM     14  C   UNL     1       7.718   6.141  -9.375  0.00  0.00    +0.020 C 
BRANCH  12  15
ATOM     15  C   UNL     1       7.299   5.400 -11.697  0.00  0.00    +0.075 C 
ATOM     16  N   UNL     1       7.733   4.716 -12.527  0.00  0.00    -0.196 NA
ENDBRANCH  12  15
ENDBRANCH   3  12
BRANCH   5  17
ATOM     17  C   UNL     1       2.164   6.314 -11.719  0.00  0.00    +0.156 C 
BRANCH  17  18
ATOM     18  N   UNL     1       1.773   5.581 -12.892  0.00  0.00    -0.226 N 
ATOM     19  N   UNL     1       0.723   4.759 -12.855  0.00  0.00    -0.145 NA
ATOM     20  C   UNL     1       0.671   4.065 -13.991  0.00  0.00    +0.221 A 
ATOM     21  N   UNL     1       1.821   4.323 -14.626  0.00  0.00    -0.201 NA
ATOM     22  C   UNL     1       2.312   5.471 -14.105  0.00  0.00    +0.198 A 
ENDBRANCH  17  18
ENDBRANCH   5  17
TORSDOF 6
ENDMDL
MODEL 2
REMARK VINA RESULT:      -7.5      3.980      9.090
REMARK  Name = 
REMARK  6 active torsions:
REMARK  status: ('A' for Active; 'I' for Inactive)
REMARK    1  A    between atoms: C_2  and  C_4
REMARK    2  A    between atoms: C_2  and  C_6
REMARK    3  A    between atoms: C_8  and  C_9
REMARK    4  A    between atoms: C_9  and  N_10
REMARK    5  A    between atoms: C_16  and  C_17
REMARK    6  A    between atoms: C_17  and  C_20
REMARK                            x       y       z     vdW  Elec       q    Type
REMARK                         _______ _______ _______ _____ _____    ______ ____
ROOT
ATOM      1  C   UNL     1       1.376   5.381  -6.725  0.00  0.00    -0.010 A 
ATOM      2  C   UNL     1       0.041   5.302  -6.390  0.00  0.00    -0.007 A 
ATOM      3  C   UNL     1      -0.423   5.663  -5.131  0.00  0.00    -0.010 A 
ATOM      4  C   UNL     1       0.533   5.847  -4.144  0.00  0.00    -0.006 A 
ATOM      5  C   UNL     1       1.886   5.993  -4.426  0.00  0.00    +0.002 A 
ATOM      6  C   UNL     1       2.273   5.567  -5.684  0.00  0.00    -0.006 A 
ENDROOT
BRANCH   1   8
ATOM      7  C   UNL     1       0.523   5.547  -9.028  0.00  0.00    +0.020 C 
ATOM      8  C   UNL     1       1.761   5.648  -8.146  0.00  0.00    +0.098 C 
ATOM      9  C   UNL     1       2.271   7.071  -8.297  0.00  0.00    +0.020 C 
BRANCH   8  10
ATOM     10  C   UNL     1       2.794   4.746  -8.610  0.00  0.00    +0.075 C 
ATOM     11  N   UNL     1       3.672   4.127  -9.000  0.00  0.00    -0.196 NA
ENDBRANCH   8  10
ENDBRANCH   1   8
BRANCH   3  12
ATOM     12  C   UNL     1      -1.841   6.117  -4.953  0.00  0.00    +0.098 C 
ATOM     13  C   UNL     1      -1.843   7.596  -4.577  0.00  0.00    +0.020 C 
ATOM     14  C   UNL     1      -2.670   5.899  -6.182  0.00  0.00    +0.020 C 
BRANCH  12  15
ATOM     15  C   UNL     1      -2.352   5.386  -3.783  0.00  0.00    +0.075 C 
ATOM     16  N   UNL     1      -2.830   4.890  -2.850  0.00  0.00    -0.196 NA
ENDBRANCH  12  15
ENDBRANCH   3  12
BRANCH   5  17
ATOM     17  C   UNL     1       2.662   6.917  -3.582  0.00  0.00    +0.156 C 
BRANCH  17  18
ATOM     18  N   UNL     1       3.221   6.315  -2.404  0.00  0.00    -0.226 N 
ATOM     19  N   UNL     1       3.776   5.103  -2.465  0.00  0.00    -0.145 NA
ATOM     20  C   UNL     1       4.055   4.687  -1.230  0.00  0.00    +0.221 A 
ATOM     21  N   UNL     1       3.468   5.568  -0.410  0.00  0.00    -0.201 NA
ATOM     22  C   UNL     1       3.255   6.695  -1.128  0.00  0.00    +0.198 A 
ENDBRANCH  17  18
ENDBRANCH   5  17
TORSDOF 6
ENDMDL
MODEL 3
REMARK VINA RESULT:      -7.2      1.417      5.319
REMARK  Name = 
REMARK  6 active torsions:
REMARK  status: ('A' for Active; 'I' for Inactive)
REMARK    1  A    between atoms: C_2  and  C_4
REMARK    2  A    between atoms: C_2  and  C_6
REMARK    3  A    between atoms: C_8  and  C_9
REMARK    4  A    between atoms: C_9  and  N_10
REMARK    5  A    between atoms: C_16  and  C_17
REMARK    6  A    between atoms: C_17  and  C_20
REMARK                            x       y       z     vdW  Elec       q    Type
REMARK                         _______ _______ _______ _____ _____    ______ ____
ROOT
ATOM      1  C   UNL     1       2.388   6.136 -11.160  0.00  0.00    -0.010 A 
ATOM      2  C   UNL     1       3.679   6.604 -11.285  0.00  0.00    -0.007 A 
ATOM      3  C   UNL     1       4.657   6.323 -10.339  0.00  0.00    -0.010 A 
ATOM      4  C   UNL     1       4.225   5.785  -9.137  0.00  0.00    -0.006 A 
ATOM      5  C   UNL     1       2.956   5.244  -8.969  0.00  0.00    +0.002 A 
ATOM      6  C   UNL     1       2.029   5.611  -9.928  0.00  0.00    -0.006 A 
ENDROOT
BRANCH   1   8
ATOM      7  C   UNL     1       0.485   4.859 -12.059  0.00  0.00    +0.020 C 
ATOM      8  C   UNL     1       1.586   5.857 -12.392  0.00  0.00    +0.098 C 
ATOM      9  C   UNL     1       0.881   7.119 -12.861  0.00  0.00    +0.020 C 
BRANCH   8  10
ATOM     10  C   UNL     1       2.407   5.369 -13.479  0.00  0.00    +0.075 C 
ATOM     11  N   UNL     1       2.959   4.971 -14.397  0.00  0.00    -0.196 NA
ENDBRANCH   8  10
ENDBRANCH   1   8
BRANCH   3  12
ATOM     12  C   UNL     1       6.104   6.322 -10.731  0.00  0.00    +0.098 C 
ATOM     13  C   UNL     1       6.512   7.740 -11.120  0.00  0.00    +0.020 C 
ATOM     14  C   UNL     1       6.994   5.814  -9.638  0.00  0.00    +0.020 C 
BRANCH  12  15
ATOM     15  C   UNL     1       6.186   5.511 -11.956  0.00  0.00    +0.075 C 
ATOM     16  N   UNL     1       6.333   4.940 -12.955  0.00  0.00    -0.196 NA
ENDBRANCH  12  15
ENDBRANCH   3  12
BRANCH   5  17
ATOM     17  C   UNL     1       2.827   4.070  -8.089  0.00  0.00    +0.156 C 
BRANCH  17  18
ATOM     18  N   UNL     1       2.435   4.381  -6.742  0.00  0.00    -0.226 N 
ATOM     19  N   UNL     1       1.150   4.339  -6.387  0.00  0.00    -0.145 NA
ATOM     20  C   UNL     1       1.019   4.836  -5.157  0.00  0.00    +0.221 A 
ATOM     21  N   UNL     1       2.208   5.374  -4.857  0.00  0.00    -0.201 NA
ATOM     22  C   UNL     1       3.118   4.809  -5.682  0.00  0.00    +0.198 A 
ENDBRANCH  17  18
ENDBRANCH   5  17
TORSDOF 6
ENDMDL
MODEL 4
REMARK VINA RESULT:      -7.1      1.710      6.147
REMARK  Name = 
REMARK  6 active torsions:
REMARK  status: ('A' for Active; 'I' for Inactive)
REMARK    1  A    between atoms: C_2  and  C_4
REMARK    2  A    between atoms: C_2  and  C_6
REMARK    3  A    between atoms: C_8  and  C_9
REMARK    4  A    between atoms: C_9  and  N_10
REMARK    5  A    between atoms: C_16  and  C_17
REMARK    6  A    between atoms: C_17  and  C_20
REMARK                            x       y       z     vdW  Elec       q    Type
REMARK                         _______ _______ _______ _____ _____    ______ ____
ROOT
ATOM      1  C   UNL     1       5.583   5.550 -10.197  0.00  0.00    -0.010 A 
ATOM      2  C   UNL     1       4.333   5.500 -10.777  0.00  0.00    -0.007 A 
ATOM      3  C   UNL     1       3.173   5.415 -10.017  0.00  0.00    -0.010 A 
ATOM      4  C   UNL     1       3.330   5.114  -8.673  0.00  0.00    -0.006 A 
ATOM      5  C   UNL     1       4.553   5.205  -8.020  0.00  0.00    +0.002 A 
ATOM      6  C   UNL     1       5.660   5.237  -8.849  0.00  0.00    -0.006 A 
ENDROOT
BRANCH   1   8
ATOM      7  C   UNL     1       6.143   7.590 -11.456  0.00  0.00    +0.020 C 
ATOM      8  C   UNL     1       6.686   6.282 -10.896  0.00  0.00    +0.098 C 
ATOM      9  C   UNL     1       7.772   6.667  -9.907  0.00  0.00    +0.020 C 
BRANCH   8  10
ATOM     10  C   UNL     1       7.290   5.487 -11.944  0.00  0.00    +0.075 C 
ATOM     11  N   UNL     1       7.704   4.773 -12.733  0.00  0.00    -0.196 NA
ENDBRANCH   8  10
ENDBRANCH   1   8
BRANCH   3  12
ATOM     12  C   UNL     1       1.874   5.923 -10.567  0.00  0.00    +0.098 C 
ATOM     13  C   UNL     1       1.307   6.968  -9.611  0.00  0.00    +0.020 C 
ATOM     14  C   UNL     1       2.023   6.509 -11.938  0.00  0.00    +0.020 C 
BRANCH  12  15
ATOM     15  C   UNL     1       0.950   4.778 -10.534  0.00  0.00    +0.075 C 
ATOM     16  N   UNL     1       0.208   3.891 -10.618  0.00  0.00    -0.196 NA
ENDBRANCH  12  15
ENDBRANCH   3  12
BRANCH   5  17
ATOM     17  C   UNL     1       4.545   5.659  -6.619  0.00  0.00    +0.156 C 
BRANCH  17  18
ATOM     18  N   UNL     1       3.237   5.739  -6.030  0.00  0.00    -0.226 N 
ATOM     19  N   UNL     1       2.675   4.658  -5.488  0.00  0.00    -0.145 NA
ATOM     20  C   UNL     1       1.408   4.932  -5.177  0.00  0.00    +0.221 A 
ATOM     21  N   UNL     1       1.150   6.124  -5.731  0.00  0.00    -0.201 NA
ATOM     22  C   UNL     1       2.343   6.722  -5.956  0.00  0.00    +0.198 A 
ENDBRANCH  17  18
ENDBRANCH   5  17
TORSDOF 6
ENDMDL
MODEL 5
REMARK VINA RESULT:      -7.1      1.603      5.998
REMARK  Name = 
REMARK  6 active torsions:
REMARK  status: ('A' for Active; 'I' for Inactive)
REMARK    1  A    between atoms: C_2  and  C_4
REMARK    2  A    between atoms: C_2  and  C_6
REMARK    3  A    between atoms: C_8  and  C_9
REMARK    4  A    between atoms: C_9  and  N_10
REMARK    5  A    between atoms: C_16  and  C_17
REMARK    6  A    between atoms: C_17  and  C_20
REMARK                            x       y       z     vdW  Elec       q    Type
REMARK                         _______ _______ _______ _____ _____    ______ ____
ROOT
ATOM      1  C   UNL     1       4.933   5.893 -10.693  0.00  0.00    -0.010 A 
ATOM      2  C   UNL     1       4.052   5.578 -11.706  0.00  0.00    -0.007 A 
ATOM      3  C   UNL     1       2.684   5.786 -11.581  0.00  0.00    -0.010 A 
ATOM      4  C   UNL     1       2.210   6.068 -10.309  0.00  0.00    -0.006 A 
ATOM      5  C   UNL     1       3.044   6.449  -9.264  0.00  0.00    +0.002 A 
ATOM      6  C   UNL     1       4.385   6.164  -9.448  0.00  0.00    -0.006 A 
ENDROOT
BRANCH   1   8
ATOM      7  C   UNL     1       6.346   7.776 -11.410  0.00  0.00    +0.020 C 
ATOM      8  C   UNL     1       6.331   6.299 -11.037  0.00  0.00    +0.098 C 
ATOM      9  C   UNL     1       7.235   6.164  -9.823  0.00  0.00    +0.020 C 
BRANCH   8  10
ATOM     10  C   UNL     1       6.886   5.496 -12.105  0.00  0.00    +0.075 C 
ATOM     11  N   UNL     1       7.333   4.777 -12.872  0.00  0.00    -0.196 NA
ENDBRANCH   8  10
ENDBRANCH   1   8
BRANCH   3  12
ATOM     12  C   UNL     1       1.840   5.991 -12.803  0.00  0.00    +0.098 C 
ATOM     13  C   UNL     1       0.954   4.765 -13.003  0.00  0.00    +0.020 C 
ATOM     14  C   UNL     1       0.994   7.225 -12.715  0.00  0.00    +0.020 C 
BRANCH  12  15
ATOM     15  C   UNL     1       2.777   6.022 -13.936  0.00  0.00    +0.075 C 
ATOM     16  N   UNL     1       3.428   6.067 -14.895  0.00  0.00    -0.196 NA
ENDBRANCH  12  15
ENDBRANCH   3  12
BRANCH   5  17
ATOM     17  C   UNL     1       2.524   7.438  -8.305  0.00  0.00    +0.156 C 
BRANCH  17  18
ATOM     18  N   UNL     1       2.448   6.966  -6.950  0.00  0.00    -0.226 N 
ATOM     19  N   UNL     1       3.316   7.399  -6.035  0.00  0.00    -0.145 NA
ATOM     20  C   UNL     1       3.163   6.691  -4.916  0.00  0.00    +0.221 A 
ATOM     21  N   UNL     1       2.338   5.686  -5.235  0.00  0.00    -0.201 NA
ATOM     22  C   UNL     1       1.678   6.055  -6.357  0.00  0.00    +0.198 A 
ENDBRANCH  17  18
ENDBRANCH   5  17
TORSDOF 6
ENDMDL
MODEL 6
REMARK VINA RESULT:      -7.0      1.341      5.451
REMARK  Name = 
REMARK  6 active torsions:
REMARK  status: ('A' for Active; 'I' for Inactive)
REMARK    1  A    between atoms: C_2  and  C_4
REMARK    2  A    between atoms: C_2  and  C_6
REMARK    3  A    between atoms: C_8  and  C_9
REMARK    4  A    between atoms: C_9  and  N_10
REMARK    5  A    between atoms: C_16  and  C_17
REMARK    6  A    between atoms: C_17  and  C_20
REMARK                            x       y       z     vdW  Elec       q    Type
REMARK                         _______ _______ _______ _____ _____    ______ ____
ROOT
ATOM      1  C   UNL     1       2.274   5.435 -10.605  0.00  0.00    -0.010 A 
ATOM      2  C   UNL     1       2.207   5.220  -9.245  0.00  0.00    -0.007 A 
ATOM      3  C   UNL     1       3.299   5.429  -8.412  0.00  0.00    -0.010 A 
ATOM      4  C   UNL     1       4.528   5.604  -9.029  0.00  0.00    -0.006 A 
ATOM      5  C   UNL     1       4.655   5.883 -10.385  0.00  0.00    +0.002 A 
ATOM      6  C   UNL     1       3.538   5.602 -11.150  0.00  0.00    -0.006 A 
ENDROOT
BRANCH   1   8
ATOM      7  C   UNL     1       0.077   4.680 -11.419  0.00  0.00    +0.020 C 
ATOM      8  C   UNL     1       1.042   5.856 -11.343  0.00  0.00    +0.098 C 
ATOM      9  C   UNL     1       0.315   6.948 -10.578  0.00  0.00    +0.020 C 
BRANCH   8  10
ATOM     10  C   UNL     1       1.344   6.357 -12.667  0.00  0.00    +0.075 C 
ATOM     11  N   UNL     1       1.500   6.682 -13.751  0.00  0.00    -0.196 NA
ENDBRANCH   8  10
ENDBRANCH   1   8
BRANCH   3  12
ATOM     12  C   UNL     1       3.089   5.749  -6.963  0.00  0.00    +0.098 C 
ATOM     13  C   UNL     1       4.437   5.711  -6.248  0.00  0.00    +0.020 C 
ATOM     14  C   UNL     1       2.438   7.083  -6.759  0.00  0.00    +0.020 C 
BRANCH  12  15
ATOM     15  C   UNL     1       2.293   4.638  -6.419  0.00  0.00    +0.075 C 
ATOM     16  N   UNL     1       1.601   3.771  -6.080  0.00  0.00    -0.196 NA
ENDBRANCH  12  15
ENDBRANCH   3  12
BRANCH   5  17
ATOM     17  C   UNL     1       5.741   6.790 -10.793  0.00  0.00    +0.156 C 
BRANCH  17  18
ATOM     18  N   UNL     1       6.618   6.250 -11.796  0.00  0.00    -0.226 N 
ATOM     19  N   UNL     1       6.511   6.641 -13.066  0.00  0.00    -0.145 NA
ATOM     20  C   UNL     1       7.296   5.877 -13.827  0.00  0.00    +0.221 A 
ATOM     21  N   UNL     1       7.714   4.885 -13.031  0.00  0.00    -0.201 NA
ATOM     22  C   UNL     1       7.557   5.306 -11.756  0.00  0.00    +0.198 A 
ENDBRANCH  17  18
ENDBRANCH   5  17
TORSDOF 6
ENDMDL
MODEL 7
REMARK VINA RESULT:      -7.0      1.732      4.732
REMARK  Name = 
REMARK  6 active torsions:
REMARK  status: ('A' for Active; 'I' for Inactive)
REMARK    1  A    between atoms: C_2  and  C_4
REMARK    2  A    between atoms: C_2  and  C_6
REMARK    3  A    between atoms: C_8  and  C_9
REMARK    4  A    between atoms: C_9  and  N_10
REMARK    5  A    between atoms: C_16  and  C_17
REMARK    6  A    between atoms: C_17  and  C_20
REMARK                            x       y       z     vdW  Elec       q    Type
REMARK                         _______ _______ _______ _____ _____    ______ ____
ROOT
ATOM      1  C   UNL     1       5.490   6.546 -11.015  0.00  0.00    -0.010 A 
ATOM      2  C   UNL     1       4.594   6.661  -9.973  0.00  0.00    -0.007 A 
ATOM      3  C   UNL     1       3.241   6.386 -10.134  0.00  0.00    -0.010 A 
ATOM      4  C   UNL     1       2.783   6.254 -11.435  0.00  0.00    -0.006 A 
ATOM      5  C   UNL     1       3.636   6.075 -12.518  0.00  0.00    +0.002 A 
ATOM      6  C   UNL     1       4.957   6.416 -12.288  0.00  0.00    -0.006 A 
ENDROOT
BRANCH   1   8
ATOM      7  C   UNL     1       7.733   7.460 -10.576  0.00  0.00    +0.020 C 
ATOM      8  C   UNL     1       6.913   6.185 -10.722  0.00  0.00    +0.098 C 
ATOM      9  C   UNL     1       7.011   5.466  -9.387  0.00  0.00    +0.020 C 
BRANCH   8  10
ATOM     10  C   UNL     1       7.478   5.326 -11.740  0.00  0.00    +0.075 C 
ATOM     11  N   UNL     1       7.820   4.644 -12.590  0.00  0.00    -0.196 NA
ENDBRANCH   8  10
ENDBRANCH   1   8
BRANCH   3  12
ATOM     12  C   UNL     1       2.415   5.961  -8.957  0.00  0.00    +0.098 C 
ATOM     13  C   UNL     1       1.061   5.465  -9.457  0.00  0.00    +0.020 C 
ATOM     14  C   UNL     1       3.083   4.894  -8.144  0.00  0.00    +0.020 C 
BRANCH  12  15
ATOM     15  C   UNL     1       2.155   7.187  -8.186  0.00  0.00    +0.075 C 
ATOM     16  N   UNL     1       2.060   8.171  -7.580  0.00  0.00    -0.196 NA
ENDBRANCH  12  15
ENDBRANCH   3  12
BRANCH   5  17
ATOM     17  C   UNL     1       3.177   5.198 -13.608  0.00  0.00    +0.156 C 
BRANCH  17  18
ATOM     18  N   UNL     1       2.139   5.763 -14.425  0.00  0.00    -0.226 N 
ATOM     19  N   UNL     1       2.408   6.772 -15.255  0.00  0.00    -0.145 NA
ATOM     20  C   UNL     1       1.267   7.239 -15.762  0.00  0.00    +0.221 A 
ATOM     21  N   UNL     1       0.292   6.639 -15.067  0.00  0.00    -0.201 NA
ATOM     22  C   UNL     1       0.830   5.534 -14.502  0.00  0.00    +0.198 A 
ENDBRANCH  17  18
ENDBRANCH   5  17
TORSDOF 6
ENDMDL
MODEL 8
REMARK VINA RESULT:      -7.0      4.123      7.801
REMARK  Name = 
REMARK  6 active torsions:
REMARK  status: ('A' for Active; 'I' for Inactive)
REMARK    1  A    between atoms: C_2  and  C_4
REMARK    2  A    between atoms: C_2  and  C_6
REMARK    3  A    between atoms: C_8  and  C_9
REMARK    4  A    between atoms: C_9  and  N_10
REMARK    5  A    between atoms: C_16  and  C_17
REMARK    6  A    between atoms: C_17  and  C_20
REMARK                            x       y       z     vdW  Elec       q    Type
REMARK                         _______ _______ _______ _____ _____    ______ ____
ROOT
ATOM      1  C   UNL     1       1.374   5.990  -3.198  0.00  0.00    -0.010 A 
ATOM      2  C   UNL     1       0.122   6.445  -3.553  0.00  0.00    -0.007 A 
ATOM      3  C   UNL     1      -0.445   6.150  -4.787  0.00  0.00    -0.010 A 
ATOM      4  C   UNL     1       0.398   5.612  -5.747  0.00  0.00    -0.006 A 
ATOM      5  C   UNL     1       1.646   5.083  -5.439  0.00  0.00    +0.002 A 
ATOM      6  C   UNL     1       2.159   5.464  -4.212  0.00  0.00    -0.006 A 
ENDROOT
BRANCH   1   8
ATOM      7  C   UNL     1       1.656   7.041  -0.990  0.00  0.00    +0.020 C 
ATOM      8  C   UNL     1       1.677   5.725  -1.757  0.00  0.00    +0.098 C 
ATOM      9  C   UNL     1       0.591   4.861  -1.139  0.00  0.00    +0.020 C 
BRANCH   8  10
ATOM     10  C   UNL     1       2.945   5.050  -1.581  0.00  0.00    +0.075 C 
ATOM     11  N   UNL     1       3.894   4.452  -1.365  0.00  0.00    -0.196 NA
ENDBRANCH   8  10
ENDBRANCH   1   8
BRANCH   3  12
ATOM     12  C   UNL     1      -1.936   6.136  -4.946  0.00  0.00    +0.098 C 
ATOM     13  C   UNL     1      -2.453   7.570  -4.879  0.00  0.00    +0.020 C 
ATOM     14  C   UNL     1      -2.369   5.493  -6.228  0.00  0.00    +0.020 C 
BRANCH  12  15
ATOM     15  C   UNL     1      -2.458   5.445  -3.757  0.00  0.00    +0.075 C 
ATOM     16  N   UNL     1      -2.795   4.822  -2.838  0.00  0.00    -0.196 NA
ENDBRANCH  12  15
ENDBRANCH   3  12
BRANCH   5  17
ATOM     17  C   UNL     1       2.095   3.907  -6.204  0.00  0.00    +0.156 C 
BRANCH  17  18
ATOM     18  N   UNL     1       2.772   4.223  -7.431  0.00  0.00    -0.226 N 
ATOM     19  N   UNL     1       3.737   5.144  -7.452  0.00  0.00    -0.145 NA
ATOM     20  C   UNL     1       4.082   5.388  -8.716  0.00  0.00    +0.221 A 
ATOM     21  N   UNL     1       3.169   4.761  -9.467  0.00  0.00    -0.201 NA
ATOM     22  C   UNL     1       2.594   3.817  -8.687  0.00  0.00    +0.198 A 
ENDBRANCH  17  18
ENDBRANCH   5  17
TORSDOF 6
ENDMDL
MODEL 9
REMARK VINA RESULT:      -7.0      3.887      7.933
REMARK  Name = 
REMARK  6 active torsions:
REMARK  status: ('A' for Active; 'I' for Inactive)
REMARK    1  A    between atoms: C_2  and  C_4
REMARK    2  A    between atoms: C_2  and  C_6
REMARK    3  A    between atoms: C_8  and  C_9
REMARK    4  A    between atoms: C_9  and  N_10
REMARK    5  A    between atoms: C_16  and  C_17
REMARK    6  A    between atoms: C_17  and  C_20
REMARK                            x       y       z     vdW  Elec       q    Type
REMARK                         _______ _______ _______ _____ _____    ______ ____
ROOT
ATOM      1  C   UNL     1       0.256   6.804  -5.120  0.00  0.00    -0.010 A 
ATOM      2  C   UNL     1       0.655   6.940  -6.432  0.00  0.00    -0.007 A 
ATOM      3  C   UNL     1       1.933   6.593  -6.851  0.00  0.00    -0.010 A 
ATOM      4  C   UNL     1       2.872   6.360  -5.858  0.00  0.00    -0.006 A 
ATOM      5  C   UNL     1       2.525   6.156  -4.528  0.00  0.00    +0.002 A 
ATOM      6  C   UNL     1       1.251   6.572  -4.183  0.00  0.00    -0.006 A 
ENDROOT
BRANCH   1   8
ATOM      7  C   UNL     1      -1.926   7.851  -4.668  0.00  0.00    +0.020 C 
ATOM      8  C   UNL     1      -1.184   6.529  -4.815  0.00  0.00    +0.098 C 
ATOM      9  C   UNL     1      -1.841   5.806  -5.978  0.00  0.00    +0.020 C 
BRANCH   8  10
ATOM     10  C   UNL     1      -1.345   5.717  -3.628  0.00  0.00    +0.075 C 
ATOM     11  N   UNL     1      -1.584   5.099  -2.698  0.00  0.00    -0.196 NA
ENDBRANCH   8  10
ENDBRANCH   1   8
BRANCH   3  12
ATOM     12  C   UNL     1       2.177   6.202  -8.278  0.00  0.00    +0.098 C 
ATOM     13  C   UNL     1       0.879   6.362  -9.063  0.00  0.00    +0.020 C 
ATOM     14  C   UNL     1       3.266   7.010  -8.916  0.00  0.00    +0.020 C 
BRANCH  12  15
ATOM     15  C   UNL     1       2.476   4.761  -8.252  0.00  0.00    +0.075 C 
ATOM     16  N   UNL     1       2.629   3.613  -8.305  0.00  0.00    -0.196 NA
ENDBRANCH  12  15
ENDBRANCH   3  12
BRANCH   5  17
ATOM     17  C   UNL     1       3.327   5.193  -3.755  0.00  0.00    +0.156 C 
BRANCH  17  18
ATOM     18  N   UNL     1       3.576   5.587  -2.396  0.00  0.00    -0.226 N 
ATOM     19  N   UNL     1       4.252   6.705  -2.131  0.00  0.00    -0.145 NA
ATOM     20  C   UNL     1       4.512   6.761  -0.825  0.00  0.00    +0.221 A 
ATOM     21  N   UNL     1       4.170   5.562  -0.337  0.00  0.00    -0.201 NA
ATOM     22  C   UNL     1       3.322   4.999  -1.228  0.00  0.00    +0.198 A 
ENDBRANCH  17  18
ENDBRANCH   5  17
TORSDOF 6
ENDMDL
