MODEL 1
REMARK VINA RESULT:      -5.6      0.000      0.000
REMARK  Name = 
REMARK  2 active torsions:
REMARK  status: ('A' for Active; 'I' for Inactive)
REMARK    1  A    between atoms: C_2  and  C_4
REMARK    2  A    between atoms: C_4  and  C_5
REMARK                            x       y       z     vdW  Elec       q    Type
REMARK                         _______ _______ _______ _____ _____    ______ ____
ROOT
ATOM      1  C   UNL     1       6.292   6.690 -10.636  0.00  0.00    -0.021 A 
ATOM      2  C   UNL     1       6.645   5.918  -9.533  0.00  0.00    -0.004 A 
ATOM      3  C   UNL     1       5.687   5.314  -8.722  0.00  0.00    -0.000 A 
ATOM      4  C   UNL     1       4.410   5.235  -9.278  0.00  0.00    -0.000 A 
ATOM      5  C   UNL     1       4.026   6.445  -9.854  0.00  0.00    -0.000 A 
ATOM      6  C   UNL     1       4.976   7.127 -10.608  0.00  0.00    -0.004 A 
ENDROOT
BRANCH   1   7
ATOM      7  C   UNL     1       7.105   6.675 -11.897  0.00  0.00    +0.045 C 
BRANCH   7   9
ATOM      8  C   UNL     1       9.307   5.875 -12.281  0.00  0.00    +0.021 C 
ATOM      9  C   UNL     1       7.868   5.221 -11.845  0.00  0.00    +0.096 C 
ATOM     10  N   UNL     1       7.487   4.896 -13.336  0.00  0.00    -0.133 NA
ENDBRANCH   7   9
ENDBRANCH   1   7
TORSDOF 2
ENDMDL
MODEL 2
REMARK VINA RESULT:      -5.2      8.590     10.829
REMARK  Name = 
REMARK  2 active torsions:
REMARK  status: ('A' for Active; 'I' for Inactive)
REMARK    1  A    between atoms: C_2  and  C_4
REMARK    2  A    between atoms: C_4  and  C_5
REMARK                            x       y       z     vdW  Elec       q    Type
REMARK                         _______ _______ _______ _____ _____    ______ ____
ROOT
ATOM      1  C   UNL     1      -1.420   6.744  -4.956  0.00  0.00    -0.021 A 
ATOM      2  C   UNL     1      -2.099   6.005  -5.921  0.00  0.00    -0.004 A 
ATOM      3  C   UNL     1      -1.427   5.355  -6.954  0.00  0.00    -0.000 A 
ATOM      4  C   UNL     1      -0.055   5.194  -6.755  0.00  0.00    -0.000 A 
ATOM      5  C   UNL     1       0.539   6.374  -6.308  0.00  0.00    -0.000 A 
ATOM      6  C   UNL     1      -0.135   7.103  -5.333  0.00  0.00    -0.004 A 
ENDROOT
BRANCH   1   7
ATOM      7  C   UNL     1      -1.870   6.764  -3.524  0.00  0.00    +0.045 C 
BRANCH   7   9
ATOM      8  C   UNL     1      -4.013   6.494  -2.539  0.00  0.00    +0.021 C 
ATOM      9  C   UNL     1      -3.010   5.583  -3.463  0.00  0.00    +0.096 C 
ATOM     10  N   UNL     1      -2.344   4.917  -2.204  0.00  0.00    -0.133 NA
ENDBRANCH   7   9
ENDBRANCH   1   7
TORSDOF 2
ENDMDL
MODEL 3
REMARK VINA RESULT:      -5.1      2.567      4.418
REMARK  Name = 
REMARK  2 active torsions:
REMARK  status: ('A' for Active; 'I' for Inactive)
REMARK    1  A    between atoms: C_2  and  C_4
REMARK    2  A    between atoms: C_4  and  C_5
REMARK                            x       y       z     vdW  Elec       q    Type
REMARK                         _______ _______ _______ _____ _____    ______ ____
ROOT
ATOM      1  C   UNL     1       5.806   5.694  -9.526  0.00  0.00    -0.021 A 
ATOM      2  C   UNL     1       7.176   5.731  -9.771  0.00  0.00    -0.004 A 
ATOM      3  C   UNL     1       7.749   6.702 -10.589  0.00  0.00    -0.000 A 
ATOM      4  C   UNL     1       6.942   7.812 -10.841  0.00  0.00    -0.000 A 
ATOM      5  C   UNL     1       5.645   7.434 -11.185  0.00  0.00    -0.000 A 
ATOM      6  C   UNL     1       5.057   6.409 -10.449  0.00  0.00    -0.004 A 
ENDROOT
BRANCH   1   7
ATOM      7  C   UNL     1       5.259   5.299  -8.185  0.00  0.00    +0.045 C 
BRANCH   7   9
ATOM      8  C   UNL     1       3.767   6.210  -6.579  0.00  0.00    +0.021 C 
ATOM      9  C   UNL     1       3.738   5.919  -8.193  0.00  0.00    +0.096 C 
ATOM     10  N   UNL     1       3.091   4.499  -7.993  0.00  0.00    -0.133 NA
ENDBRANCH   7   9
ENDBRANCH   1   7
TORSDOF 2
ENDMDL
MODEL 4
REMARK VINA RESULT:      -5.0      2.489      4.565
REMARK  Name = 
REMARK  2 active torsions:
REMARK  status: ('A' for Active; 'I' for Inactive)
REMARK    1  A    between atoms: C_2  and  C_4
REMARK    2  A    between atoms: C_4  and  C_5
REMARK                            x       y       z     vdW  Elec       q    Type
REMARK                         _______ _______ _______ _____ _____    ______ ____
ROOT
ATOM      1  C   UNL     1       5.110   6.157  -9.998  0.00  0.00    -0.021 A 
ATOM      2  C   UNL     1       5.185   7.311 -10.773  0.00  0.00    -0.004 A 
ATOM      3  C   UNL     1       6.402   7.809 -11.233  0.00  0.00    -0.000 A 
ATOM      4  C   UNL     1       7.466   6.908 -11.177  0.00  0.00    -0.000 A 
ATOM      5  C   UNL     1       7.517   6.251  -9.948  0.00  0.00    -0.000 A 
ATOM      6  C   UNL     1       6.315   5.806  -9.407  0.00  0.00    -0.004 A 
ENDROOT
BRANCH   1   7
ATOM      7  C   UNL     1       3.978   5.183 -10.148  0.00  0.00    +0.045 C 
BRANCH   7   9
ATOM      8  C   UNL     1       2.770   3.841  -8.607  0.00  0.00    +0.021 C 
ATOM      9  C   UNL     1       3.068   5.441  -8.804  0.00  0.00    +0.096 C 
ATOM     10  N   UNL     1       1.761   5.649  -9.653  0.00  0.00    -0.133 NA
ENDBRANCH   7   9
ENDBRANCH   1   7
TORSDOF 2
ENDMDL
MODEL 5
REMARK VINA RESULT:      -4.8      6.105      7.818
REMARK  Name = 
REMARK  2 active torsions:
REMARK  status: ('A' for Active; 'I' for Inactive)
REMARK    1  A    between atoms: C_2  and  C_4
REMARK    2  A    between atoms: C_4  and  C_5
REMARK                            x       y       z     vdW  Elec       q    Type
REMARK                         _______ _______ _______ _____ _____    ______ ____
ROOT
ATOM      1  C   UNL     1       0.285   6.230  -5.737  0.00  0.00    -0.021 A 
ATOM      2  C   UNL     1      -0.321   5.388  -6.666  0.00  0.00    -0.004 A 
ATOM      3  C   UNL     1      -1.706   5.251  -6.739  0.00  0.00    -0.000 A 
ATOM      4  C   UNL     1      -2.432   6.251  -6.091  0.00  0.00    -0.000 A 
ATOM      5  C   UNL     1      -1.925   6.509  -4.818  0.00  0.00    -0.000 A 
ATOM      6  C   UNL     1      -0.542   6.574  -4.678  0.00  0.00    -0.004 A 
ENDROOT
BRANCH   1   7
ATOM      7  C   UNL     1       1.521   7.011  -6.075  0.00  0.00    +0.045 C 
BRANCH   7   9
ATOM      8  C   UNL     1       3.272   6.238  -7.478  0.00  0.00    +0.021 C 
ATOM      9  C   UNL     1       1.722   6.734  -7.682  0.00  0.00    +0.096 C 
ATOM     10  N   UNL     1       2.161   8.220  -7.948  0.00  0.00    -0.133 NA
ENDBRANCH   7   9
ENDBRANCH   1   7
TORSDOF 2
ENDMDL
MODEL 6
REMARK VINA RESULT:      -4.8      8.738      9.919
REMARK  Name = 
REMARK  2 active torsions:
REMARK  status: ('A' for Active; 'I' for Inactive)
REMARK    1  A    between atoms: C_2  and  C_4
REMARK    2  A    between atoms: C_4  and  C_5
REMARK                            x       y       z     vdW  Elec       q    Type
REMARK                         _______ _______ _______ _____ _____    ______ ____
ROOT
ATOM      1  C   UNL     1      -0.094   5.893  -4.974  0.00  0.00    -0.021 A 
ATOM      2  C   UNL     1      -1.169   6.728  -4.683  0.00  0.00    -0.004 A 
ATOM      3  C   UNL     1      -2.339   6.711  -5.439  0.00  0.00    -0.000 A 
ATOM      4  C   UNL     1      -2.498   5.588  -6.251  0.00  0.00    -0.000 A 
ATOM      5  C   UNL     1      -1.331   5.293  -6.953  0.00  0.00    -0.000 A 
ATOM      6  C   UNL     1      -0.127   5.375  -6.261  0.00  0.00    -0.004 A 
ENDROOT
BRANCH   1   7
ATOM      7  C   UNL     1       0.745   5.286  -3.888  0.00  0.00    +0.045 C 
BRANCH   7   9
ATOM      8  C   UNL     1       1.770   6.274  -1.988  0.00  0.00    +0.021 C 
ATOM      9  C   UNL     1       0.237   6.062  -2.532  0.00  0.00    +0.096 C 
ATOM     10  N   UNL     1       0.072   4.711  -1.744  0.00  0.00    -0.133 NA
ENDBRANCH   7   9
ENDBRANCH   1   7
TORSDOF 2
ENDMDL
MODEL 7
REMARK VINA RESULT:      -4.7      6.543      8.322
REMARK  Name = 
REMARK  2 active torsions:
REMARK  status: ('A' for Active; 'I' for Inactive)
REMARK    1  A    between atoms: C_2  and  C_4
REMARK    2  A    between atoms: C_4  and  C_5
REMARK                            x       y       z     vdW  Elec       q    Type
REMARK                         _______ _______ _______ _____ _____    ______ ____
ROOT
ATOM      1  C   UNL     1      -0.080   5.817  -5.878  0.00  0.00    -0.021 A 
ATOM      2  C   UNL     1      -0.186   7.019  -5.184  0.00  0.00    -0.004 A 
ATOM      3  C   UNL     1      -1.423   7.584  -4.879  0.00  0.00    -0.000 A 
ATOM      4  C   UNL     1      -2.510   6.716  -4.988  0.00  0.00    -0.000 A 
ATOM      5  C   UNL     1      -2.465   5.986  -6.174  0.00  0.00    -0.000 A 
ATOM      6  C   UNL     1      -1.233   5.469  -6.565  0.00  0.00    -0.004 A 
ENDROOT
BRANCH   1   7
ATOM      7  C   UNL     1       0.994   4.819  -5.557  0.00  0.00    +0.045 C 
BRANCH   7   9
ATOM      8  C   UNL     1       2.685   5.429  -7.106  0.00  0.00    +0.021 C 
ATOM      9  C   UNL     1       2.364   5.725  -5.525  0.00  0.00    +0.096 C 
ATOM     10  N   UNL     1       3.235   4.505  -5.050  0.00  0.00    -0.133 NA
ENDBRANCH   7   9
ENDBRANCH   1   7
TORSDOF 2
ENDMDL
MODEL 8
REMARK VINA RESULT:      -4.7      8.258     10.075
REMARK  Name = 
REMARK  2 active torsions:
REMARK  status: ('A' for Active; 'I' for Inactive)
REMARK    1  A    between atoms: C_2  and  C_4
REMARK    2  A    between atoms: C_4  and  C_5
REMARK                            x       y       z     vdW  Elec       q    Type
REMARK                         _______ _______ _______ _____ _____    ______ ____
ROOT
ATOM      1  C   UNL     1      -1.699   6.760  -4.649  0.00  0.00    -0.021 A 
ATOM      2  C   UNL     1      -1.917   7.578  -3.544  0.00  0.00    -0.004 A 
ATOM      3  C   UNL     1      -2.618   7.131  -2.426  0.00  0.00    -0.000 A 
ATOM      4  C   UNL     1      -2.763   5.746  -2.337  0.00  0.00    -0.000 A 
ATOM      5  C   UNL     1      -3.166   5.195  -3.553  0.00  0.00    -0.000 A 
ATOM      6  C   UNL     1      -2.552   5.669  -4.708  0.00  0.00    -0.004 A 
ENDROOT
BRANCH   1   7
ATOM      7  C   UNL     1      -0.416   6.818  -5.426  0.00  0.00    +0.045 C 
BRANCH   7   9
ATOM      8  C   UNL     1       1.037   4.978  -5.055  0.00  0.00    +0.021 C 
ATOM      9  C   UNL     1      -0.255   5.293  -6.015  0.00  0.00    +0.096 C 
ATOM     10  N   UNL     1       0.658   5.778  -7.199  0.00  0.00    -0.133 NA
ENDBRANCH   7   9
ENDBRANCH   1   7
TORSDOF 2
ENDMDL
MODEL 9
REMARK VINA RESULT:      -4.6      5.437      6.871
REMARK  Name = 
REMARK  2 active torsions:
REMARK  status: ('A' for Active; 'I' for Inactive)
REMARK    1  A    between atoms: C_2  and  C_4
REMARK    2  A    between atoms: C_4  and  C_5
REMARK                            x       y       z     vdW  Elec       q    Type
REMARK                         _______ _______ _______ _____ _____    ______ ____
ROOT
ATOM      1  C   UNL     1       4.419   6.319  -5.510  0.00  0.00    -0.021 A 
ATOM      2  C   UNL     1       4.441   5.125  -4.796  0.00  0.00    -0.004 A 
ATOM      3  C   UNL     1       4.422   5.102  -3.403  0.00  0.00    -0.000 A 
ATOM      4  C   UNL     1       4.023   6.295  -2.800  0.00  0.00    -0.000 A 
ATOM      5  C   UNL     1       4.663   7.395  -3.369  0.00  0.00    -0.000 A 
ATOM      6  C   UNL     1       4.780   7.424  -4.755  0.00  0.00    -0.004 A 
ENDROOT
BRANCH   1   7
ATOM      7  C   UNL     1       3.672   6.443  -6.806  0.00  0.00    +0.045 C 
BRANCH   7   9
ATOM      8  C   UNL     1       1.370   5.921  -7.061  0.00  0.00    +0.021 C 
ATOM      9  C   UNL     1       2.242   7.121  -6.362  0.00  0.00    +0.096 C 
ATOM     10  N   UNL     1       2.188   8.008  -7.660  0.00  0.00    -0.133 NA
ENDBRANCH   7   9
ENDBRANCH   1   7
TORSDOF 2
ENDMDL
