MODEL 1
REMARK VINA RESULT:      48.7      0.000      0.000
REMARK  Name = 
REMARK  3 active torsions:
REMARK  status: ('A' for Active; 'I' for Inactive)
REMARK    1  A    between atoms: C_17  and  O_18
REMARK    2  A    between atoms: O_18  and  C_19
REMARK    3  A    between atoms: C_32  and  C_33
REMARK                            x       y       z     vdW  Elec       q    Type
REMARK                         _______ _______ _______ _____ _____    ______ ____
ROOT
ATOM      1  C   UNL     1      -0.418   6.078  -4.134  0.00  0.00    +0.007 C 
ATOM      2  C   UNL     1       0.944   6.629  -4.821  0.00  0.00    +0.053 C 
ATOM      3  C   UNL     1       1.149   5.215  -5.751  0.00  0.00    +0.159 C 
ATOM      4  O   UNL     1       1.149   4.343  -4.528  0.00  0.00    -0.223 OA
ATOM      5  C   UNL     1       2.837   5.330  -5.695  0.00  0.00    +0.071 C 
ATOM      6  C   UNL     1       3.008   3.755  -5.962  0.00  0.00    +0.006 C 
ATOM      7  C   UNL     1       2.890   5.927  -7.286  0.00  0.00    +0.171 C 
ATOM      8  C   UNL     1       4.461   6.363  -7.106  0.00  0.00    +0.047 C 
ATOM      9  O   UNL     1       3.270   4.621  -7.990  0.00  0.00    -0.452 OA
ATOM     10  C   UNL     1       2.975   4.515  -9.320  0.00  0.00    +0.319 C 
ATOM     11  O   UNL     1       1.938   4.005  -9.830  0.00  0.00    -0.250 OA
ATOM     12  C   UNL     1       3.607   5.620 -10.054  0.00  0.00    +0.142 C 
ATOM     13  C   UNL     1       5.202   5.219 -10.111  0.00  0.00    +0.166 C 
ATOM     14  O   UNL     1       4.913   3.887 -10.779  0.00  0.00    -0.222 OA
ATOM     15  C   UNL     1       5.434   6.026 -11.523  0.00  0.00    +0.066 C 
ATOM     16  C   UNL     1       4.270   5.386 -12.488  0.00  0.00    +0.157 C 
ATOM     17  O   UNL     1       3.330   6.549 -12.229  0.00  0.00    -0.223 OA
ATOM     18  C   UNL     1       4.907   6.134 -13.811  0.00  0.00    +0.066 C 
ATOM     19  C   UNL     1       3.567   5.991 -14.758  0.00  0.00    +0.155 C 
ATOM     20  O   UNL     1       3.029   7.331 -14.297  0.00  0.00    -0.223 OA
ATOM     21  C   UNL     1       4.349   6.673 -16.038  0.00  0.00    +0.036 C 
ATOM     22  C   UNL     1       3.324   7.553 -16.681  0.00  0.00    +0.038 C 
ATOM     23  C   UNL     1       3.681   9.008 -16.025  0.00  0.00    +0.183 C 
ATOM     24  O   UNL     1       4.852   9.177 -16.961  0.00  0.00    -0.220 OA
ATOM     25  C   UNL     1       2.696   9.988 -17.038  0.00  0.00    +0.189 C 
ATOM     26  O   UNL     1       1.886   8.902 -17.684  0.00  0.00    -0.220 OA
ATOM     27  C   UNL     1       1.566  10.176 -15.860  0.00  0.00    +0.100 C 
ATOM     28  C   UNL     1       1.223  11.603 -15.872  0.00  0.00    +0.156 C 
ATOM     29  O   UNL     1       2.099  12.347 -16.319  0.00  0.00    -0.296 OA
ATOM     30  C   UNL     1      -0.090  12.199 -16.200  0.00  0.00    +0.098 C 
ATOM     31  C   UNL     1       0.025  13.614 -15.373  0.00  0.00    +0.172 C 
ATOM     32  O   UNL     1       0.564  14.363 -16.569  0.00  0.00    -0.222 OA
ATOM     33  C   UNL     1      -1.614  14.057 -15.613  0.00  0.00    +0.164 C 
ATOM     34  C   UNL     1      -2.243  12.507 -15.262  0.00  0.00    +0.168 C 
ATOM     35  O   UNL     1      -1.475  12.417 -13.967  0.00  0.00    -0.222 OA
ATOM     36  C   UNL     1      -3.628  13.030 -14.570  0.00  0.00    +0.068 C 
ATOM     37  C   UNL     1      -3.151  14.060 -13.388  0.00  0.00    +0.142 C 
ATOM     38  C   UNL     1      -3.254  12.922 -12.233  0.00  0.00    +0.003 C 
ATOM     39  C   UNL     1      -2.419  13.002 -11.255  0.00  0.00    -0.002 C 
ATOM     40  C   UNL     1      -2.448  13.766 -10.054  0.00  0.00    -0.000 C 
ATOM     41  C   UNL     1      -3.650  14.252  -9.731  0.00  0.00    -0.000 C 
ATOM     42  C   UNL     1      -4.279  13.713  -8.512  0.00  0.00    -0.000 C 
ATOM     43  C   UNL     1      -3.912  12.452  -8.263  0.00  0.00    -0.000 C 
ATOM     44  C   UNL     1      -2.860  12.525  -7.232  0.00  0.00    -0.005 C 
ATOM     45  C   UNL     1      -3.456  12.489  -6.038  0.00  0.00    -0.026 C 
ATOM     46  C   UNL     1      -3.423  11.144  -5.379  0.00  0.00    +0.031 C 
ATOM     47  C   UNL     1      -2.242  10.416  -5.952  0.00  0.00    +0.031 C 
ATOM     48  C   UNL     1      -1.705   9.521  -4.952  0.00  0.00    -0.026 C 
ATOM     49  C   UNL     1      -1.407   8.336  -4.866  0.00  0.00    -0.005 C 
ATOM     50  C   UNL     1      -0.422   8.371  -5.977  0.00  0.00    -0.005 C 
ATOM     51  C   UNL     1       0.137   7.335  -5.988  0.00  0.00    -0.024 C 
ENDROOT
BRANCH  33  52
ATOM     52  C   UNL     1      -1.645  13.894 -17.176  0.00  0.00    +0.369 C 
ATOM     53  O   UNL     1      -1.507  15.096 -17.863  0.00  0.00    -0.245 OA
ATOM     54  O   UNL     1      -1.907  12.872 -17.762  0.00  0.00    -0.245 OA
ENDBRANCH  33  52
BRANCH  37  55
ATOM     55  O   UNL     1      -4.592  14.437 -13.101  0.00  0.00    -0.327 OA
BRANCH  55  56
ATOM     56  C   UNL     1      -5.099  14.815 -14.486  0.00  0.00    +0.268 C 
ATOM     57  C   UNL     1      -6.629  15.349 -13.908  0.00  0.00    +0.228 C 
ATOM     58  O   UNL     1      -6.134  16.088 -12.692  0.00  0.00    -0.216 OA
ATOM     59  C   UNL     1      -6.877  16.761 -14.820  0.00  0.00    +0.160 C 
ATOM     60  N   UNL     1      -5.814  17.750 -14.251  0.00  0.00    -0.127 NA
ATOM     61  C   UNL     1      -6.149  16.394 -16.304  0.00  0.00    +0.199 C 
ATOM     62  O   UNL     1      -6.669  14.977 -16.308  0.00  0.00    -0.219 OA
ATOM     63  C   UNL     1      -4.550  15.939 -15.940  0.00  0.00    +0.150 C 
ATOM     64  C   UNL     1      -3.988  17.437 -16.317  0.00  0.00    +0.035 C 
ATOM     65  O   UNL     1      -4.501  16.208 -14.462  0.00  0.00    -0.328 OA
ENDBRANCH  55  56
ENDBRANCH  37  55
TORSDOF 3
ENDMDL
MODEL 2
REMARK VINA RESULT:      51.6      3.426     10.936
REMARK  Name = 
REMARK  3 active torsions:
REMARK  status: ('A' for Active; 'I' for Inactive)
REMARK    1  A    between atoms: C_17  and  O_18
REMARK    2  A    between atoms: O_18  and  C_19
REMARK    3  A    between atoms: C_32  and  C_33
REMARK                            x       y       z     vdW  Elec       q    Type
REMARK                         _______ _______ _______ _____ _____    ______ ____
ROOT
ATOM      1  C   UNL     1      -2.262  15.820  -6.627  0.00  0.00    +0.007 C 
ATOM      2  C   UNL     1      -3.145  15.314  -7.892  0.00  0.00    +0.053 C 
ATOM      3  C   UNL     1      -2.196  16.185  -9.010  0.00  0.00    +0.159 C 
ATOM      4  O   UNL     1      -2.456  17.485  -8.303  0.00  0.00    -0.223 OA
ATOM      5  C   UNL     1      -3.516  16.455 -10.036  0.00  0.00    +0.071 C 
ATOM      6  C   UNL     1      -2.820  17.749 -10.682  0.00  0.00    +0.006 C 
ATOM      7  C   UNL     1      -2.985  15.245 -11.105  0.00  0.00    +0.171 C 
ATOM      8  C   UNL     1      -4.422  15.264 -11.895  0.00  0.00    +0.047 C 
ATOM      9  O   UNL     1      -2.330  16.155 -12.148  0.00  0.00    -0.452 OA
ATOM     10  C   UNL     1      -1.374  15.603 -12.953  0.00  0.00    +0.319 C 
ATOM     11  O   UNL     1      -0.125  15.613 -12.765  0.00  0.00    -0.250 OA
ATOM     12  C   UNL     1      -1.934  14.444 -13.660  0.00  0.00    +0.142 C 
ATOM     13  C   UNL     1      -2.903  15.096 -14.820  0.00  0.00    +0.166 C 
ATOM     14  O   UNL     1      -1.765  15.909 -15.409  0.00  0.00    -0.222 OA
ATOM     15  C   UNL     1      -2.687  13.818 -15.828  0.00  0.00    +0.066 C 
ATOM     16  C   UNL     1      -1.051  13.715 -15.920  0.00  0.00    +0.157 C 
ATOM     17  O   UNL     1      -1.000  12.620 -14.872  0.00  0.00    -0.223 OA
ATOM     18  C   UNL     1      -1.153  12.611 -17.138  0.00  0.00    +0.066 C 
ATOM     19  C   UNL     1       0.387  12.046 -16.996  0.00  0.00    +0.155 C 
ATOM     20  O   UNL     1      -0.039  10.966 -16.021  0.00  0.00    -0.223 OA
ATOM     21  C   UNL     1       0.185  11.047 -18.290  0.00  0.00    +0.036 C 
ATOM     22  C   UNL     1       0.891   9.785 -17.907  0.00  0.00    +0.038 C 
ATOM     23  C   UNL     1      -0.344   8.873 -17.344  0.00  0.00    +0.183 C 
ATOM     24  O   UNL     1      -0.790   8.554 -18.750  0.00  0.00    -0.220 OA
ATOM     25  C   UNL     1       0.483   7.369 -17.237  0.00  0.00    +0.189 C 
ATOM     26  O   UNL     1       1.886   7.871 -17.421  0.00  0.00    -0.220 OA
ATOM     27  C   UNL     1       0.617   7.491 -15.604  0.00  0.00    +0.100 C 
ATOM     28  C   UNL     1       0.257   6.168 -15.083  0.00  0.00    +0.156 C 
ATOM     29  O   UNL     1      -0.477   5.500 -15.816  0.00  0.00    -0.296 OA
ATOM     30  C   UNL     1       1.134   5.233 -14.345  0.00  0.00    +0.098 C 
ATOM     31  C   UNL     1       0.005   4.383 -13.509  0.00  0.00    +0.172 C 
ATOM     32  O   UNL     1      -0.092   3.312 -14.570  0.00  0.00    -0.222 OA
ATOM     33  C   UNL     1       1.142   3.554 -12.529  0.00  0.00    +0.164 C 
ATOM     34  C   UNL     1       2.094   4.935 -12.200  0.00  0.00    +0.168 C 
ATOM     35  O   UNL     1       0.893   5.740 -11.769  0.00  0.00    -0.222 OA
ATOM     36  C   UNL     1       2.524   4.498 -10.685  0.00  0.00    +0.068 C 
ATOM     37  C   UNL     1       1.110   4.213  -9.907  0.00  0.00    +0.142 C 
ATOM     38  C   UNL     1       1.078   5.695  -9.240  0.00  0.00    +0.003 C 
ATOM     39  C   UNL     1      -0.081   6.226  -9.048  0.00  0.00    -0.002 C 
ATOM     40  C   UNL     1      -1.018   6.078  -7.986  0.00  0.00    -0.000 C 
ATOM     41  C   UNL     1      -0.513   5.550  -6.866  0.00  0.00    -0.000 C 
ATOM     42  C   UNL     1      -0.453   6.427  -5.685  0.00  0.00    -0.000 C 
ATOM     43  C   UNL     1      -0.306   7.715  -6.012  0.00  0.00    -0.000 C 
ATOM     44  C   UNL     1      -1.648   8.319  -5.923  0.00  0.00    -0.005 C 
ATOM     45  C   UNL     1      -1.817   8.752  -4.671  0.00  0.00    -0.026 C 
ATOM     46  C   UNL     1      -1.602  10.225  -4.501  0.00  0.00    +0.031 C 
ATOM     47  C   UNL     1      -1.855  10.853  -5.841  0.00  0.00    +0.031 C 
ATOM     48  C   UNL     1      -2.383  12.184  -5.650  0.00  0.00    -0.026 C 
ATOM     49  C   UNL     1      -2.133  13.320  -6.035  0.00  0.00    -0.005 C 
ATOM     50  C   UNL     1      -2.292  13.003  -7.478  0.00  0.00    -0.005 C 
ATOM     51  C   UNL     1      -2.249  14.019  -8.071  0.00  0.00    -0.024 C 
ENDROOT
BRANCH  33  52
ATOM     52  C   UNL     1       2.051   3.004 -13.688  0.00  0.00    +0.369 C 
ATOM     53  O   UNL     1       1.796   1.675 -14.011  0.00  0.00    -0.245 OA
ATOM     54  O   UNL     1       2.986   3.592 -14.174  0.00  0.00    -0.245 OA
ENDBRANCH  33  52
BRANCH  37  55
ATOM     55  O   UNL     1       1.856   3.715  -8.683  0.00  0.00    -0.327 OA
BRANCH  55  56
ATOM     56  C   UNL     1       2.638   4.953  -8.267  0.00  0.00    +0.268 C 
ATOM     57  C   UNL     1       2.189   4.822  -6.611  0.00  0.00    +0.228 C 
ATOM     58  O   UNL     1       2.359   3.332  -6.476  0.00  0.00    -0.216 OA
ATOM     59  C   UNL     1       3.647   5.188  -5.820  0.00  0.00    +0.160 C 
ATOM     60  N   UNL     1       4.548   3.956  -6.136  0.00  0.00    -0.127 NA
ATOM     61  C   UNL     1       4.366   6.329  -6.844  0.00  0.00    +0.199 C 
ATOM     62  O   UNL     1       3.059   7.032  -7.121  0.00  0.00    -0.219 OA
ATOM     63  C   UNL     1       4.442   5.597  -8.379  0.00  0.00    +0.150 C 
ATOM     64  C   UNL     1       6.014   5.176  -8.153  0.00  0.00    +0.035 C 
ATOM     65  O   UNL     1       3.946   4.213  -8.065  0.00  0.00    -0.328 OA
ENDBRANCH  55  56
ENDBRANCH  37  55
TORSDOF 3
ENDMDL
MODEL 3
REMARK VINA RESULT:      51.6      9.592     15.483
REMARK  Name = 
REMARK  3 active torsions:
REMARK  status: ('A' for Active; 'I' for Inactive)
REMARK    1  A    between atoms: C_17  and  O_18
REMARK    2  A    between atoms: O_18  and  C_19
REMARK    3  A    between atoms: C_32  and  C_33
REMARK                            x       y       z     vdW  Elec       q    Type
REMARK                         _______ _______ _______ _____ _____    ______ ____
ROOT
ATOM      1  C   UNL     1       5.729   4.901  -9.974  0.00  0.00    +0.007 C 
ATOM      2  C   UNL     1       4.373   5.629  -9.462  0.00  0.00    +0.053 C 
ATOM      3  C   UNL     1       4.047   4.407  -8.319  0.00  0.00    +0.159 C 
ATOM      4  O   UNL     1       4.048   3.340  -9.376  0.00  0.00    -0.223 OA
ATOM      5  C   UNL     1       2.372   4.595  -8.481  0.00  0.00    +0.071 C 
ATOM      6  C   UNL     1       2.098   3.100  -7.962  0.00  0.00    +0.006 C 
ATOM      7  C   UNL     1       2.286   5.457  -7.018  0.00  0.00    +0.171 C 
ATOM      8  C   UNL     1       0.752   5.934  -7.350  0.00  0.00    +0.047 C 
ATOM      9  O   UNL     1       1.800   4.312  -6.125  0.00  0.00    -0.452 OA
ATOM     10  C   UNL     1       2.032   4.420  -4.783  0.00  0.00    +0.319 C 
ATOM     11  O   UNL     1       3.015   3.954  -4.141  0.00  0.00    -0.250 OA
ATOM     12  C   UNL     1       1.435   5.664  -4.279  0.00  0.00    +0.142 C 
ATOM     13  C   UNL     1      -0.182   5.360  -4.238  0.00  0.00    +0.166 C 
ATOM     14  O   UNL     1      -0.000   4.148  -3.342  0.00  0.00    -0.222 OA
ATOM     15  C   UNL     1      -0.427   6.406  -2.996  0.00  0.00    +0.066 C 
ATOM     16  C   UNL     1       0.656   5.884  -1.878  0.00  0.00    +0.157 C 
ATOM     17  O   UNL     1       1.671   6.936  -2.280  0.00  0.00    -0.223 OA
ATOM     18  C   UNL     1       0.007   6.877  -0.735  0.00  0.00    +0.066 C 
ATOM     19  C   UNL     1       1.295   6.831   0.291  0.00  0.00    +0.155 C 
ATOM     20  O   UNL     1       1.929   8.044  -0.361  0.00  0.00    -0.223 OA
ATOM     21  C   UNL     1       0.500   7.760   1.396  0.00  0.00    +0.036 C 
ATOM     22  C   UNL     1       1.546   8.685   1.933  0.00  0.00    +0.038 C 
ATOM     23  C   UNL     1       1.303  10.022   1.024  0.00  0.00    +0.183 C 
ATOM     24  O   UNL     1       0.104  10.408   1.856  0.00  0.00    -0.220 OA
ATOM     25  C   UNL     1       2.299  11.111   1.908  0.00  0.00    +0.189 C 
ATOM     26  O   UNL     1       3.015  10.111   2.769  0.00  0.00    -0.220 OA
ATOM     27  C   UNL     1       3.487  11.037   0.775  0.00  0.00    +0.100 C 
ATOM     28  C   UNL     1       3.911  12.426   0.565  0.00  0.00    +0.156 C 
ATOM     29  O   UNL     1       3.062  13.279   0.834  0.00  0.00    -0.296 OA
ATOM     30  C   UNL     1       5.242  13.003   0.856  0.00  0.00    +0.098 C 
ATOM     31  C   UNL     1       5.245  14.259  -0.202  0.00  0.00    +0.172 C 
ATOM     32  O   UNL     1       4.700  15.228   0.821  0.00  0.00    -0.222 OA
ATOM     33  C   UNL     1       6.895  14.655   0.045  0.00  0.00    +0.164 C 
ATOM     34  C   UNL     1       7.447  13.038  -0.007  0.00  0.00    +0.168 C 
ATOM     35  O   UNL     1       6.731  12.766  -1.307  0.00  0.00    -0.222 OA
ATOM     36  C   UNL     1       8.889  13.365  -0.704  0.00  0.00    +0.068 C 
ATOM     37  C   UNL     1       8.523  14.201  -2.066  0.00  0.00    +0.142 C 
ATOM     38  C   UNL     1       8.610  12.878  -3.006  0.00  0.00    +0.003 C 
ATOM     39  C   UNL     1       7.823  12.831  -4.026  0.00  0.00    -0.002 C 
ATOM     40  C   UNL     1       7.948  13.377  -5.334  0.00  0.00    -0.000 C 
ATOM     41  C   UNL     1       9.189  13.739  -5.672  0.00  0.00    -0.000 C 
ATOM     42  C   UNL     1       9.837  12.969  -6.748  0.00  0.00    -0.000 C 
ATOM     43  C   UNL     1       9.408  11.704  -6.801  0.00  0.00    -0.000 C 
ATOM     44  C   UNL     1       8.407  11.653  -7.882  0.00  0.00    -0.005 C 
ATOM     45  C   UNL     1       9.051  11.384  -9.020  0.00  0.00    -0.026 C 
ATOM     46  C   UNL     1       8.968   9.949  -9.444  0.00  0.00    +0.031 C 
ATOM     47  C   UNL     1       7.723   9.389  -8.820  0.00  0.00    +0.031 C 
ATOM     48  C   UNL     1       7.178   8.365  -9.681  0.00  0.00    -0.026 C 
ATOM     49  C   UNL     1       6.816   7.199  -9.582  0.00  0.00    -0.005 C 
ATOM     50  C   UNL     1       5.788   7.473  -8.545  0.00  0.00    -0.005 C 
ATOM     51  C   UNL     1       5.169   6.483  -8.389  0.00  0.00    -0.024 C 
ENDROOT
BRANCH  33  52
ATOM     52  C   UNL     1       6.850  14.760   1.612  0.00  0.00    +0.369 C 
ATOM     53  O   UNL     1       6.725  16.064   2.079  0.00  0.00    -0.245 OA
ATOM     54  O   UNL     1       7.047  13.845   2.375  0.00  0.00    -0.245 OA
ENDBRANCH  33  52
BRANCH  37  55
ATOM     55  O   UNL     1       9.995  14.450  -2.337  0.00  0.00    -0.327 OA
BRANCH  55  56
ATOM     56  C   UNL     1      10.413  15.232  -1.099  0.00  0.00    +0.268 C 
ATOM     57  C   UNL     1      11.273  13.910  -0.412  0.00  0.00    +0.228 C 
ATOM     58  O   UNL     1      11.942  13.431  -1.673  0.00  0.00    -0.216 OA
ATOM     59  C   UNL     1      12.668  14.671   0.189  0.00  0.00    +0.160 C 
ATOM     60  N   UNL     1      13.440  15.081  -1.102  0.00  0.00    -0.127 NA
ATOM     61  C   UNL     1      12.101  16.192   0.671  0.00  0.00    +0.199 C 
ATOM     62  O   UNL     1      10.822  15.631   1.243  0.00  0.00    -0.219 OA
ATOM     63  C   UNL     1      11.343  16.862  -0.698  0.00  0.00    +0.150 C 
ATOM     64  C   UNL     1      12.677  17.750  -1.062  0.00  0.00    +0.035 C 
ATOM     65  O   UNL     1      11.654  15.824  -1.740  0.00  0.00    -0.328 OA
ENDBRANCH  55  56
ENDBRANCH  37  55
TORSDOF 3
ENDMDL
