MODEL 1
REMARK VINA RESULT:      -6.1      0.000      0.000
REMARK  Name = 
REMARK  4 active torsions:
REMARK  status: ('A' for Active; 'I' for Inactive)
REMARK    1  A    between atoms: C_2  and  C_3
REMARK    2  A    between atoms: C_3  and  C_4
REMARK    3  A    between atoms: C_4  and  C_6
REMARK    4  A    between atoms: C_6  and  C_7
REMARK                            x       y       z     vdW  Elec       q    Type
REMARK                         _______ _______ _______ _____ _____    ______ ____
ROOT
ATOM      1  C   UNL     1       2.403   6.202  -7.326  0.00  0.00    +0.141 C 
ATOM      2  C   UNL     1       1.844   7.329  -8.140  0.00  0.00    +0.257 C 
ATOM      3  O   UNL     1       2.126   8.509  -7.778  0.00  0.00    -0.272 OA
ATOM      4  N   UNL     1       1.453   6.997  -9.469  0.00  0.00    -0.125 NA
ATOM      5  C   UNL     1       2.008   5.806 -10.045  0.00  0.00    +0.352 C 
ATOM      6  O   UNL     1       1.700   5.556 -11.234  0.00  0.00    -0.248 OA
ATOM      7  N   UNL     1       3.240   5.382  -9.448  0.00  0.00    -0.125 NA
ATOM      8  C   UNL     1       3.542   5.682  -8.072  0.00  0.00    +0.257 C 
ATOM      9  O   UNL     1       4.471   4.969  -7.583  0.00  0.00    -0.272 OA
ENDROOT
BRANCH   1  10
ATOM     10  C   UNL     1       1.300   5.013  -7.467  0.00  0.00    +0.017 C 
ATOM     11  C   UNL     1       1.878   4.136  -6.217  0.00  0.00    +0.001 C 
BRANCH  10  12
ATOM     12  C   UNL     1       0.227   5.805  -6.525  0.00  0.00    +0.001 C 
BRANCH  12  14
ATOM     13  C   UNL     1      -2.133   5.631  -6.370  0.00  0.00    +0.000 C 
ATOM     14  C   UNL     1      -1.077   5.256  -7.074  0.00  0.00    +0.000 C 
ENDBRANCH  12  14
ENDBRANCH  10  12
ENDBRANCH   1  10
BRANCH   1  15
ATOM     15  C   UNL     1       2.529   6.629  -5.962  0.00  0.00    +0.018 C 
ATOM     16  C   UNL     1       3.841   7.100  -5.476  0.00  0.00    +0.001 C 
ENDBRANCH   1  15
TORSDOF 4
ENDMDL
MODEL 2
REMARK VINA RESULT:      -5.9      2.462      4.630
REMARK  Name = 
REMARK  4 active torsions:
REMARK  status: ('A' for Active; 'I' for Inactive)
REMARK    1  A    between atoms: C_2  and  C_3
REMARK    2  A    between atoms: C_3  and  C_4
REMARK    3  A    between atoms: C_4  and  C_6
REMARK    4  A    between atoms: C_6  and  C_7
REMARK                            x       y       z     vdW  Elec       q    Type
REMARK                         _______ _______ _______ _____ _____    ______ ____
ROOT
ATOM      1  C   UNL     1       2.068   5.967  -7.718  0.00  0.00    +0.141 C 
ATOM      2  C   UNL     1       2.611   7.317  -7.357  0.00  0.00    +0.257 C 
ATOM      3  O   UNL     1       2.098   8.325  -7.924  0.00  0.00    -0.272 OA
ATOM      4  N   UNL     1       3.302   7.392  -6.114  0.00  0.00    -0.125 NA
ATOM      5  C   UNL     1       3.049   6.360  -5.151  0.00  0.00    +0.352 C 
ATOM      6  O   UNL     1       3.620   6.468  -4.040  0.00  0.00    -0.248 OA
ATOM      7  N   UNL     1       1.795   5.686  -5.326  0.00  0.00    -0.125 NA
ATOM      8  C   UNL     1       1.186   5.575  -6.626  0.00  0.00    +0.257 C 
ATOM      9  O   UNL     1       0.289   4.680  -6.698  0.00  0.00    -0.272 OA
ENDROOT
BRANCH   1  10
ATOM     10  C   UNL     1       3.334   4.960  -7.546  0.00  0.00    +0.017 C 
ATOM     11  C   UNL     1       2.723   3.797  -8.516  0.00  0.00    +0.001 C 
BRANCH  10  12
ATOM     12  C   UNL     1       4.152   5.668  -8.769  0.00  0.00    +0.001 C 
BRANCH  12  14
ATOM     13  C   UNL     1       6.462   5.686  -9.305  0.00  0.00    +0.000 C 
ATOM     14  C   UNL     1       5.563   5.203  -8.461  0.00  0.00    +0.000 C 
ENDBRANCH  12  14
ENDBRANCH  10  12
ENDBRANCH   1  10
BRANCH   1  15
ATOM     15  C   UNL     1       1.613   5.995  -9.079  0.00  0.00    +0.018 C 
ATOM     16  C   UNL     1       0.162   6.028  -9.350  0.00  0.00    +0.001 C 
ENDBRANCH   1  15
TORSDOF 4
ENDMDL
MODEL 3
REMARK VINA RESULT:      -5.6      2.478      4.263
REMARK  Name = 
REMARK  4 active torsions:
REMARK  status: ('A' for Active; 'I' for Inactive)
REMARK    1  A    between atoms: C_2  and  C_3
REMARK    2  A    between atoms: C_3  and  C_4
REMARK    3  A    between atoms: C_4  and  C_6
REMARK    4  A    between atoms: C_6  and  C_7
REMARK                            x       y       z     vdW  Elec       q    Type
REMARK                         _______ _______ _______ _____ _____    ______ ____
ROOT
ATOM      1  C   UNL     1       1.443   6.014  -6.358  0.00  0.00    +0.141 C 
ATOM      2  C   UNL     1       2.338   4.832  -6.142  0.00  0.00    +0.257 C 
ATOM      3  O   UNL     1       2.280   3.892  -6.988  0.00  0.00    -0.272 OA
ATOM      4  N   UNL     1       3.471   5.058  -5.309  0.00  0.00    -0.125 NA
ATOM      5  C   UNL     1       3.897   6.416  -5.125  0.00  0.00    +0.352 C 
ATOM      6  O   UNL     1       4.929   6.597  -4.435  0.00  0.00    -0.248 OA
ATOM      7  N   UNL     1       3.482   7.310  -6.166  0.00  0.00    -0.125 NA
ATOM      8  C   UNL     1       2.281   7.066  -6.921  0.00  0.00    +0.257 C 
ATOM      9  O   UNL     1       1.853   8.083  -7.547  0.00  0.00    -0.272 OA
ENDROOT
BRANCH   1  10
ATOM     10  C   UNL     1       1.125   6.562  -4.859  0.00  0.00    +0.017 C 
ATOM     11  C   UNL     1      -0.285   7.279  -5.266  0.00  0.00    +0.001 C 
BRANCH  10  12
ATOM     12  C   UNL     1       0.390   5.169  -4.431  0.00  0.00    +0.001 C 
BRANCH  12  14
ATOM     13  C   UNL     1       1.435   5.631  -2.353  0.00  0.00    +0.000 C 
ATOM     14  C   UNL     1       0.274   5.369  -2.932  0.00  0.00    +0.000 C 
ENDBRANCH  12  14
ENDBRANCH  10  12
ENDBRANCH   1  10
BRANCH   1  15
ATOM     15  C   UNL     1       0.243   5.578  -7.013  0.00  0.00    +0.018 C 
ATOM     16  C   UNL     1       0.186   5.586  -8.487  0.00  0.00    +0.001 C 
ENDBRANCH   1  15
TORSDOF 4
ENDMDL
MODEL 4
REMARK VINA RESULT:      -5.5      2.729      4.560
REMARK  Name = 
REMARK  4 active torsions:
REMARK  status: ('A' for Active; 'I' for Inactive)
REMARK    1  A    between atoms: C_2  and  C_3
REMARK    2  A    between atoms: C_3  and  C_4
REMARK    3  A    between atoms: C_4  and  C_6
REMARK    4  A    between atoms: C_6  and  C_7
REMARK                            x       y       z     vdW  Elec       q    Type
REMARK                         _______ _______ _______ _____ _____    ______ ____
ROOT
ATOM      1  C   UNL     1       3.181   5.806  -5.962  0.00  0.00    +0.141 C 
ATOM      2  C   UNL     1       2.439   7.089  -6.184  0.00  0.00    +0.257 C 
ATOM      3  O   UNL     1       2.519   7.620  -7.331  0.00  0.00    -0.272 OA
ATOM      4  N   UNL     1       1.369   7.349  -5.281  0.00  0.00    -0.125 NA
ATOM      5  C   UNL     1       0.821   6.234  -4.565  0.00  0.00    +0.352 C 
ATOM      6  O   UNL     1      -0.157   6.467  -3.815  0.00  0.00    -0.248 OA
ATOM      7  N   UNL     1       1.042   4.964  -5.194  0.00  0.00    -0.125 NA
ATOM      8  C   UNL     1       2.189   4.740  -6.035  0.00  0.00    +0.257 C 
ATOM      9  O   UNL     1       2.448   3.515  -6.234  0.00  0.00    -0.272 OA
ENDROOT
BRANCH   1  10
ATOM     10  C   UNL     1       3.574   5.832  -4.383  0.00  0.00    +0.017 C 
ATOM     11  C   UNL     1       4.725   4.681  -4.504  0.00  0.00    +0.001 C 
BRANCH  10  12
ATOM     12  C   UNL     1       4.646   7.045  -4.600  0.00  0.00    +0.001 C 
BRANCH  12  14
ATOM     13  C   UNL     1       3.820   8.041  -2.613  0.00  0.00    +0.000 C 
ATOM     14  C   UNL     1       4.879   7.466  -3.161  0.00  0.00    +0.000 C 
ENDBRANCH  12  14
ENDBRANCH  10  12
ENDBRANCH   1  10
BRANCH   1  15
ATOM     15  C   UNL     1       4.356   5.796  -6.786  0.00  0.00    +0.018 C 
ATOM     16  C   UNL     1       4.285   5.191  -8.130  0.00  0.00    +0.001 C 
ENDBRANCH   1  15
TORSDOF 4
ENDMDL
MODEL 5
REMARK VINA RESULT:      -5.5      1.863      2.107
REMARK  Name = 
REMARK  4 active torsions:
REMARK  status: ('A' for Active; 'I' for Inactive)
REMARK    1  A    between atoms: C_2  and  C_3
REMARK    2  A    between atoms: C_3  and  C_4
REMARK    3  A    between atoms: C_4  and  C_6
REMARK    4  A    between atoms: C_6  and  C_7
REMARK                            x       y       z     vdW  Elec       q    Type
REMARK                         _______ _______ _______ _____ _____    ______ ____
ROOT
ATOM      1  C   UNL     1       1.902   5.910  -6.235  0.00  0.00    +0.141 C 
ATOM      2  C   UNL     1       2.507   7.229  -6.608  0.00  0.00    +0.257 C 
ATOM      3  O   UNL     1       3.569   7.575  -6.013  0.00  0.00    -0.272 OA
ATOM      4  N   UNL     1       2.123   7.748  -7.878  0.00  0.00    -0.125 NA
ATOM      5  C   UNL     1       1.590   6.824  -8.837  0.00  0.00    +0.352 C 
ATOM      6  O   UNL     1       1.308   7.282  -9.969  0.00  0.00    -0.248 OA
ATOM      7  N   UNL     1       1.970   5.459  -8.615  0.00  0.00    -0.125 NA
ATOM      8  C   UNL     1       2.269   4.976  -7.292  0.00  0.00    +0.257 C 
ATOM      9  O   UNL     1       2.246   3.712  -7.190  0.00  0.00    -0.272 OA
ENDROOT
BRANCH   1  10
ATOM     10  C   UNL     1       0.305   6.115  -6.465  0.00  0.00    +0.017 C 
ATOM     11  C   UNL     1      -0.135   4.815  -5.580  0.00  0.00    +0.001 C 
BRANCH  10  12
ATOM     12  C   UNL     1       0.181   7.129  -5.192  0.00  0.00    +0.001 C 
BRANCH  12  14
ATOM     13  C   UNL     1      -1.827   8.208  -4.538  0.00  0.00    +0.000 C 
ATOM     14  C   UNL     1      -1.310   7.051  -4.922  0.00  0.00    +0.000 C 
ENDBRANCH  12  14
ENDBRANCH  10  12
ENDBRANCH   1  10
BRANCH   1  15
ATOM     15  C   UNL     1       2.193   5.636  -4.856  0.00  0.00    +0.018 C 
ATOM     16  C   UNL     1       3.420   4.890  -4.516  0.00  0.00    +0.001 C 
ENDBRANCH   1  15
TORSDOF 4
ENDMDL
MODEL 6
REMARK VINA RESULT:      -5.4      2.042      3.859
REMARK  Name = 
REMARK  4 active torsions:
REMARK  status: ('A' for Active; 'I' for Inactive)
REMARK    1  A    between atoms: C_2  and  C_3
REMARK    2  A    between atoms: C_3  and  C_4
REMARK    3  A    between atoms: C_4  and  C_6
REMARK    4  A    between atoms: C_6  and  C_7
REMARK                            x       y       z     vdW  Elec       q    Type
REMARK                         _______ _______ _______ _____ _____    ______ ____
ROOT
ATOM      1  C   UNL     1       2.098   6.100  -6.217  0.00  0.00    +0.141 C 
ATOM      2  C   UNL     1       1.617   4.719  -6.545  0.00  0.00    +0.257 C 
ATOM      3  O   UNL     1       0.403   4.450  -6.307  0.00  0.00    -0.272 OA
ATOM      4  N   UNL     1       2.401   4.000  -7.491  0.00  0.00    -0.125 NA
ATOM      5  C   UNL     1       3.265   4.759  -8.349  0.00  0.00    +0.352 C 
ATOM      6  O   UNL     1       3.908   4.120  -9.215  0.00  0.00    -0.248 OA
ATOM      7  N   UNL     1       2.877   6.130  -8.512  0.00  0.00    -0.125 NA
ATOM      8  C   UNL     1       2.153   6.825  -7.480  0.00  0.00    +0.257 C 
ATOM      9  O   UNL     1       2.181   8.089  -7.596  0.00  0.00    -0.272 OA
ENDROOT
BRANCH   1  10
ATOM     10  C   UNL     1       3.668   5.905  -5.838  0.00  0.00    +0.017 C 
ATOM     11  C   UNL     1       3.775   7.279  -4.963  0.00  0.00    +0.001 C 
BRANCH  10  12
ATOM     12  C   UNL     1       3.310   4.999  -4.529  0.00  0.00    +0.001 C 
BRANCH  12  14
ATOM     13  C   UNL     1       4.276   5.021  -2.363  0.00  0.00    +0.000 C 
ATOM     14  C   UNL     1       4.486   5.337  -3.631  0.00  0.00    +0.000 C 
ENDBRANCH  12  14
ENDBRANCH  10  12
ENDBRANCH   1  10
BRANCH   1  15
ATOM     15  C   UNL     1       1.355   6.600  -5.095  0.00  0.00    +0.018 C 
ATOM     16  C   UNL     1       0.013   7.172  -5.320  0.00  0.00    +0.001 C 
ENDBRANCH   1  15
TORSDOF 4
ENDMDL
MODEL 7
REMARK VINA RESULT:      -5.4      2.466      4.595
REMARK  Name = 
REMARK  4 active torsions:
REMARK  status: ('A' for Active; 'I' for Inactive)
REMARK    1  A    between atoms: C_2  and  C_3
REMARK    2  A    between atoms: C_3  and  C_4
REMARK    3  A    between atoms: C_4  and  C_6
REMARK    4  A    between atoms: C_6  and  C_7
REMARK                            x       y       z     vdW  Elec       q    Type
REMARK                         _______ _______ _______ _____ _____    ______ ____
ROOT
ATOM      1  C   UNL     1       3.166   5.940  -9.199  0.00  0.00    +0.141 C 
ATOM      2  C   UNL     1       2.373   4.675  -9.328  0.00  0.00    +0.257 C 
ATOM      3  O   UNL     1       2.489   3.814  -8.407  0.00  0.00    -0.272 OA
ATOM      4  N   UNL     1       1.243   4.740 -10.193  0.00  0.00    -0.125 NA
ATOM      5  C   UNL     1       0.713   6.039 -10.494  0.00  0.00    +0.352 C 
ATOM      6  O   UNL     1      -0.315   6.079 -11.210  0.00  0.00    -0.248 OA
ATOM      7  N   UNL     1       1.034   7.045  -9.525  0.00  0.00    -0.125 NA
ATOM      8  C   UNL     1       2.236   6.962  -8.736  0.00  0.00    +0.257 C 
ATOM      9  O   UNL     1       2.568   8.058  -8.190  0.00  0.00    -0.272 OA
ENDROOT
BRANCH   1  10
ATOM     10  C   UNL     1       3.470   6.389 -10.733  0.00  0.00    +0.017 C 
ATOM     11  C   UNL     1       4.735   7.348 -10.353  0.00  0.00    +0.001 C 
BRANCH  10  12
ATOM     12  C   UNL     1       4.424   5.091 -10.996  0.00  0.00    +0.001 C 
BRANCH  12  14
ATOM     13  C   UNL     1       4.531   5.052 -13.365  0.00  0.00    +0.000 C 
ATOM     14  C   UNL     1       5.121   5.517 -12.275  0.00  0.00    +0.000 C 
ENDBRANCH  12  14
ENDBRANCH  10  12
ENDBRANCH   1  10
BRANCH   1  15
ATOM     15  C   UNL     1       4.384   5.658  -8.494  0.00  0.00    +0.018 C 
ATOM     16  C   UNL     1       4.397   5.747  -7.021  0.00  0.00    +0.001 C 
ENDBRANCH   1  15
TORSDOF 4
ENDMDL
MODEL 8
REMARK VINA RESULT:      -5.4      1.815      3.911
REMARK  Name = 
REMARK  4 active torsions:
REMARK  status: ('A' for Active; 'I' for Inactive)
REMARK    1  A    between atoms: C_2  and  C_3
REMARK    2  A    between atoms: C_3  and  C_4
REMARK    3  A    between atoms: C_4  and  C_6
REMARK    4  A    between atoms: C_6  and  C_7
REMARK                            x       y       z     vdW  Elec       q    Type
REMARK                         _______ _______ _______ _____ _____    ______ ____
ROOT
ATOM      1  C   UNL     1       2.679   5.590  -7.669  0.00  0.00    +0.141 C 
ATOM      2  C   UNL     1       3.166   4.365  -8.383  0.00  0.00    +0.257 C 
ATOM      3  O   UNL     1       2.308   3.485  -8.684  0.00  0.00    -0.272 OA
ATOM      4  N   UNL     1       4.414   4.497  -9.055  0.00  0.00    -0.125 NA
ATOM      5  C   UNL     1       4.861   5.824  -9.369  0.00  0.00    +0.352 C 
ATOM      6  O   UNL     1       5.933   5.923 -10.011  0.00  0.00    -0.248 OA
ATOM      7  N   UNL     1       3.811   6.798  -9.440  0.00  0.00    -0.125 NA
ATOM      8  C   UNL     1       2.603   6.646  -8.671  0.00  0.00    +0.257 C 
ATOM      9  O   UNL     1       1.931   7.716  -8.555  0.00  0.00    -0.272 OA
ENDROOT
BRANCH   1  10
ATOM     10  C   UNL     1       3.938   6.051  -6.747  0.00  0.00    +0.017 C 
ATOM     11  C   UNL     1       3.093   7.160  -5.897  0.00  0.00    +0.001 C 
BRANCH  10  12
ATOM     12  C   UNL     1       3.656   4.873  -5.653  0.00  0.00    +0.001 C 
BRANCH  12  14
ATOM     13  C   UNL     1       4.220   4.849  -3.349  0.00  0.00    +0.000 C 
ATOM     14  C   UNL     1       4.587   5.308  -4.536  0.00  0.00    +0.000 C 
ENDBRANCH  12  14
ENDBRANCH  10  12
ENDBRANCH   1  10
BRANCH   1  15
ATOM     15  C   UNL     1       1.548   5.241  -6.858  0.00  0.00    +0.018 C 
ATOM     16  C   UNL     1       0.189   5.451  -7.394  0.00  0.00    +0.001 C 
ENDBRANCH   1  15
TORSDOF 4
ENDMDL
MODEL 9
REMARK VINA RESULT:      -5.4      2.396      4.738
REMARK  Name = 
REMARK  4 active torsions:
REMARK  status: ('A' for Active; 'I' for Inactive)
REMARK    1  A    between atoms: C_2  and  C_3
REMARK    2  A    between atoms: C_3  and  C_4
REMARK    3  A    between atoms: C_4  and  C_6
REMARK    4  A    between atoms: C_6  and  C_7
REMARK                            x       y       z     vdW  Elec       q    Type
REMARK                         _______ _______ _______ _____ _____    ______ ____
ROOT
ATOM      1  C   UNL     1       2.721   6.087  -8.206  0.00  0.00    +0.141 C 
ATOM      2  C   UNL     1       2.702   7.347  -7.394  0.00  0.00    +0.257 C 
ATOM      3  O   UNL     1       1.672   8.079  -7.473  0.00  0.00    -0.272 OA
ATOM      4  N   UNL     1       3.598   7.383  -6.288  0.00  0.00    -0.125 NA
ATOM      5  C   UNL     1       4.084   6.129  -5.788  0.00  0.00    +0.352 C 
ATOM      6  O   UNL     1       4.826   6.170  -4.779  0.00  0.00    -0.248 OA
ATOM      7  N   UNL     1       3.248   5.006  -6.102  0.00  0.00    -0.125 NA
ATOM      8  C   UNL     1       2.424   5.000  -7.282  0.00  0.00    +0.257 C 
ATOM      9  O   UNL     1       2.020   3.846  -7.620  0.00  0.00    -0.272 OA
ENDROOT
BRANCH   1  10
ATOM     10  C   UNL     1       4.292   5.852  -8.556  0.00  0.00    +0.017 C 
ATOM     11  C   UNL     1       4.027   4.594  -9.562  0.00  0.00    +0.001 C 
BRANCH  10  12
ATOM     12  C   UNL     1       4.256   6.942  -9.771  0.00  0.00    +0.001 C 
BRANCH  12  14
ATOM     13  C   UNL     1       6.104   7.596 -11.105  0.00  0.00    +0.000 C 
ATOM     14  C   UNL     1       5.522   6.563 -10.517  0.00  0.00    +0.000 C 
ENDBRANCH  12  14
ENDBRANCH  10  12
ENDBRANCH   1  10
BRANCH   1  15
ATOM     15  C   UNL     1       1.952   6.290  -9.401  0.00  0.00    +0.018 C 
ATOM     16  C   UNL     1       0.530   5.893  -9.415  0.00  0.00    +0.001 C 
ENDBRANCH   1  15
TORSDOF 4
ENDMDL
