MODEL 1
REMARK VINA RESULT:      -7.7      0.000      0.000
REMARK  Name = 
REMARK  3 active torsions:
REMARK  status: ('A' for Active; 'I' for Inactive)
REMARK    1  A    between atoms: C_2  and  C_4
REMARK    2  A    between atoms: C_8  and  C_9
REMARK    3  A    between atoms: C_9  and  C_11
REMARK                            x       y       z     vdW  Elec       q    Type
REMARK                         _______ _______ _______ _____ _____    ______ ____
ROOT
ATOM      1  C   UNL     1       2.413   5.795  -4.972  0.00  0.00    +0.143 C 
ATOM      2  C   UNL     1       2.722   6.861  -6.138  0.00  0.00    +0.048 A 
ATOM      3  N   UNL     1       3.540   6.167  -6.935  0.00  0.00    -0.328 N 
ATOM      4  C   UNL     1       3.317   6.403  -8.233  0.00  0.00    +0.099 A 
ATOM      5  C   UNL     1       2.318   7.335  -8.304  0.00  0.00    +0.022 A 
ATOM      6  C   UNL     1       4.579   5.646  -6.104  0.00  0.00    +0.107 C 
ATOM      7  C   UNL     1       1.785   7.394  -7.022  0.00  0.00    +0.015 A 
ATOM      8  C   UNL     1       4.001   5.452  -4.781  0.00  0.00    +0.042 C 
ENDROOT
BRANCH   1  10
ATOM      9  O   UNL     1       2.053   6.464  -2.731  0.00  0.00    -0.245 OA
ATOM     10  C   UNL     1       2.438   6.923  -3.825  0.00  0.00    +0.370 C 
ATOM     11  O   UNL     1       3.631   7.649  -3.724  0.00  0.00    -0.245 OA
ENDBRANCH   1  10
BRANCH   4  12
ATOM     12  C   UNL     1       3.969   5.688  -9.338  0.00  0.00    +0.211 C 
ATOM     13  O   UNL     1       3.831   4.428  -9.368  0.00  0.00    -0.285 OA
BRANCH  12  14
ATOM     14  C   UNL     1       5.158   6.192 -10.013  0.00  0.00    +0.040 A 
ATOM     15  C   UNL     1       5.180   7.348 -10.760  0.00  0.00    +0.003 A 
ATOM     16  C   UNL     1       6.398   7.676 -11.342  0.00  0.00    +0.000 A 
ATOM     17  C   UNL     1       7.558   6.997 -11.027  0.00  0.00    +0.000 A 
ATOM     18  C   UNL     1       7.564   6.066 -10.000  0.00  0.00    +0.000 A 
ATOM     19  C   UNL     1       6.352   5.755  -9.450  0.00  0.00    +0.003 A 
ENDBRANCH  12  14
ENDBRANCH   4  12
TORSDOF 3
ENDMDL
MODEL 2
REMARK VINA RESULT:      -7.5      1.535      2.459
REMARK  Name = 
REMARK  3 active torsions:
REMARK  status: ('A' for Active; 'I' for Inactive)
REMARK    1  A    between atoms: C_2  and  C_4
REMARK    2  A    between atoms: C_8  and  C_9
REMARK    3  A    between atoms: C_9  and  C_11
REMARK                            x       y       z     vdW  Elec       q    Type
REMARK                         _______ _______ _______ _____ _____    ______ ____
ROOT
ATOM      1  C   UNL     1       0.873   6.982  -5.997  0.00  0.00    +0.143 C 
ATOM      2  C   UNL     1       2.219   6.116  -5.818  0.00  0.00    +0.048 A 
ATOM      3  N   UNL     1       2.406   5.642  -7.053  0.00  0.00    -0.328 N 
ATOM      4  C   UNL     1       3.697   5.616  -7.405  0.00  0.00    +0.099 A 
ATOM      5  C   UNL     1       4.413   6.064  -6.328  0.00  0.00    +0.022 A 
ATOM      6  C   UNL     1       1.175   5.037  -7.453  0.00  0.00    +0.107 C 
ATOM      7  C   UNL     1       3.471   6.621  -5.472  0.00  0.00    +0.015 A 
ATOM      8  C   UNL     1       0.111   5.753  -6.763  0.00  0.00    +0.042 C 
ENDROOT
BRANCH   1  10
ATOM      9  O   UNL     1      -0.875   6.916  -4.403  0.00  0.00    -0.245 OA
ATOM     10  C   UNL     1       0.304   6.543  -4.557  0.00  0.00    +0.370 C 
ATOM     11  O   UNL     1       0.500   5.197  -4.221  0.00  0.00    -0.245 OA
ENDBRANCH   1  10
BRANCH   4  12
ATOM     12  C   UNL     1       4.193   5.272  -8.743  0.00  0.00    +0.211 C 
ATOM     13  O   UNL     1       4.042   4.070  -9.121  0.00  0.00    -0.285 OA
BRANCH  12  14
ATOM     14  C   UNL     1       5.288   5.986  -9.389  0.00  0.00    +0.040 A 
ATOM     15  C   UNL     1       6.599   5.572  -9.347  0.00  0.00    +0.003 A 
ATOM     16  C   UNL     1       7.516   6.378 -10.011  0.00  0.00    +0.000 A 
ATOM     17  C   UNL     1       7.110   7.414 -10.828  0.00  0.00    +0.000 A 
ATOM     18  C   UNL     1       5.767   7.579 -11.130  0.00  0.00    +0.000 A 
ATOM     19  C   UNL     1       4.886   6.781 -10.457  0.00  0.00    +0.003 A 
ENDBRANCH  12  14
ENDBRANCH   4  12
TORSDOF 3
ENDMDL
MODEL 3
REMARK VINA RESULT:      -7.3      2.974      6.822
REMARK  Name = 
REMARK  3 active torsions:
REMARK  status: ('A' for Active; 'I' for Inactive)
REMARK    1  A    between atoms: C_2  and  C_4
REMARK    2  A    between atoms: C_8  and  C_9
REMARK    3  A    between atoms: C_9  and  C_11
REMARK                            x       y       z     vdW  Elec       q    Type
REMARK                         _______ _______ _______ _____ _____    ______ ____
ROOT
ATOM      1  C   UNL     1       3.916   6.396  -9.884  0.00  0.00    +0.143 C 
ATOM      2  C   UNL     1       2.659   5.393  -9.812  0.00  0.00    +0.048 A 
ATOM      3  N   UNL     1       2.497   5.251  -8.494  0.00  0.00    -0.328 N 
ATOM      4  C   UNL     1       1.209   5.200  -8.136  0.00  0.00    +0.099 A 
ATOM      5  C   UNL     1       0.471   5.276  -9.286  0.00  0.00    +0.022 A 
ATOM      6  C   UNL     1       3.773   4.891  -7.959  0.00  0.00    +0.107 C 
ATOM      7  C   UNL     1       1.371   5.670 -10.268  0.00  0.00    +0.015 A 
ATOM      8  C   UNL     1       4.776   5.492  -8.827  0.00  0.00    +0.042 C 
ENDROOT
BRANCH   1  10
ATOM      9  O   UNL     1       4.182   6.180 -12.226  0.00  0.00    -0.245 OA
ATOM     10  C   UNL     1       4.545   5.644 -11.161  0.00  0.00    +0.370 C 
ATOM     11  O   UNL     1       5.926   5.420 -11.104  0.00  0.00    -0.245 OA
ENDBRANCH   1  10
BRANCH   4  12
ATOM     12  C   UNL     1       0.726   5.180  -6.749  0.00  0.00    +0.211 C 
ATOM     13  O   UNL     1       1.010   4.156  -6.056  0.00  0.00    -0.285 OA
BRANCH  12  14
ATOM     14  C   UNL     1      -0.460   5.907  -6.314  0.00  0.00    +0.040 A 
ATOM     15  C   UNL     1      -1.745   5.456  -6.507  0.00  0.00    +0.003 A 
ATOM     16  C   UNL     1      -2.760   6.281  -6.036  0.00  0.00    +0.000 A 
ATOM     17  C   UNL     1      -2.490   7.381  -5.248  0.00  0.00    +0.000 A 
ATOM     18  C   UNL     1      -1.206   7.604  -4.775  0.00  0.00    +0.000 A 
ATOM     19  C   UNL     1      -0.226   6.785  -5.261  0.00  0.00    +0.003 A 
ENDBRANCH  12  14
ENDBRANCH   4  12
TORSDOF 3
ENDMDL
MODEL 4
REMARK VINA RESULT:      -7.3      1.462      2.210
REMARK  Name = 
REMARK  3 active torsions:
REMARK  status: ('A' for Active; 'I' for Inactive)
REMARK    1  A    between atoms: C_2  and  C_4
REMARK    2  A    between atoms: C_8  and  C_9
REMARK    3  A    between atoms: C_9  and  C_11
REMARK                            x       y       z     vdW  Elec       q    Type
REMARK                         _______ _______ _______ _____ _____    ______ ____
ROOT
ATOM      1  C   UNL     1       3.177   5.318  -5.500  0.00  0.00    +0.143 C 
ATOM      2  C   UNL     1       2.338   5.082  -6.854  0.00  0.00    +0.048 A 
ATOM      3  N   UNL     1       2.859   6.008  -7.664  0.00  0.00    -0.328 N 
ATOM      4  C   UNL     1       2.992   5.576  -8.923  0.00  0.00    +0.099 A 
ATOM      5  C   UNL     1       2.496   4.301  -8.962  0.00  0.00    +0.022 A 
ATOM      6  C   UNL     1       2.806   7.250  -6.958  0.00  0.00    +0.107 C 
ATOM      7  C   UNL     1       2.358   3.925  -7.631  0.00  0.00    +0.015 A 
ATOM      8  C   UNL     1       2.905   6.931  -5.540  0.00  0.00    +0.042 C 
ENDROOT
BRANCH   1  10
ATOM      9  O   UNL     1       2.068   5.499  -3.417  0.00  0.00    -0.245 OA
ATOM     10  C   UNL     1       1.895   5.045  -4.565  0.00  0.00    +0.370 C 
ATOM     11  O   UNL     1       0.662   5.413  -5.118  0.00  0.00    -0.245 OA
ENDBRANCH   1  10
BRANCH   4  12
ATOM     12  C   UNL     1       3.654   6.324 -10.000  0.00  0.00    +0.211 C 
ATOM     13  O   UNL     1       3.073   6.343 -11.128  0.00  0.00    -0.285 OA
BRANCH  12  14
ATOM     14  C   UNL     1       5.095   6.533 -10.047  0.00  0.00    +0.040 A 
ATOM     15  C   UNL     1       6.012   5.653  -9.520  0.00  0.00    +0.003 A 
ATOM     16  C   UNL     1       7.348   6.014  -9.646  0.00  0.00    +0.000 A 
ATOM     17  C   UNL     1       7.738   7.084 -10.426  0.00  0.00    +0.000 A 
ATOM     18  C   UNL     1       6.815   7.734 -11.231  0.00  0.00    +0.000 A 
ATOM     19  C   UNL     1       5.508   7.366 -11.081  0.00  0.00    +0.003 A 
ENDBRANCH  12  14
ENDBRANCH   4  12
TORSDOF 3
ENDMDL
MODEL 5
REMARK VINA RESULT:      -7.2      2.645      6.521
REMARK  Name = 
REMARK  3 active torsions:
REMARK  status: ('A' for Active; 'I' for Inactive)
REMARK    1  A    between atoms: C_2  and  C_4
REMARK    2  A    between atoms: C_8  and  C_9
REMARK    3  A    between atoms: C_9  and  C_11
REMARK                            x       y       z     vdW  Elec       q    Type
REMARK                         _______ _______ _______ _____ _____    ______ ____
ROOT
ATOM      1  C   UNL     1       4.186   4.905  -9.410  0.00  0.00    +0.143 C 
ATOM      2  C   UNL     1       3.840   5.848  -8.152  0.00  0.00    +0.048 A 
ATOM      3  N   UNL     1       2.610   5.438  -7.832  0.00  0.00    -0.328 N 
ATOM      4  C   UNL     1       2.408   5.399  -6.510  0.00  0.00    +0.099 A 
ATOM      5  C   UNL     1       3.557   5.844  -5.917  0.00  0.00    +0.022 A 
ATOM      6  C   UNL     1       1.837   5.479  -9.033  0.00  0.00    +0.107 C 
ATOM      7  C   UNL     1       4.509   5.851  -6.929  0.00  0.00    +0.015 A 
ATOM      8  C   UNL     1       2.759   5.243 -10.135  0.00  0.00    +0.042 C 
ENDROOT
BRANCH   1  10
ATOM      9  O   UNL     1       4.339   7.168 -10.086  0.00  0.00    -0.245 OA
ATOM     10  C   UNL     1       4.952   6.087 -10.188  0.00  0.00    +0.370 C 
ATOM     11  O   UNL     1       6.319   6.205  -9.902  0.00  0.00    -0.245 OA
ENDBRANCH   1  10
BRANCH   4  12
ATOM     12  C   UNL     1       1.203   4.865  -5.863  0.00  0.00    +0.211 C 
ATOM     13  O   UNL     1       0.979   3.623  -6.000  0.00  0.00    -0.285 OA
BRANCH  12  14
ATOM     14  C   UNL     1       0.022   5.676  -5.597  0.00  0.00    +0.040 A 
ATOM     15  C   UNL     1       0.070   6.938  -5.052  0.00  0.00    +0.003 A 
ATOM     16  C   UNL     1      -1.154   7.568  -4.858  0.00  0.00    +0.000 A 
ATOM     17  C   UNL     1      -2.326   7.043  -5.365  0.00  0.00    +0.000 A 
ATOM     18  C   UNL     1      -2.290   5.950  -6.217  0.00  0.00    +0.000 A 
ATOM     19  C   UNL     1      -1.076   5.345  -6.384  0.00  0.00    +0.003 A 
ENDBRANCH  12  14
ENDBRANCH   4  12
TORSDOF 3
ENDMDL
MODEL 6
REMARK VINA RESULT:      -7.0      2.558      6.592
REMARK  Name = 
REMARK  3 active torsions:
REMARK  status: ('A' for Active; 'I' for Inactive)
REMARK    1  A    between atoms: C_2  and  C_4
REMARK    2  A    between atoms: C_8  and  C_9
REMARK    3  A    between atoms: C_9  and  C_11
REMARK                            x       y       z     vdW  Elec       q    Type
REMARK                         _______ _______ _______ _____ _____    ______ ____
ROOT
ATOM      1  C   UNL     1       5.591   5.343 -11.268  0.00  0.00    +0.143 C 
ATOM      2  C   UNL     1       5.570   5.750  -9.711  0.00  0.00    +0.048 A 
ATOM      3  N   UNL     1       4.525   6.581  -9.659  0.00  0.00    -0.328 N 
ATOM      4  C   UNL     1       3.804   6.433  -8.542  0.00  0.00    +0.099 A 
ATOM      5  C   UNL     1       4.426   5.474  -7.789  0.00  0.00    +0.022 A 
ATOM      6  C   UNL     1       4.724   7.556 -10.685  0.00  0.00    +0.107 C 
ATOM      7  C   UNL     1       5.343   4.879  -8.646  0.00  0.00    +0.015 A 
ATOM      8  C   UNL     1       5.486   6.905 -11.741  0.00  0.00    +0.042 C 
ENDROOT
BRANCH   1  10
ATOM      9  O   UNL     1       7.619   4.675 -12.291  0.00  0.00    -0.245 OA
ATOM     10  C   UNL     1       7.200   5.350 -11.330  0.00  0.00    +0.370 C 
ATOM     11  O   UNL     1       7.796   6.614 -11.248  0.00  0.00    -0.245 OA
ENDBRANCH   1  10
BRANCH   4  12
ATOM     12  C   UNL     1       2.532   7.114  -8.271  0.00  0.00    +0.211 C 
ATOM     13  O   UNL     1       2.570   8.375  -8.141  0.00  0.00    -0.285 OA
BRANCH  12  14
ATOM     14  C   UNL     1       1.412   6.462  -7.603  0.00  0.00    +0.040 A 
ATOM     15  C   UNL     1       1.005   6.765  -6.325  0.00  0.00    +0.003 A 
ATOM     16  C   UNL     1      -0.077   6.039  -5.839  0.00  0.00    +0.000 A 
ATOM     17  C   UNL     1      -0.818   5.212  -6.658  0.00  0.00    +0.000 A 
ATOM     18  C   UNL     1      -0.597   5.203  -8.027  0.00  0.00    +0.000 A 
ATOM     19  C   UNL     1       0.477   5.918  -8.476  0.00  0.00    +0.003 A 
ENDBRANCH  12  14
ENDBRANCH   4  12
TORSDOF 3
ENDMDL
MODEL 7
REMARK VINA RESULT:      -7.0      4.017      5.079
REMARK  Name = 
REMARK  3 active torsions:
REMARK  status: ('A' for Active; 'I' for Inactive)
REMARK    1  A    between atoms: C_2  and  C_4
REMARK    2  A    between atoms: C_8  and  C_9
REMARK    3  A    between atoms: C_9  and  C_11
REMARK                            x       y       z     vdW  Elec       q    Type
REMARK                         _______ _______ _______ _____ _____    ______ ____
ROOT
ATOM      1  C   UNL     1      -1.192   6.802  -4.976  0.00  0.00    +0.143 C 
ATOM      2  C   UNL     1      -0.261   5.489  -4.984  0.00  0.00    +0.048 A 
ATOM      3  N   UNL     1      -0.132   5.252  -6.292  0.00  0.00    -0.328 N 
ATOM      4  C   UNL     1       1.095   4.833  -6.622  0.00  0.00    +0.099 A 
ATOM      5  C   UNL     1       1.814   4.750  -5.460  0.00  0.00    +0.022 A 
ATOM      6  C   UNL     1      -1.452   5.237  -6.840  0.00  0.00    +0.107 C 
ATOM      7  C   UNL     1       1.049   5.418  -4.512  0.00  0.00    +0.015 A 
ATOM      8  C   UNL     1      -2.258   6.128  -6.017  0.00  0.00    +0.042 C 
ENDROOT
BRANCH   1  10
ATOM      9  O   UNL     1      -2.608   7.256  -3.134  0.00  0.00    -0.245 OA
ATOM     10  C   UNL     1      -2.017   6.306  -3.686  0.00  0.00    +0.370 C 
ATOM     11  O   UNL     1      -2.843   5.195  -3.894  0.00  0.00    -0.245 OA
ENDBRANCH   1  10
BRANCH   4  12
ATOM     12  C   UNL     1       1.567   4.623  -7.996  0.00  0.00    +0.211 C 
ATOM     13  O   UNL     1       2.795   4.341  -8.146  0.00  0.00    -0.285 OA
BRANCH  12  14
ATOM     14  C   UNL     1       0.933   5.242  -9.154  0.00  0.00    +0.040 A 
ATOM     15  C   UNL     1       1.054   6.576  -9.467  0.00  0.00    +0.003 A 
ATOM     16  C   UNL     1       0.376   7.001 -10.603  0.00  0.00    +0.000 A 
ATOM     17  C   UNL     1      -0.215   6.105 -11.471  0.00  0.00    +0.000 A 
ATOM     18  C   UNL     1      -0.011   4.743 -11.312  0.00  0.00    +0.000 A 
ATOM     19  C   UNL     1       0.651   4.351 -10.183  0.00  0.00    +0.003 A 
ENDBRANCH  12  14
ENDBRANCH   4  12
TORSDOF 3
ENDMDL
MODEL 8
REMARK VINA RESULT:      -6.9      2.197      5.865
REMARK  Name = 
REMARK  3 active torsions:
REMARK  status: ('A' for Active; 'I' for Inactive)
REMARK    1  A    between atoms: C_2  and  C_4
REMARK    2  A    between atoms: C_8  and  C_9
REMARK    3  A    between atoms: C_9  and  C_11
REMARK                            x       y       z     vdW  Elec       q    Type
REMARK                         _______ _______ _______ _____ _____    ______ ____
ROOT
ATOM      1  C   UNL     1       5.655   6.502 -10.359  0.00  0.00    +0.143 C 
ATOM      2  C   UNL     1       4.525   5.369 -10.188  0.00  0.00    +0.048 A 
ATOM      3  N   UNL     1       4.516   5.187  -8.865  0.00  0.00    -0.328 N 
ATOM      4  C   UNL     1       3.284   4.992  -8.380  0.00  0.00    +0.099 A 
ATOM      5  C   UNL     1       2.428   5.008  -9.447  0.00  0.00    +0.022 A 
ATOM      6  C   UNL     1       5.871   4.957  -8.472  0.00  0.00    +0.107 C 
ATOM      7  C   UNL     1       3.175   5.513 -10.504  0.00  0.00    +0.015 A 
ATOM      8  C   UNL     1       6.710   5.678  -9.419  0.00  0.00    +0.042 C 
ENDROOT
BRANCH   1  10
ATOM      9  O   UNL     1       6.045   6.595 -12.692  0.00  0.00    -0.245 OA
ATOM     10  C   UNL     1       6.224   5.844 -11.713  0.00  0.00    +0.370 C 
ATOM     11  O   UNL     1       7.533   5.350 -11.635  0.00  0.00    -0.245 OA
ENDBRANCH   1  10
BRANCH   4  12
ATOM     12  C   UNL     1       2.952   4.897  -6.953  0.00  0.00    +0.211 C 
ATOM     13  O   UNL     1       1.745   4.640  -6.659  0.00  0.00    -0.285 OA
BRANCH  12  14
ATOM     14  C   UNL     1       3.700   5.600  -5.918  0.00  0.00    +0.040 A 
ATOM     15  C   UNL     1       3.657   6.963  -5.737  0.00  0.00    +0.003 A 
ATOM     16  C   UNL     1       4.440   7.468  -4.707  0.00  0.00    +0.000 A 
ATOM     17  C   UNL     1       5.063   6.637  -3.797  0.00  0.00    +0.000 A 
ATOM     18  C   UNL     1       4.795   5.277  -3.797  0.00  0.00    +0.000 A 
ATOM     19  C   UNL     1       4.029   4.805  -4.825  0.00  0.00    +0.003 A 
ENDBRANCH  12  14
ENDBRANCH   4  12
TORSDOF 3
ENDMDL
MODEL 9
REMARK VINA RESULT:      -6.8      2.454      6.706
REMARK  Name = 
REMARK  3 active torsions:
REMARK  status: ('A' for Active; 'I' for Inactive)
REMARK    1  A    between atoms: C_2  and  C_4
REMARK    2  A    between atoms: C_8  and  C_9
REMARK    3  A    between atoms: C_9  and  C_11
REMARK                            x       y       z     vdW  Elec       q    Type
REMARK                         _______ _______ _______ _____ _____    ______ ____
ROOT
ATOM      1  C   UNL     1       6.484   6.672 -11.548  0.00  0.00    +0.143 C 
ATOM      2  C   UNL     1       5.449   5.540 -11.059  0.00  0.00    +0.048 A 
ATOM      3  N   UNL     1       5.509   5.668  -9.731  0.00  0.00    -0.328 N 
ATOM      4  C   UNL     1       4.317   5.514  -9.144  0.00  0.00    +0.099 A 
ATOM      5  C   UNL     1       3.418   5.229 -10.135  0.00  0.00    +0.022 A 
ATOM      6  C   UNL     1       6.893   5.621  -9.375  0.00  0.00    +0.107 C 
ATOM      7  C   UNL     1       4.080   5.522 -11.321  0.00  0.00    +0.015 A 
ATOM      8  C   UNL     1       7.636   6.154 -10.508  0.00  0.00    +0.042 C 
ENDROOT
BRANCH   1  10
ATOM      9  O   UNL     1       7.708   6.429 -13.560  0.00  0.00    -0.245 OA
ATOM     10  C   UNL     1       7.043   5.756 -12.747  0.00  0.00    +0.370 C 
ATOM     11  O   UNL     1       7.693   4.580 -12.350  0.00  0.00    -0.245 OA
ENDBRANCH   1  10
BRANCH   4  12
ATOM     12  C   UNL     1       4.053   5.729  -7.715  0.00  0.00    +0.211 C 
ATOM     13  O   UNL     1       5.023   5.547  -6.918  0.00  0.00    -0.285 OA
BRANCH  12  14
ATOM     14  C   UNL     1       2.731   5.571  -7.122  0.00  0.00    +0.040 A 
ATOM     15  C   UNL     1       2.300   4.413  -6.518  0.00  0.00    +0.003 A 
ATOM     16  C   UNL     1       1.005   4.433  -6.012  0.00  0.00    +0.000 A 
ATOM     17  C   UNL     1       0.274   5.602  -5.942  0.00  0.00    +0.000 A 
ATOM     18  C   UNL     1       0.873   6.818  -6.232  0.00  0.00    +0.000 A 
ATOM     19  C   UNL     1       2.142   6.770  -6.736  0.00  0.00    +0.003 A 
ENDBRANCH  12  14
ENDBRANCH   4  12
TORSDOF 3
ENDMDL
