MODEL 1
REMARK VINA RESULT:     -10.4      0.000      0.000
REMARK  Name = 
REMARK  7 active torsions:
REMARK  status: ('A' for Active; 'I' for Inactive)
REMARK    1  A    between atoms: C_2  and  C_3
REMARK    2  A    between atoms: N_10  and  C_11
REMARK    3  A    between atoms: C_11  and  C_12
REMARK    4  A    between atoms: C_12  and  C_13
REMARK    5  A    between atoms: C_16  and  S_17
REMARK    6  A    between atoms: S_17  and  N_20
REMARK    7  A    between atoms: N_23  and  C_24
REMARK                            x       y       z     vdW  Elec       q    Type
REMARK                         _______ _______ _______ _____ _____    ______ ____
ROOT
ATOM      1  C   UNL     1       0.056   5.321 -11.966  0.00  0.00    -0.020 A 
ATOM      2  C   UNL     1      -0.225   6.631 -11.581  0.00  0.00    -0.003 A 
ATOM      3  C   UNL     1       0.234   7.141 -10.368  0.00  0.00    +0.020 A 
ATOM      4  C   UNL     1       0.967   6.339  -9.499  0.00  0.00    +0.127 A 
ATOM      5  C   UNL     1       0.700   4.980  -9.645  0.00  0.00    +0.020 A 
ATOM      6  C   UNL     1       0.231   4.490 -10.860  0.00  0.00    -0.003 A 
ENDROOT
BRANCH   4   7
ATOM      7  S   UNL     1       2.379   6.937  -8.666  0.00  0.00    +0.097 S 
ATOM      8  O   UNL     1       2.130   8.187  -7.900  0.00  0.00    -0.148 OA
ATOM      9  O   UNL     1       3.483   7.219  -9.656  0.00  0.00    -0.148 OA
BRANCH   7  10
ATOM     10  N   UNL     1       2.906   5.628  -7.658  0.00  0.00    -0.040 NA
ATOM     11  C   UNL     1       2.392   5.435  -6.367  0.00  0.00    +0.360 C 
ATOM     12  N   UNL     1       3.096   4.913  -5.254  0.00  0.00    -0.188 NA
ATOM     13  O   UNL     1       1.183   5.765  -6.177  0.00  0.00    -0.247 OA
BRANCH  12  14
ATOM     14  C   UNL     1       2.896   5.769  -3.919  0.00  0.00    +0.097 C 
ATOM     15  C   UNL     1       4.030   6.894  -4.395  0.00  0.00    +0.022 C 
ATOM     16  C   UNL     1       4.705   7.297  -3.099  0.00  0.00    +0.002 C 
ATOM     17  C   UNL     1       3.572   7.030  -1.922  0.00  0.00    +0.000 C 
ATOM     18  C   UNL     1       4.596   7.553  -0.734  0.00  0.00    +0.000 C 
ATOM     19  C   UNL     1       4.069   5.464  -1.727  0.00  0.00    +0.002 C 
ATOM     20  C   UNL     1       4.055   4.876  -3.113  0.00  0.00    +0.022 C 
ENDBRANCH  12  14
ENDBRANCH   7  10
ENDBRANCH   4   7
BRANCH   1  21
ATOM     21  C   UNL     1       0.715   5.014 -13.280  0.00  0.00    +0.050 C 
BRANCH  21  22
ATOM     22  C   UNL     1       1.882   5.982 -13.398  0.00  0.00    +0.121 C 
BRANCH  22  28
ATOM     23  C   UNL     1       7.691   5.497 -11.908  0.00  0.00    +0.026 C 
ATOM     24  C   UNL     1       6.817   5.466 -13.070  0.00  0.00    +0.252 C 
ATOM     25  O   UNL     1       7.118   5.512 -14.300  0.00  0.00    -0.270 OA
ATOM     26  N   UNL     1       5.507   5.287 -12.576  0.00  0.00    -0.206 N 
ATOM     27  C   UNL     1       4.318   5.554 -13.328  0.00  0.00    +0.329 C 
ATOM     28  N   UNL     1       3.022   5.305 -12.782  0.00  0.00    -0.188 NA
ATOM     29  O   UNL     1       4.375   6.065 -14.487  0.00  0.00    -0.250 OA
ATOM     30  C   UNL     1       5.561   5.448 -11.132  0.00  0.00    +0.125 C 
ATOM     31  C   UNL     1       6.966   5.848 -10.848  0.00  0.00    -0.023 C 
ATOM     32  C   UNL     1       7.497   5.909  -9.454  0.00  0.00    +0.028 C 
BRANCH  23  34
ATOM     33  C   UNL     1       9.527   5.919 -12.352  0.00  0.00    +0.005 C 
ATOM     34  C   UNL     1       9.142   5.792 -11.999  0.00  0.00    +0.030 C 
ENDBRANCH  23  34
ENDBRANCH  22  28
ENDBRANCH  21  22
ENDBRANCH   1  21
TORSDOF 7
ENDMDL
MODEL 2
REMARK VINA RESULT:     -10.2      2.351      2.923
REMARK  Name = 
REMARK  7 active torsions:
REMARK  status: ('A' for Active; 'I' for Inactive)
REMARK    1  A    between atoms: C_2  and  C_3
REMARK    2  A    between atoms: N_10  and  C_11
REMARK    3  A    between atoms: C_11  and  C_12
REMARK    4  A    between atoms: C_12  and  C_13
REMARK    5  A    between atoms: C_16  and  S_17
REMARK    6  A    between atoms: S_17  and  N_20
REMARK    7  A    between atoms: N_23  and  C_24
REMARK                            x       y       z     vdW  Elec       q    Type
REMARK                         _______ _______ _______ _____ _____    ______ ____
ROOT
ATOM      1  C   UNL     1       0.137   5.289 -11.620  0.00  0.00    -0.020 A 
ATOM      2  C   UNL     1       0.044   6.562 -11.061  0.00  0.00    -0.003 A 
ATOM      3  C   UNL     1       0.715   6.884  -9.882  0.00  0.00    +0.020 A 
ATOM      4  C   UNL     1       1.479   5.927  -9.223  0.00  0.00    +0.127 A 
ATOM      5  C   UNL     1       1.062   4.622  -9.471  0.00  0.00    +0.020 A 
ATOM      6  C   UNL     1       0.383   4.320 -10.647  0.00  0.00    -0.003 A 
ENDROOT
BRANCH   4   7
ATOM      7  S   UNL     1       3.046   6.304  -8.552  0.00  0.00    +0.097 S 
ATOM      8  O   UNL     1       3.876   7.167  -9.433  0.00  0.00    -0.148 OA
ATOM      9  O   UNL     1       3.818   5.033  -8.296  0.00  0.00    -0.148 OA
BRANCH   7  10
ATOM     10  N   UNL     1       2.721   7.035  -7.014  0.00  0.00    -0.040 NA
ATOM     11  C   UNL     1       1.966   6.381  -6.028  0.00  0.00    +0.360 C 
ATOM     12  N   UNL     1       1.102   6.996  -5.088  0.00  0.00    -0.188 NA
ATOM     13  O   UNL     1       2.062   5.118  -5.977  0.00  0.00    -0.247 OA
BRANCH  12  14
ATOM     14  C   UNL     1      -0.320   6.276  -4.968  0.00  0.00    +0.097 C 
ATOM     15  C   UNL     1      -1.119   7.736  -4.860  0.00  0.00    +0.022 C 
ATOM     16  C   UNL     1      -2.259   7.452  -3.902  0.00  0.00    +0.002 C 
ATOM     17  C   UNL     1      -2.555   5.830  -4.052  0.00  0.00    +0.000 C 
ATOM     18  C   UNL     1      -3.778   5.890  -2.941  0.00  0.00    +0.000 C 
ATOM     19  C   UNL     1      -1.443   5.467  -2.882  0.00  0.00    +0.002 C 
ATOM     20  C   UNL     1      -0.185   6.176  -3.306  0.00  0.00    +0.022 C 
ENDBRANCH  12  14
ENDBRANCH   7  10
ENDBRANCH   4   7
BRANCH   1  21
ATOM     21  C   UNL     1       0.574   5.088 -13.043  0.00  0.00    +0.050 C 
BRANCH  21  22
ATOM     22  C   UNL     1       1.760   6.017 -13.251  0.00  0.00    +0.121 C 
BRANCH  22  28
ATOM     23  C   UNL     1       7.622   5.424 -12.032  0.00  0.00    +0.026 C 
ATOM     24  C   UNL     1       6.700   5.451 -13.156  0.00  0.00    +0.252 C 
ATOM     25  O   UNL     1       6.949   5.550 -14.394  0.00  0.00    -0.270 OA
ATOM     26  N   UNL     1       5.411   5.259 -12.615  0.00  0.00    -0.206 N 
ATOM     27  C   UNL     1       4.193   5.569 -13.304  0.00  0.00    +0.329 C 
ATOM     28  N   UNL     1       2.919   5.305 -12.715  0.00  0.00    -0.188 NA
ATOM     29  O   UNL     1       4.206   6.131 -14.440  0.00  0.00    -0.250 OA
ATOM     30  C   UNL     1       5.527   5.355 -11.169  0.00  0.00    +0.125 C 
ATOM     31  C   UNL     1       6.946   5.732 -10.928  0.00  0.00    -0.023 C 
ATOM     32  C   UNL     1       7.536   5.726  -9.556  0.00  0.00    +0.028 C 
BRANCH  23  34
ATOM     33  C   UNL     1       9.412   6.079 -12.365  0.00  0.00    +0.005 C 
ATOM     34  C   UNL     1       9.071   5.713 -12.171  0.00  0.00    +0.030 C 
ENDBRANCH  23  34
ENDBRANCH  22  28
ENDBRANCH  21  22
ENDBRANCH   1  21
TORSDOF 7
ENDMDL
MODEL 3
REMARK VINA RESULT:     -10.1      3.635      6.143
REMARK  Name = 
REMARK  7 active torsions:
REMARK  status: ('A' for Active; 'I' for Inactive)
REMARK    1  A    between atoms: C_2  and  C_3
REMARK    2  A    between atoms: N_10  and  C_11
REMARK    3  A    between atoms: C_11  and  C_12
REMARK    4  A    between atoms: C_12  and  C_13
REMARK    5  A    between atoms: C_16  and  S_17
REMARK    6  A    between atoms: S_17  and  N_20
REMARK    7  A    between atoms: N_23  and  C_24
REMARK                            x       y       z     vdW  Elec       q    Type
REMARK                         _______ _______ _______ _____ _____    ______ ____
ROOT
ATOM      1  C   UNL     1       2.807   5.320  -5.129  0.00  0.00    -0.020 A 
ATOM      2  C   UNL     1       3.943   4.687  -4.627  0.00  0.00    -0.003 A 
ATOM      3  C   UNL     1       4.444   4.998  -3.364  0.00  0.00    +0.020 A 
ATOM      4  C   UNL     1       3.828   5.971  -2.582  0.00  0.00    +0.127 A 
ATOM      5  C   UNL     1       3.138   6.922  -3.329  0.00  0.00    +0.020 A 
ATOM      6  C   UNL     1       2.654   6.597  -4.592  0.00  0.00    -0.003 A 
ENDROOT
BRANCH   4   7
ATOM      7  S   UNL     1       3.571   5.748  -0.870  0.00  0.00    +0.097 S 
ATOM      8  O   UNL     1       4.486   6.557  -0.023  0.00  0.00    -0.148 OA
ATOM      9  O   UNL     1       3.768   4.297  -0.502  0.00  0.00    -0.148 OA
BRANCH   7  10
ATOM     10  N   UNL     1       1.901   6.130  -0.604  0.00  0.00    -0.040 NA
ATOM     11  C   UNL     1       0.868   5.399  -1.211  0.00  0.00    +0.360 C 
ATOM     12  N   UNL     1      -0.385   5.909  -1.632  0.00  0.00    -0.188 NA
ATOM     13  O   UNL     1       1.079   4.164  -1.406  0.00  0.00    -0.247 OA
BRANCH  12  14
ATOM     14  C   UNL     1      -0.798   5.440  -3.103  0.00  0.00    +0.097 C 
ATOM     15  C   UNL     1      -0.578   6.974  -3.721  0.00  0.00    +0.022 C 
ATOM     16  C   UNL     1      -1.660   7.096  -4.775  0.00  0.00    +0.002 C 
ATOM     17  C   UNL     1      -1.967   5.544  -5.261  0.00  0.00    +0.000 C 
ATOM     18  C   UNL     1      -3.113   6.046  -6.342  0.00  0.00    +0.000 C 
ATOM     19  C   UNL     1      -3.104   5.343  -4.076  0.00  0.00    +0.002 C 
ATOM     20  C   UNL     1      -2.412   5.746  -2.801  0.00  0.00    +0.022 C 
ENDBRANCH  12  14
ENDBRANCH   7  10
ENDBRANCH   4   7
BRANCH   1  21
ATOM     21  C   UNL     1       1.622   4.533  -5.612  0.00  0.00    +0.050 C 
BRANCH  21  22
ATOM     22  C   UNL     1       1.289   5.083  -6.990  0.00  0.00    +0.121 C 
BRANCH  22  28
ATOM     23  C   UNL     1       5.684   6.108 -10.970  0.00  0.00    +0.026 C 
ATOM     24  C   UNL     1       4.233   6.110 -10.864  0.00  0.00    +0.252 C 
ATOM     25  O   UNL     1       3.373   6.578 -11.667  0.00  0.00    -0.270 OA
ATOM     26  N   UNL     1       3.921   5.394  -9.688  0.00  0.00    -0.206 N 
ATOM     27  C   UNL     1       2.656   5.457  -9.018  0.00  0.00    +0.329 C 
ATOM     28  N   UNL     1       2.391   4.669  -7.857  0.00  0.00    -0.188 NA
ATOM     29  O   UNL     1       1.746   6.251  -9.406  0.00  0.00    -0.250 OA
ATOM     30  C   UNL     1       5.166   5.171  -8.971  0.00  0.00    +0.125 C 
ATOM     31  C   UNL     1       6.192   5.909  -9.756  0.00  0.00    -0.023 C 
ATOM     32  C   UNL     1       7.651   5.761  -9.473  0.00  0.00    +0.028 C 
BRANCH  23  34
ATOM     33  C   UNL     1       6.457   7.355 -12.231  0.00  0.00    +0.005 C 
ATOM     34  C   UNL     1       6.417   6.866 -12.014  0.00  0.00    +0.030 C 
ENDBRANCH  23  34
ENDBRANCH  22  28
ENDBRANCH  21  22
ENDBRANCH   1  21
TORSDOF 7
ENDMDL
MODEL 4
REMARK VINA RESULT:      -9.9      3.330     10.249
REMARK  Name = 
REMARK  7 active torsions:
REMARK  status: ('A' for Active; 'I' for Inactive)
REMARK    1  A    between atoms: C_2  and  C_3
REMARK    2  A    between atoms: N_10  and  C_11
REMARK    3  A    between atoms: C_11  and  C_12
REMARK    4  A    between atoms: C_12  and  C_13
REMARK    5  A    between atoms: C_16  and  S_17
REMARK    6  A    between atoms: S_17  and  N_20
REMARK    7  A    between atoms: N_23  and  C_24
REMARK                            x       y       z     vdW  Elec       q    Type
REMARK                         _______ _______ _______ _____ _____    ______ ____
ROOT
ATOM      1  C   UNL     1       4.678   6.583  -2.917  0.00  0.00    -0.020 A 
ATOM      2  C   UNL     1       4.933   7.457  -3.972  0.00  0.00    -0.003 A 
ATOM      3  C   UNL     1       4.660   7.097  -5.291  0.00  0.00    +0.020 A 
ATOM      4  C   UNL     1       4.145   5.838  -5.584  0.00  0.00    +0.127 A 
ATOM      5  C   UNL     1       4.472   4.874  -4.636  0.00  0.00    +0.020 A 
ATOM      6  C   UNL     1       4.753   5.252  -3.326  0.00  0.00    -0.003 A 
ENDROOT
BRANCH   4   7
ATOM      7  S   UNL     1       2.862   5.619  -6.748  0.00  0.00    +0.097 S 
ATOM      8  O   UNL     1       1.502   5.681  -6.151  0.00  0.00    -0.148 OA
ATOM      9  O   UNL     1       3.004   4.278  -7.427  0.00  0.00    -0.148 OA
BRANCH   7  10
ATOM     10  N   UNL     1       3.121   6.842  -7.950  0.00  0.00    -0.040 NA
ATOM     11  C   UNL     1       3.393   6.519  -9.288  0.00  0.00    +0.360 C 
ATOM     12  N   UNL     1       4.219   7.251 -10.176  0.00  0.00    -0.188 NA
ATOM     13  O   UNL     1       2.851   5.468  -9.745  0.00  0.00    -0.247 OA
BRANCH  12  14
ATOM     14  C   UNL     1       5.246   6.334 -10.988  0.00  0.00    +0.097 C 
ATOM     15  C   UNL     1       6.248   6.175  -9.664  0.00  0.00    +0.022 C 
ATOM     16  C   UNL     1       7.639   6.151 -10.266  0.00  0.00    +0.002 C 
ATOM     17  C   UNL     1       7.434   5.569 -11.802  0.00  0.00    +0.000 C 
ATOM     18  C   UNL     1       9.054   5.671 -12.120  0.00  0.00    +0.000 C 
ATOM     19  C   UNL     1       7.173   7.091 -12.398  0.00  0.00    +0.002 C 
ATOM     20  C   UNL     1       6.093   7.671 -11.524  0.00  0.00    +0.022 C 
ENDBRANCH  12  14
ENDBRANCH   7  10
ENDBRANCH   4   7
BRANCH   1  21
ATOM     21  C   UNL     1       3.821   6.990  -1.752  0.00  0.00    +0.050 C 
BRANCH  21  22
ATOM     22  C   UNL     1       3.593   5.725  -0.939  0.00  0.00    +0.121 C 
BRANCH  22  28
ATOM     23  C   UNL     1      -2.198   5.696  -2.573  0.00  0.00    +0.026 C 
ATOM     24  C   UNL     1      -1.360   5.726  -1.385  0.00  0.00    +0.252 C 
ATOM     25  O   UNL     1      -1.682   5.972  -0.184  0.00  0.00    -0.270 OA
ATOM     26  N   UNL     1      -0.069   5.335  -1.800  0.00  0.00    -0.206 N 
ATOM     27  C   UNL     1       1.126   5.568  -1.045  0.00  0.00    +0.329 C 
ATOM     28  N   UNL     1       2.396   5.103  -1.503  0.00  0.00    -0.188 NA
ATOM     29  O   UNL     1       1.102   6.235   0.033  0.00  0.00    -0.250 OA
ATOM     30  C   UNL     1      -0.071   5.304  -3.254  0.00  0.00    +0.125 C 
ATOM     31  C   UNL     1      -1.413   5.816  -3.641  0.00  0.00    -0.023 C 
ATOM     32  C   UNL     1      -1.902   5.745  -5.051  0.00  0.00    +0.028 C 
BRANCH  23  34
ATOM     33  C   UNL     1      -3.904   6.608  -2.606  0.00  0.00    +0.005 C 
ATOM     34  C   UNL     1      -3.606   6.162  -2.578  0.00  0.00    +0.030 C 
ENDBRANCH  23  34
ENDBRANCH  22  28
ENDBRANCH  21  22
ENDBRANCH   1  21
TORSDOF 7
ENDMDL
MODEL 5
REMARK VINA RESULT:      -9.8      3.315      9.371
REMARK  Name = 
REMARK  7 active torsions:
REMARK  status: ('A' for Active; 'I' for Inactive)
REMARK    1  A    between atoms: C_2  and  C_3
REMARK    2  A    between atoms: N_10  and  C_11
REMARK    3  A    between atoms: C_11  and  C_12
REMARK    4  A    between atoms: C_12  and  C_13
REMARK    5  A    between atoms: C_16  and  S_17
REMARK    6  A    between atoms: S_17  and  N_20
REMARK    7  A    between atoms: N_23  and  C_24
REMARK                            x       y       z     vdW  Elec       q    Type
REMARK                         _______ _______ _______ _____ _____    ______ ____
ROOT
ATOM      1  C   UNL     1      -2.429   6.923  -4.275  0.00  0.00    -0.020 A 
ATOM      2  C   UNL     1      -2.754   6.184  -5.411  0.00  0.00    -0.003 A 
ATOM      3  C   UNL     1      -1.788   5.861  -6.362  0.00  0.00    +0.020 A 
ATOM      4  C   UNL     1      -0.475   6.293  -6.207  0.00  0.00    +0.127 A 
ATOM      5  C   UNL     1      -0.362   7.451  -5.443  0.00  0.00    +0.020 A 
ATOM      6  C   UNL     1      -1.342   7.764  -4.505  0.00  0.00    -0.003 A 
ENDROOT
BRANCH   4   7
ATOM      7  S   UNL     1       0.883   5.246  -6.537  0.00  0.00    +0.097 S 
ATOM      8  O   UNL     1       0.746   3.892  -5.938  0.00  0.00    -0.148 OA
ATOM      9  O   UNL     1       2.152   5.860  -5.999  0.00  0.00    -0.148 OA
BRANCH   7  10
ATOM     10  N   UNL     1       1.017   5.203  -8.265  0.00  0.00    -0.040 NA
ATOM     11  C   UNL     1       2.132   4.642  -8.907  0.00  0.00    +0.360 C 
ATOM     12  N   UNL     1       2.697   5.072 -10.134  0.00  0.00    -0.188 NA
ATOM     13  O   UNL     1       2.690   3.660  -8.333  0.00  0.00    -0.247 OA
BRANCH  12  14
ATOM     14  C   UNL     1       4.288   5.213 -10.083  0.00  0.00    +0.097 C 
ATOM     15  C   UNL     1       4.200   6.875  -9.975  0.00  0.00    +0.022 C 
ATOM     16  C   UNL     1       5.402   7.352 -10.766  0.00  0.00    +0.002 C 
ATOM     17  C   UNL     1       6.496   6.113 -10.677  0.00  0.00    +0.000 C 
ATOM     18  C   UNL     1       7.600   6.943 -11.585  0.00  0.00    +0.000 C 
ATOM     19  C   UNL     1       5.862   5.389 -12.023  0.00  0.00    +0.002 C 
ATOM     20  C   UNL     1       4.385   5.282 -11.749  0.00  0.00    +0.022 C 
ENDBRANCH  12  14
ENDBRANCH   7  10
ENDBRANCH   4   7
BRANCH   1  21
ATOM     21  C   UNL     1      -2.740   6.416  -2.895  0.00  0.00    +0.050 C 
BRANCH  21  22
ATOM     22  C   UNL     1      -2.030   5.077  -2.772  0.00  0.00    +0.121 C 
BRANCH  22  28
ATOM     23  C   UNL     1       3.046   6.793  -0.037  0.00  0.00    +0.026 C 
ATOM     24  C   UNL     1       2.561   5.841  -1.024  0.00  0.00    +0.252 C 
ATOM     25  O   UNL     1       3.220   5.122  -1.833  0.00  0.00    -0.270 OA
ATOM     26  N   UNL     1       1.160   5.791  -0.871  0.00  0.00    -0.206 N 
ATOM     27  C   UNL     1       0.259   5.267  -1.855  0.00  0.00    +0.329 C 
ATOM     28  N   UNL     1      -1.147   5.202  -1.614  0.00  0.00    -0.188 NA
ATOM     29  O   UNL     1       0.676   4.888  -2.991  0.00  0.00    -0.250 OA
ATOM     30  C   UNL     1       0.781   6.869   0.028  0.00  0.00    +0.125 C 
ATOM     31  C   UNL     1       2.046   7.610   0.283  0.00  0.00    -0.023 C 
ATOM     32  C   UNL     1       2.134   8.672   1.330  0.00  0.00    +0.028 C 
BRANCH  23  34
ATOM     33  C   UNL     1       4.877   7.377  -0.264  0.00  0.00    +0.005 C 
ATOM     34  C   UNL     1       4.465   7.220   0.043  0.00  0.00    +0.030 C 
ENDBRANCH  23  34
ENDBRANCH  22  28
ENDBRANCH  21  22
ENDBRANCH   1  21
TORSDOF 7
ENDMDL
MODEL 6
REMARK VINA RESULT:      -9.7      3.382      5.013
REMARK  Name = 
REMARK  7 active torsions:
REMARK  status: ('A' for Active; 'I' for Inactive)
REMARK    1  A    between atoms: C_2  and  C_3
REMARK    2  A    between atoms: N_10  and  C_11
REMARK    3  A    between atoms: C_11  and  C_12
REMARK    4  A    between atoms: C_12  and  C_13
REMARK    5  A    between atoms: C_16  and  S_17
REMARK    6  A    between atoms: S_17  and  N_20
REMARK    7  A    between atoms: N_23  and  C_24
REMARK                            x       y       z     vdW  Elec       q    Type
REMARK                         _______ _______ _______ _____ _____    ______ ____
ROOT
ATOM      1  C   UNL     1      -0.272   5.604  -6.482  0.00  0.00    -0.020 A 
ATOM      2  C   UNL     1      -0.100   6.788  -5.767  0.00  0.00    -0.003 A 
ATOM      3  C   UNL     1      -1.036   7.203  -4.821  0.00  0.00    +0.020 A 
ATOM      4  C   UNL     1      -2.181   6.448  -4.586  0.00  0.00    +0.127 A 
ATOM      5  C   UNL     1      -2.567   5.677  -5.679  0.00  0.00    +0.020 A 
ATOM      6  C   UNL     1      -1.621   5.282  -6.620  0.00  0.00    -0.003 A 
ENDROOT
BRANCH   4   7
ATOM      7  S   UNL     1      -2.775   6.158  -2.971  0.00  0.00    +0.097 S 
ATOM      8  O   UNL     1      -4.185   5.686  -2.934  0.00  0.00    -0.148 OA
ATOM      9  O   UNL     1      -2.694   7.425  -2.155  0.00  0.00    -0.148 OA
BRANCH   7  10
ATOM     10  N   UNL     1      -1.670   5.018  -2.275  0.00  0.00    -0.040 NA
ATOM     11  C   UNL     1      -0.709   5.402  -1.327  0.00  0.00    +0.360 C 
ATOM     12  N   UNL     1       0.583   4.843  -1.168  0.00  0.00    -0.188 NA
ATOM     13  O   UNL     1      -1.026   6.344  -0.539  0.00  0.00    -0.247 OA
BRANCH  12  14
ATOM     14  C   UNL     1       1.736   5.941  -1.029  0.00  0.00    +0.097 C 
ATOM     15  C   UNL     1       1.737   6.239  -2.670  0.00  0.00    +0.022 C 
ATOM     16  C   UNL     1       3.194   6.516  -2.984  0.00  0.00    +0.002 C 
ATOM     17  C   UNL     1       3.839   7.089  -1.572  0.00  0.00    +0.000 C 
ATOM     18  C   UNL     1       5.331   7.274  -2.259  0.00  0.00    +0.000 C 
ATOM     19  C   UNL     1       4.211   5.559  -1.062  0.00  0.00    +0.002 C 
ATOM     20  C   UNL     1       2.928   4.782  -1.193  0.00  0.00    +0.022 C 
ENDBRANCH  12  14
ENDBRANCH   7  10
ENDBRANCH   4   7
BRANCH   1  21
ATOM     21  C   UNL     1       0.787   4.538  -6.499  0.00  0.00    +0.050 C 
BRANCH  21  22
ATOM     22  C   UNL     1       2.102   5.251  -6.225  0.00  0.00    +0.121 C 
BRANCH  22  28
ATOM     23  C   UNL     1       6.083   6.260 -10.622  0.00  0.00    +0.026 C 
ATOM     24  C   UNL     1       4.674   6.445 -10.309  0.00  0.00    +0.252 C 
ATOM     25  O   UNL     1       3.805   7.143 -10.912  0.00  0.00    -0.270 OA
ATOM     26  N   UNL     1       4.400   5.608  -9.207  0.00  0.00    -0.206 N 
ATOM     27  C   UNL     1       3.252   5.740  -8.360  0.00  0.00    +0.329 C 
ATOM     28  N   UNL     1       3.011   4.827  -7.288  0.00  0.00    -0.188 NA
ATOM     29  O   UNL     1       2.436   6.700  -8.504  0.00  0.00    -0.250 OA
ATOM     30  C   UNL     1       5.673   5.110  -8.711  0.00  0.00    +0.125 C 
ATOM     31  C   UNL     1       6.698   5.812  -9.530  0.00  0.00    -0.023 C 
ATOM     32  C   UNL     1       8.140   5.425  -9.482  0.00  0.00    +0.028 C 
BRANCH  23  34
ATOM     33  C   UNL     1       6.810   7.149 -12.179  0.00  0.00    +0.005 C 
ATOM     34  C   UNL     1       6.792   7.061 -11.650  0.00  0.00    +0.030 C 
ENDBRANCH  23  34
ENDBRANCH  22  28
ENDBRANCH  21  22
ENDBRANCH   1  21
TORSDOF 7
ENDMDL
MODEL 7
REMARK VINA RESULT:      -9.7      2.710      8.276
REMARK  Name = 
REMARK  7 active torsions:
REMARK  status: ('A' for Active; 'I' for Inactive)
REMARK    1  A    between atoms: C_2  and  C_3
REMARK    2  A    between atoms: N_10  and  C_11
REMARK    3  A    between atoms: C_11  and  C_12
REMARK    4  A    between atoms: C_12  and  C_13
REMARK    5  A    between atoms: C_16  and  S_17
REMARK    6  A    between atoms: S_17  and  N_20
REMARK    7  A    between atoms: N_23  and  C_24
REMARK                            x       y       z     vdW  Elec       q    Type
REMARK                         _______ _______ _______ _____ _____    ______ ____
ROOT
ATOM      1  C   UNL     1       2.160   5.203 -10.114  0.00  0.00    -0.020 A 
ATOM      2  C   UNL     1       1.040   4.496 -10.547  0.00  0.00    -0.003 A 
ATOM      3  C   UNL     1       0.464   4.749 -11.791  0.00  0.00    +0.020 A 
ATOM      4  C   UNL     1       0.987   5.735 -12.622  0.00  0.00    +0.127 A 
ATOM      5  C   UNL     1       1.656   6.741 -11.930  0.00  0.00    +0.020 A 
ATOM      6  C   UNL     1       2.215   6.475 -10.684  0.00  0.00    -0.003 A 
ENDROOT
BRANCH   4   7
ATOM      7  S   UNL     1       1.177   5.486 -14.339  0.00  0.00    +0.097 S 
ATOM      8  O   UNL     1       0.193   6.240 -15.160  0.00  0.00    -0.148 OA
ATOM      9  O   UNL     1       1.021   4.021 -14.669  0.00  0.00    -0.148 OA
BRANCH   7  10
ATOM     10  N   UNL     1       2.817   5.927 -14.687  0.00  0.00    -0.040 NA
ATOM     11  C   UNL     1       3.902   5.291 -14.068  0.00  0.00    +0.360 C 
ATOM     12  N   UNL     1       5.141   5.888 -13.726  0.00  0.00    -0.188 NA
ATOM     13  O   UNL     1       3.760   4.064 -13.782  0.00  0.00    -0.247 OA
BRANCH  12  14
ATOM     14  C   UNL     1       5.623   5.544 -12.241  0.00  0.00    +0.097 C 
ATOM     15  C   UNL     1       5.537   7.143 -11.776  0.00  0.00    +0.022 C 
ATOM     16  C   UNL     1       6.693   7.299 -10.808  0.00  0.00    +0.002 C 
ATOM     17  C   UNL     1       6.937   5.787 -10.180  0.00  0.00    +0.000 C 
ATOM     18  C   UNL     1       8.181   6.318  -9.229  0.00  0.00    +0.000 C 
ATOM     19  C   UNL     1       7.978   5.391 -11.404  0.00  0.00    +0.002 C 
ATOM     20  C   UNL     1       7.228   5.709 -12.671  0.00  0.00    +0.022 C 
ENDBRANCH  12  14
ENDBRANCH   7  10
ENDBRANCH   4   7
BRANCH   1  21
ATOM     21  C   UNL     1       3.410   4.496  -9.671  0.00  0.00    +0.050 C 
BRANCH  21  22
ATOM     22  C   UNL     1       3.735   5.046  -8.291  0.00  0.00    +0.121 C 
BRANCH  22  28
ATOM     23  C   UNL     1      -0.983   6.346  -4.789  0.00  0.00    +0.026 C 
ATOM     24  C   UNL     1       0.470   6.422  -4.802  0.00  0.00    +0.252 C 
ATOM     25  O   UNL     1       1.245   7.050  -4.020  0.00  0.00    -0.270 OA
ATOM     26  N   UNL     1       0.902   5.570  -5.840  0.00  0.00    -0.206 N 
ATOM     27  C   UNL     1       2.207   5.616  -6.429  0.00  0.00    +0.329 C 
ATOM     28  N   UNL     1       2.596   4.690  -7.446  0.00  0.00    -0.188 NA
ATOM     29  O   UNL     1       3.045   6.510  -6.103  0.00  0.00    -0.250 OA
ATOM     30  C   UNL     1      -0.274   5.172  -6.596  0.00  0.00    +0.125 C 
ATOM     31  C   UNL     1      -1.391   5.949  -5.992  0.00  0.00    -0.023 C 
ATOM     32  C   UNL     1      -2.816   5.673  -6.343  0.00  0.00    +0.028 C 
BRANCH  23  34
ATOM     33  C   UNL     1      -2.023   7.694  -3.871  0.00  0.00    +0.005 C 
ATOM     34  C   UNL     1      -1.827   7.196  -3.915  0.00  0.00    +0.030 C 
ENDBRANCH  23  34
ENDBRANCH  22  28
ENDBRANCH  21  22
ENDBRANCH   1  21
TORSDOF 7
ENDMDL
MODEL 8
REMARK VINA RESULT:      -9.6      4.333     10.602
REMARK  Name = 
REMARK  7 active torsions:
REMARK  status: ('A' for Active; 'I' for Inactive)
REMARK    1  A    between atoms: C_2  and  C_3
REMARK    2  A    between atoms: N_10  and  C_11
REMARK    3  A    between atoms: C_11  and  C_12
REMARK    4  A    between atoms: C_12  and  C_13
REMARK    5  A    between atoms: C_16  and  S_17
REMARK    6  A    between atoms: S_17  and  N_20
REMARK    7  A    between atoms: N_23  and  C_24
REMARK                            x       y       z     vdW  Elec       q    Type
REMARK                         _______ _______ _______ _____ _____    ______ ____
ROOT
ATOM      1  C   UNL     1      -2.604   6.384  -4.409  0.00  0.00    -0.020 A 
ATOM      2  C   UNL     1      -2.783   5.811  -5.667  0.00  0.00    -0.003 A 
ATOM      3  C   UNL     1      -1.720   5.685  -6.560  0.00  0.00    +0.020 A 
ATOM      4  C   UNL     1      -0.455   6.152  -6.219  0.00  0.00    +0.127 A 
ATOM      5  C   UNL     1      -0.482   7.185  -5.286  0.00  0.00    +0.020 A 
ATOM      6  C   UNL     1      -1.556   7.304  -4.410  0.00  0.00    -0.003 A 
ENDROOT
BRANCH   4   7
ATOM      7  S   UNL     1       0.989   5.237  -6.570  0.00  0.00    +0.097 S 
ATOM      8  O   UNL     1       0.991   3.878  -5.966  0.00  0.00    -0.148 OA
ATOM      9  O   UNL     1       2.204   5.969  -6.054  0.00  0.00    -0.148 OA
BRANCH   7  10
ATOM     10  N   UNL     1       1.098   5.199  -8.300  0.00  0.00    -0.040 NA
ATOM     11  C   UNL     1       2.200   4.634  -8.960  0.00  0.00    +0.360 C 
ATOM     12  N   UNL     1       2.750   5.065 -10.193  0.00  0.00    -0.188 NA
ATOM     13  O   UNL     1       2.760   3.646  -8.397  0.00  0.00    -0.247 OA
BRANCH  12  14
ATOM     14  C   UNL     1       4.343   5.196 -10.164  0.00  0.00    +0.097 C 
ATOM     15  C   UNL     1       4.267   6.857 -10.029  0.00  0.00    +0.022 C 
ATOM     16  C   UNL     1       5.459   7.338 -10.831  0.00  0.00    +0.002 C 
ATOM     17  C   UNL     1       6.547   6.091 -10.779  0.00  0.00    +0.000 C 
ATOM     18  C   UNL     1       7.642   6.930 -11.690  0.00  0.00    +0.000 C 
ATOM     19  C   UNL     1       5.888   5.392 -12.126  0.00  0.00    +0.002 C 
ATOM     20  C   UNL     1       4.415   5.291 -11.830  0.00  0.00    +0.022 C 
ENDBRANCH  12  14
ENDBRANCH   7  10
ENDBRANCH   4   7
BRANCH   1  21
ATOM     21  C   UNL     1      -3.000   5.659  -3.154  0.00  0.00    +0.050 C 
BRANCH  21  22
ATOM     22  C   UNL     1      -1.720   5.050  -2.602  0.00  0.00    +0.121 C 
BRANCH  22  28
ATOM     23  C   UNL     1       0.070   8.966   1.601  0.00  0.00    +0.026 C 
ATOM     24  C   UNL     1       0.604   7.977   0.678  0.00  0.00    +0.252 C 
ATOM     25  O   UNL     1       1.806   7.771   0.333  0.00  0.00    -0.270 OA
ATOM     26  N   UNL     1      -0.490   7.188   0.265  0.00  0.00    -0.206 N 
ATOM     27  C   UNL     1      -0.485   6.344  -0.893  0.00  0.00    +0.329 C 
ATOM     28  N   UNL     1      -1.613   5.534  -1.227  0.00  0.00    -0.188 NA
ATOM     29  O   UNL     1       0.504   6.324  -1.687  0.00  0.00    -0.250 OA
ATOM     30  C   UNL     1      -1.700   7.838   0.742  0.00  0.00    +0.125 C 
ATOM     31  C   UNL     1      -1.229   9.111   1.352  0.00  0.00    -0.023 C 
ATOM     32  C   UNL     1      -2.142   9.982   2.152  0.00  0.00    +0.028 C 
BRANCH  23  34
ATOM     33  C   UNL     1       1.173  10.201   2.602  0.00  0.00    +0.005 C 
ATOM     34  C   UNL     1       0.889  10.066   2.166  0.00  0.00    +0.030 C 
ENDBRANCH  23  34
ENDBRANCH  22  28
ENDBRANCH  21  22
ENDBRANCH   1  21
TORSDOF 7
ENDMDL
MODEL 9
REMARK VINA RESULT:      -9.6      3.618      6.939
REMARK  Name = 
REMARK  7 active torsions:
REMARK  status: ('A' for Active; 'I' for Inactive)
REMARK    1  A    between atoms: C_2  and  C_3
REMARK    2  A    between atoms: N_10  and  C_11
REMARK    3  A    between atoms: C_11  and  C_12
REMARK    4  A    between atoms: C_12  and  C_13
REMARK    5  A    between atoms: C_16  and  S_17
REMARK    6  A    between atoms: S_17  and  N_20
REMARK    7  A    between atoms: N_23  and  C_24
REMARK                            x       y       z     vdW  Elec       q    Type
REMARK                         _______ _______ _______ _____ _____    ______ ____
ROOT
ATOM      1  C   UNL     1       3.282   5.591  -5.073  0.00  0.00    -0.020 A 
ATOM      2  C   UNL     1       4.390   4.946  -4.526  0.00  0.00    -0.003 A 
ATOM      3  C   UNL     1       4.752   5.139  -3.194  0.00  0.00    +0.020 A 
ATOM      4  C   UNL     1       4.021   6.002  -2.384  0.00  0.00    +0.127 A 
ATOM      5  C   UNL     1       3.366   7.003  -3.095  0.00  0.00    +0.020 A 
ATOM      6  C   UNL     1       3.022   6.799  -4.428  0.00  0.00    -0.003 A 
ENDROOT
BRANCH   4   7
ATOM      7  S   UNL     1       3.609   5.591  -0.738  0.00  0.00    +0.097 S 
ATOM      8  O   UNL     1       4.507   6.212   0.271  0.00  0.00    -0.148 OA
ATOM      9  O   UNL     1       3.673   4.095  -0.548  0.00  0.00    -0.148 OA
BRANCH   7  10
ATOM     10  N   UNL     1       1.954   6.071  -0.547  0.00  0.00    -0.040 NA
ATOM     11  C   UNL     1       0.904   5.369  -1.159  0.00  0.00    +0.360 C 
ATOM     12  N   UNL     1      -0.305   5.926  -1.644  0.00  0.00    -0.188 NA
ATOM     13  O   UNL     1       1.055   4.118  -1.296  0.00  0.00    -0.247 OA
BRANCH  12  14
ATOM     14  C   UNL     1      -0.694   5.417  -3.109  0.00  0.00    +0.097 C 
ATOM     15  C   UNL     1      -0.388   6.913  -3.778  0.00  0.00    +0.022 C 
ATOM     16  C   UNL     1      -1.432   7.040  -4.869  0.00  0.00    +0.002 C 
ATOM     17  C   UNL     1      -1.792   5.485  -5.305  0.00  0.00    +0.000 C 
ATOM     18  C   UNL     1      -2.882   5.992  -6.440  0.00  0.00    +0.000 C 
ATOM     19  C   UNL     1      -2.972   5.380  -4.150  0.00  0.00    +0.002 C 
ATOM     20  C   UNL     1      -2.302   5.804  -2.870  0.00  0.00    +0.022 C 
ENDBRANCH  12  14
ENDBRANCH   7  10
ENDBRANCH   4   7
BRANCH   1  21
ATOM     21  C   UNL     1       2.184   4.821  -5.752  0.00  0.00    +0.050 C 
BRANCH  21  22
ATOM     22  C   UNL     1       2.724   4.444  -7.123  0.00  0.00    +0.121 C 
BRANCH  22  28
ATOM     23  C   UNL     1       1.065   6.876 -12.370  0.00  0.00    +0.026 C 
ATOM     24  C   UNL     1       2.180   6.175 -11.752  0.00  0.00    +0.252 C 
ATOM     25  O   UNL     1       3.195   5.648 -12.298  0.00  0.00    -0.270 OA
ATOM     26  N   UNL     1       1.972   6.252 -10.359  0.00  0.00    -0.206 N 
ATOM     27  C   UNL     1       2.619   5.406  -9.400  0.00  0.00    +0.329 C 
ATOM     28  N   UNL     1       2.399   5.569  -7.998  0.00  0.00    -0.188 NA
ATOM     29  O   UNL     1       3.372   4.454  -9.766  0.00  0.00    -0.250 OA
ATOM     30  C   UNL     1       0.634   6.779 -10.147  0.00  0.00    +0.125 C 
ATOM     31  C   UNL     1       0.050   6.887 -11.510  0.00  0.00    -0.023 C 
ATOM     32  C   UNL     1      -1.246   7.589 -11.754  0.00  0.00    +0.028 C 
BRANCH  23  34
ATOM     33  C   UNL     1       1.074   7.094 -14.293  0.00  0.00    +0.005 C 
ATOM     34  C   UNL     1       0.851   6.916 -13.838  0.00  0.00    +0.030 C 
ENDBRANCH  23  34
ENDBRANCH  22  28
ENDBRANCH  21  22
ENDBRANCH   1  21
TORSDOF 7
ENDMDL
