MODEL 1
REMARK VINA RESULT:      -6.2      0.000      0.000
REMARK  Name = 
REMARK  5 active torsions:
REMARK  status: ('A' for Active; 'I' for Inactive)
REMARK    1  A    between atoms: C_2  and  C_3
REMARK    2  A    between atoms: C_3  and  C_4
REMARK    3  A    between atoms: C_4  and  C_5
REMARK    4  A    between atoms: C_5  and  C_7
REMARK    5  A    between atoms: C_8  and  C_9
REMARK                            x       y       z     vdW  Elec       q    Type
REMARK                         _______ _______ _______ _____ _____    ______ ____
ROOT
ATOM      1  C   UNL     1       2.078   5.897  -5.754  0.00  0.00    +0.155 C 
ATOM      2  C   UNL     1       1.825   6.606  -7.026  0.00  0.00    +0.241 C 
ATOM      3  O   UNL     1       1.891   7.867  -7.007  0.00  0.00    -0.274 OA
ATOM      4  N   UNL     1       2.153   5.957  -8.259  0.00  0.00    -0.210 N 
ATOM      5  C   UNL     1       2.188   6.749  -9.485  0.00  0.00    +0.124 C 
ATOM      6  C   UNL     1       2.222   4.544  -8.278  0.00  0.00    +0.336 C 
ATOM      7  O   UNL     1       1.994   3.926  -9.354  0.00  0.00    -0.250 OA
ATOM      8  N   UNL     1       2.575   3.854  -7.075  0.00  0.00    -0.127 NA
ATOM      9  C   UNL     1       2.876   4.667  -5.949  0.00  0.00    +0.258 C 
ATOM     10  O   UNL     1       3.445   4.163  -4.963  0.00  0.00    -0.272 OA
ENDROOT
BRANCH   1  11
ATOM     11  C   UNL     1       0.577   5.344  -5.287  0.00  0.00    +0.081 C 
ATOM     12  C   UNL     1       0.964   5.473  -3.671  0.00  0.00    +0.015 C 
BRANCH  11  13
ATOM     13  C   UNL     1      -0.058   6.825  -5.306  0.00  0.00    -0.091 C 
ATOM     14  C   UNL     1      -0.972   7.496  -4.863  0.00  0.00    -0.091 C 
BRANCH  14  15
ATOM     15  C   UNL     1      -1.965   8.335  -4.206  0.00  0.00    +0.076 C 
ATOM     16  C   UNL     1      -2.269   7.698  -2.862  0.00  0.00    +0.015 C 
ENDBRANCH  14  15
ENDBRANCH  11  13
ENDBRANCH   1  11
BRANCH   1  17
ATOM     17  C   UNL     1       2.556   6.772  -4.650  0.00  0.00    +0.044 C 
BRANCH  17  19
ATOM     18  C   UNL     1       4.483   7.450  -4.684  0.00  0.00    -0.005 C 
ATOM     19  C   UNL     1       3.964   7.210  -4.763  0.00  0.00    -0.025 C 
ENDBRANCH  17  19
ENDBRANCH   1  17
TORSDOF 5
ENDMDL
MODEL 2
REMARK VINA RESULT:      -5.8      2.428      5.447
REMARK  Name = 
REMARK  5 active torsions:
REMARK  status: ('A' for Active; 'I' for Inactive)
REMARK    1  A    between atoms: C_2  and  C_3
REMARK    2  A    between atoms: C_3  and  C_4
REMARK    3  A    between atoms: C_4  and  C_5
REMARK    4  A    between atoms: C_5  and  C_7
REMARK    5  A    between atoms: C_8  and  C_9
REMARK                            x       y       z     vdW  Elec       q    Type
REMARK                         _______ _______ _______ _____ _____    ______ ____
ROOT
ATOM      1  C   UNL     1       2.768   5.342  -6.930  0.00  0.00    +0.155 C 
ATOM      2  C   UNL     1       3.378   6.548  -6.331  0.00  0.00    +0.241 C 
ATOM      3  O   UNL     1       2.940   7.668  -6.717  0.00  0.00    -0.274 OA
ATOM      4  N   UNL     1       3.891   6.477  -4.996  0.00  0.00    -0.210 N 
ATOM      5  C   UNL     1       4.215   7.718  -4.298  0.00  0.00    +0.124 C 
ATOM      6  C   UNL     1       4.261   5.211  -4.484  0.00  0.00    +0.336 C 
ATOM      7  O   UNL     1       5.149   5.139  -3.591  0.00  0.00    -0.250 OA
ATOM      8  N   UNL     1       3.597   4.045  -4.981  0.00  0.00    -0.127 NA
ATOM      9  C   UNL     1       2.568   4.265  -5.935  0.00  0.00    +0.258 C 
ATOM     10  O   UNL     1       1.775   3.344  -6.206  0.00  0.00    -0.272 OA
ENDROOT
BRANCH   1  11
ATOM     11  C   UNL     1       3.949   4.748  -7.945  0.00  0.00    +0.081 C 
ATOM     12  C   UNL     1       2.819   4.039  -8.945  0.00  0.00    +0.015 C 
BRANCH  11  13
ATOM     13  C   UNL     1       3.967   6.092  -8.834  0.00  0.00    -0.091 C 
ATOM     14  C   UNL     1       4.508   6.620  -9.788  0.00  0.00    -0.091 C 
BRANCH  14  15
ATOM     15  C   UNL     1       5.040   7.180 -11.023  0.00  0.00    +0.076 C 
ATOM     16  C   UNL     1       6.551   7.213 -10.885  0.00  0.00    +0.015 C 
ENDBRANCH  14  15
ENDBRANCH  11  13
ENDBRANCH   1  11
BRANCH   1  17
ATOM     17  C   UNL     1       1.586   5.614  -7.789  0.00  0.00    +0.044 C 
BRANCH  17  19
ATOM     18  C   UNL     1      -0.221   5.930  -6.887  0.00  0.00    -0.005 C 
ATOM     19  C   UNL     1       0.329   5.885  -7.056  0.00  0.00    -0.025 C 
ENDBRANCH  17  19
ENDBRANCH   1  17
TORSDOF 5
ENDMDL
MODEL 3
REMARK VINA RESULT:      -5.8      2.256      4.610
REMARK  Name = 
REMARK  5 active torsions:
REMARK  status: ('A' for Active; 'I' for Inactive)
REMARK    1  A    between atoms: C_2  and  C_3
REMARK    2  A    between atoms: C_3  and  C_4
REMARK    3  A    between atoms: C_4  and  C_5
REMARK    4  A    between atoms: C_5  and  C_7
REMARK    5  A    between atoms: C_8  and  C_9
REMARK                            x       y       z     vdW  Elec       q    Type
REMARK                         _______ _______ _______ _____ _____    ______ ____
ROOT
ATOM      1  C   UNL     1      -0.128   6.120  -5.327  0.00  0.00    +0.155 C 
ATOM      2  C   UNL     1       1.179   6.680  -5.731  0.00  0.00    +0.241 C 
ATOM      3  O   UNL     1       1.165   7.733  -6.428  0.00  0.00    -0.274 OA
ATOM      4  N   UNL     1       2.313   6.480  -4.880  0.00  0.00    -0.210 N 
ATOM      5  C   UNL     1       3.518   7.270  -5.113  0.00  0.00    +0.124 C 
ATOM      6  C   UNL     1       2.297   5.383  -3.985  0.00  0.00    +0.336 C 
ATOM      7  O   UNL     1       3.388   4.868  -3.617  0.00  0.00    -0.250 OA
ATOM      8  N   UNL     1       1.038   4.905  -3.502  0.00  0.00    -0.127 NA
ATOM      9  C   UNL     1      -0.113   5.615  -3.936  0.00  0.00    +0.258 C 
ATOM     10  O   UNL     1      -1.201   5.434  -3.357  0.00  0.00    -0.272 OA
ENDROOT
BRANCH   1  11
ATOM     11  C   UNL     1      -0.293   4.750  -6.261  0.00  0.00    +0.081 C 
ATOM     12  C   UNL     1      -1.891   5.092  -6.589  0.00  0.00    +0.015 C 
BRANCH  11  13
ATOM     13  C   UNL     1       0.196   5.509  -7.595  0.00  0.00    -0.091 C 
ATOM     14  C   UNL     1       0.257   5.404  -8.807  0.00  0.00    -0.091 C 
BRANCH  14  15
ATOM     15  C   UNL     1       0.179   5.349 -10.260  0.00  0.00    +0.076 C 
ATOM     16  C   UNL     1      -0.187   6.742 -10.741  0.00  0.00    +0.015 C 
ENDBRANCH  14  15
ENDBRANCH  11  13
ENDBRANCH   1  11
BRANCH   1  17
ATOM     17  C   UNL     1      -1.293   6.984  -5.655  0.00  0.00    +0.044 C 
BRANCH  17  19
ATOM     18  C   UNL     1      -1.774   8.506  -4.379  0.00  0.00    -0.005 C 
ATOM     19  C   UNL     1      -1.541   8.089  -4.702  0.00  0.00    -0.025 C 
ENDBRANCH  17  19
ENDBRANCH   1  17
TORSDOF 5
ENDMDL
MODEL 4
REMARK VINA RESULT:      -5.8      2.620      6.417
REMARK  Name = 
REMARK  5 active torsions:
REMARK  status: ('A' for Active; 'I' for Inactive)
REMARK    1  A    between atoms: C_2  and  C_3
REMARK    2  A    between atoms: C_3  and  C_4
REMARK    3  A    between atoms: C_4  and  C_5
REMARK    4  A    between atoms: C_5  and  C_7
REMARK    5  A    between atoms: C_8  and  C_9
REMARK                            x       y       z     vdW  Elec       q    Type
REMARK                         _______ _______ _______ _____ _____    ______ ____
ROOT
ATOM      1  C   UNL     1       2.169   5.841 -10.006  0.00  0.00    +0.155 C 
ATOM      2  C   UNL     1       2.496   6.625  -8.797  0.00  0.00    +0.241 C 
ATOM      3  O   UNL     1       2.399   7.882  -8.881  0.00  0.00    -0.274 OA
ATOM      4  N   UNL     1       2.273   6.042  -7.509  0.00  0.00    -0.210 N 
ATOM      5  C   UNL     1       2.307   6.902  -6.329  0.00  0.00    +0.124 C 
ATOM      6  C   UNL     1       2.238   4.631  -7.406  0.00  0.00    +0.336 C 
ATOM      7  O   UNL     1       2.558   4.081  -6.317  0.00  0.00    -0.250 OA
ATOM      8  N   UNL     1       1.816   3.867  -8.540  0.00  0.00    -0.127 NA
ATOM      9  C   UNL     1       1.416   4.608  -9.684  0.00  0.00    +0.258 C 
ATOM     10  O   UNL     1       0.790   4.038 -10.597  0.00  0.00    -0.272 OA
ENDROOT
BRANCH   1  11
ATOM     11  C   UNL     1       3.645   5.291 -10.549  0.00  0.00    +0.081 C 
ATOM     12  C   UNL     1       3.186   5.448 -12.143  0.00  0.00    +0.015 C 
BRANCH  11  13
ATOM     13  C   UNL     1       4.286   6.769 -10.534  0.00  0.00    -0.091 C 
ATOM     14  C   UNL     1       5.298   7.393 -10.799  0.00  0.00    -0.091 C 
BRANCH  14  15
ATOM     15  C   UNL     1       6.445   8.158 -11.267  0.00  0.00    +0.076 C 
ATOM     16  C   UNL     1       7.690   7.389 -10.864  0.00  0.00    +0.015 C 
ENDBRANCH  14  15
ENDBRANCH  11  13
ENDBRANCH   1  11
BRANCH   1  17
ATOM     17  C   UNL     1       1.593   6.641 -11.119  0.00  0.00    +0.044 C 
BRANCH  17  19
ATOM     18  C   UNL     1      -0.383   7.158 -11.046  0.00  0.00    -0.005 C 
ATOM     19  C   UNL     1       0.163   6.989 -10.966  0.00  0.00    -0.025 C 
ENDBRANCH  17  19
ENDBRANCH   1  17
TORSDOF 5
ENDMDL
MODEL 5
REMARK VINA RESULT:      -5.7      2.412      4.596
REMARK  Name = 
REMARK  5 active torsions:
REMARK  status: ('A' for Active; 'I' for Inactive)
REMARK    1  A    between atoms: C_2  and  C_3
REMARK    2  A    between atoms: C_3  and  C_4
REMARK    3  A    between atoms: C_4  and  C_5
REMARK    4  A    between atoms: C_5  and  C_7
REMARK    5  A    between atoms: C_8  and  C_9
REMARK                            x       y       z     vdW  Elec       q    Type
REMARK                         _______ _______ _______ _____ _____    ______ ____
ROOT
ATOM      1  C   UNL     1       0.958   5.693  -6.580  0.00  0.00    +0.155 C 
ATOM      2  C   UNL     1       0.406   6.384  -5.397  0.00  0.00    +0.241 C 
ATOM      3  O   UNL     1       1.127   7.270  -4.857  0.00  0.00    -0.274 OA
ATOM      4  N   UNL     1      -1.012   6.546  -5.286  0.00  0.00    -0.210 N 
ATOM      5  C   UNL     1      -1.541   7.475  -4.291  0.00  0.00    +0.124 C 
ATOM      6  C   UNL     1      -1.849   5.650  -5.993  0.00  0.00    +0.336 C 
ATOM      7  O   UNL     1      -3.008   5.409  -5.557  0.00  0.00    -0.250 OA
ATOM      8  N   UNL     1      -1.361   5.060  -7.202  0.00  0.00    -0.127 NA
ATOM      9  C   UNL     1      -0.066   5.466  -7.623  0.00  0.00    +0.258 C 
ATOM     10  O   UNL     1       0.311   5.211  -8.782  0.00  0.00    -0.272 OA
ENDROOT
BRANCH   1  11
ATOM     11  C   UNL     1       1.327   4.165  -6.027  0.00  0.00    +0.081 C 
ATOM     12  C   UNL     1       2.582   4.007  -7.112  0.00  0.00    +0.015 C 
BRANCH  11  13
ATOM     13  C   UNL     1       2.315   4.733  -4.888  0.00  0.00    -0.091 C 
ATOM     14  C   UNL     1       3.481   4.762  -4.539  0.00  0.00    -0.091 C 
BRANCH  14  15
ATOM     15  C   UNL     1       4.890   4.933  -4.214  0.00  0.00    +0.076 C 
ATOM     16  C   UNL     1       5.146   6.426  -4.106  0.00  0.00    +0.015 C 
ENDBRANCH  14  15
ENDBRANCH  11  13
ENDBRANCH   1  11
BRANCH   1  17
ATOM     17  C   UNL     1       2.234   6.265  -7.085  0.00  0.00    +0.044 C 
BRANCH  17  19
ATOM     18  C   UNL     1       2.194   8.063  -8.057  0.00  0.00    -0.005 C 
ATOM     19  C   UNL     1       2.109   7.580  -7.752  0.00  0.00    -0.025 C 
ENDBRANCH  17  19
ENDBRANCH   1  17
TORSDOF 5
ENDMDL
MODEL 6
REMARK VINA RESULT:      -5.6      4.147      5.582
REMARK  Name = 
REMARK  5 active torsions:
REMARK  status: ('A' for Active; 'I' for Inactive)
REMARK    1  A    between atoms: C_2  and  C_3
REMARK    2  A    between atoms: C_3  and  C_4
REMARK    3  A    between atoms: C_4  and  C_5
REMARK    4  A    between atoms: C_5  and  C_7
REMARK    5  A    between atoms: C_8  and  C_9
REMARK                            x       y       z     vdW  Elec       q    Type
REMARK                         _______ _______ _______ _____ _____    ______ ____
ROOT
ATOM      1  C   UNL     1       3.240   6.111  -1.690  0.00  0.00    +0.155 C 
ATOM      2  C   UNL     1       2.164   6.695  -2.519  0.00  0.00    +0.241 C 
ATOM      3  O   UNL     1       2.515   7.393  -3.512  0.00  0.00    -0.274 OA
ATOM      4  N   UNL     1       0.913   6.007  -2.619  0.00  0.00    -0.210 N 
ATOM      5  C   UNL     1      -0.033   6.410  -3.655  0.00  0.00    +0.124 C 
ATOM      6  C   UNL     1       0.554   5.110  -1.585  0.00  0.00    +0.336 C 
ATOM      7  O   UNL     1      -0.666   4.892  -1.350  0.00  0.00    -0.250 OA
ATOM      8  N   UNL     1       1.592   4.454  -0.849  0.00  0.00    -0.127 NA
ATOM      9  C   UNL     1       2.924   4.732  -1.258  0.00  0.00    +0.258 C 
ATOM     10  O   UNL     1       3.853   4.008  -0.855  0.00  0.00    -0.272 OA
ENDROOT
BRANCH   1  11
ATOM     11  C   UNL     1       3.202   7.003  -0.283  0.00  0.00    +0.081 C 
ATOM     12  C   UNL     1       4.829   6.759  -0.013  0.00  0.00    +0.015 C 
BRANCH  11  13
ATOM     13  C   UNL     1       3.486   8.384  -1.061  0.00  0.00    -0.091 C 
ATOM     14  C   UNL     1       3.505   9.594  -0.920  0.00  0.00    -0.091 C 
BRANCH  14  15
ATOM     15  C   UNL     1       3.687  11.023  -0.706  0.00  0.00    +0.076 C 
ATOM     16  C   UNL     1       3.508  11.278   0.780  0.00  0.00    +0.015 C 
ENDBRANCH  14  15
ENDBRANCH  11  13
ENDBRANCH   1  11
BRANCH   1  17
ATOM     17  C   UNL     1       4.606   6.283  -2.250  0.00  0.00    +0.044 C 
BRANCH  17  19
ATOM     18  C   UNL     1       5.099   5.302  -3.973  0.00  0.00    -0.005 C 
ATOM     19  C   UNL     1       4.862   5.556  -3.513  0.00  0.00    -0.025 C 
ENDBRANCH  17  19
ENDBRANCH   1  17
TORSDOF 5
ENDMDL
MODEL 7
REMARK VINA RESULT:      -5.4      2.306      5.881
REMARK  Name = 
REMARK  5 active torsions:
REMARK  status: ('A' for Active; 'I' for Inactive)
REMARK    1  A    between atoms: C_2  and  C_3
REMARK    2  A    between atoms: C_3  and  C_4
REMARK    3  A    between atoms: C_4  and  C_5
REMARK    4  A    between atoms: C_5  and  C_7
REMARK    5  A    between atoms: C_8  and  C_9
REMARK                            x       y       z     vdW  Elec       q    Type
REMARK                         _______ _______ _______ _____ _____    ______ ____
ROOT
ATOM      1  C   UNL     1       2.517   5.511  -8.472  0.00  0.00    +0.155 C 
ATOM      2  C   UNL     1       1.854   6.573  -7.686  0.00  0.00    +0.241 C 
ATOM      3  O   UNL     1       1.280   7.495  -8.331  0.00  0.00    -0.274 OA
ATOM      4  N   UNL     1       1.319   6.252  -6.397  0.00  0.00    -0.210 N 
ATOM      5  C   UNL     1       0.414   7.199  -5.754  0.00  0.00    +0.124 C 
ATOM      6  C   UNL     1       1.849   5.136  -5.708  0.00  0.00    +0.336 C 
ATOM      7  O   UNL     1       1.811   5.111  -4.447  0.00  0.00    -0.250 OA
ATOM      8  N   UNL     1       2.394   4.051  -6.466  0.00  0.00    -0.127 NA
ATOM      9  C   UNL     1       2.315   4.170  -7.880  0.00  0.00    +0.258 C 
ATOM     10  O   UNL     1       2.516   3.169  -8.592  0.00  0.00    -0.272 OA
ENDROOT
BRANCH   1  11
ATOM     11  C   UNL     1       4.144   5.808  -8.272  0.00  0.00    +0.081 C 
ATOM     12  C   UNL     1       4.562   4.427  -9.107  0.00  0.00    +0.015 C 
BRANCH  11  13
ATOM     13  C   UNL     1       4.222   6.703  -9.610  0.00  0.00    -0.091 C 
ATOM     14  C   UNL     1       5.001   7.255 -10.366  0.00  0.00    -0.091 C 
BRANCH  14  15
ATOM     15  C   UNL     1       5.936   7.772 -11.356  0.00  0.00    +0.076 C 
ATOM     16  C   UNL     1       7.300   7.193 -11.027  0.00  0.00    +0.015 C 
ENDBRANCH  14  15
ENDBRANCH  11  13
ENDBRANCH   1  11
BRANCH   1  17
ATOM     17  C   UNL     1       2.263   5.582  -9.935  0.00  0.00    +0.044 C 
BRANCH  17  19
ATOM     18  C   UNL     1       0.437   5.011 -10.654  0.00  0.00    -0.005 C 
ATOM     19  C   UNL     1       0.911   5.152 -10.358  0.00  0.00    -0.025 C 
ENDBRANCH  17  19
ENDBRANCH   1  17
TORSDOF 5
ENDMDL
MODEL 8
REMARK VINA RESULT:      -5.3      2.188      2.691
REMARK  Name = 
REMARK  5 active torsions:
REMARK  status: ('A' for Active; 'I' for Inactive)
REMARK    1  A    between atoms: C_2  and  C_3
REMARK    2  A    between atoms: C_3  and  C_4
REMARK    3  A    between atoms: C_4  and  C_5
REMARK    4  A    between atoms: C_5  and  C_7
REMARK    5  A    between atoms: C_8  and  C_9
REMARK                            x       y       z     vdW  Elec       q    Type
REMARK                         _______ _______ _______ _____ _____    ______ ____
ROOT
ATOM      1  C   UNL     1       1.658   5.341  -8.173  0.00  0.00    +0.155 C 
ATOM      2  C   UNL     1       1.049   6.430  -8.964  0.00  0.00    +0.241 C 
ATOM      3  O   UNL     1       1.421   7.610  -8.706  0.00  0.00    -0.274 OA
ATOM      4  N   UNL     1       0.627   6.163 -10.306  0.00  0.00    -0.210 N 
ATOM      5  C   UNL     1       0.308   7.286 -11.182  0.00  0.00    +0.124 C 
ATOM      6  C   UNL     1       0.335   4.826 -10.665  0.00  0.00    +0.336 C 
ATOM      7  O   UNL     1      -0.489   4.599 -11.593  0.00  0.00    -0.250 OA
ATOM      8  N   UNL     1       1.005   3.764  -9.977  0.00  0.00    -0.127 NA
ATOM      9  C   UNL     1       1.961   4.153  -9.001  0.00  0.00    +0.258 C 
ATOM     10  O   UNL     1       2.766   3.310  -8.561  0.00  0.00    -0.272 OA
ENDROOT
BRANCH   1  11
ATOM     11  C   UNL     1       0.435   4.836  -7.160  0.00  0.00    +0.081 C 
ATOM     12  C   UNL     1       1.517   4.148  -6.096  0.00  0.00    +0.015 C 
BRANCH  11  13
ATOM     13  C   UNL     1       0.436   6.225  -6.344  0.00  0.00    -0.091 C 
ATOM     14  C   UNL     1      -0.268   6.960  -5.674  0.00  0.00    -0.091 C 
BRANCH  14  15
ATOM     15  C   UNL     1      -1.059   7.751  -4.741  0.00  0.00    +0.076 C 
ATOM     16  C   UNL     1      -2.490   7.254  -4.837  0.00  0.00    +0.015 C 
ENDBRANCH  14  15
ENDBRANCH  11  13
ENDBRANCH   1  11
BRANCH   1  17
ATOM     17  C   UNL     1       2.772   5.775  -7.288  0.00  0.00    +0.044 C 
BRANCH  17  19
ATOM     18  C   UNL     1       4.630   6.017  -8.105  0.00  0.00    -0.005 C 
ATOM     19  C   UNL     1       4.070   5.976  -7.969  0.00  0.00    -0.025 C 
ENDBRANCH  17  19
ENDBRANCH   1  17
TORSDOF 5
ENDMDL
MODEL 9
REMARK VINA RESULT:      -5.2      1.734      4.001
REMARK  Name = 
REMARK  5 active torsions:
REMARK  status: ('A' for Active; 'I' for Inactive)
REMARK    1  A    between atoms: C_2  and  C_3
REMARK    2  A    between atoms: C_3  and  C_4
REMARK    3  A    between atoms: C_4  and  C_5
REMARK    4  A    between atoms: C_5  and  C_7
REMARK    5  A    between atoms: C_8  and  C_9
REMARK                            x       y       z     vdW  Elec       q    Type
REMARK                         _______ _______ _______ _____ _____    ______ ____
ROOT
ATOM      1  C   UNL     1       2.649   6.294  -6.446  0.00  0.00    +0.155 C 
ATOM      2  C   UNL     1       2.684   4.881  -6.877  0.00  0.00    +0.241 C 
ATOM      3  O   UNL     1       2.027   4.051  -6.188  0.00  0.00    -0.274 OA
ATOM      4  N   UNL     1       2.851   4.582  -8.267  0.00  0.00    -0.210 N 
ATOM      5  C   UNL     1       2.589   3.224  -8.733  0.00  0.00    +0.124 C 
ATOM      6  C   UNL     1       3.461   5.554  -9.095  0.00  0.00    +0.336 C 
ATOM      7  O   UNL     1       4.080   5.185 -10.131  0.00  0.00    -0.250 OA
ATOM      8  N   UNL     1       3.338   6.935  -8.744  0.00  0.00    -0.127 NA
ATOM      9  C   UNL     1       2.558   7.225  -7.593  0.00  0.00    +0.258 C 
ATOM     10  O   UNL     1       2.184   8.394  -7.382  0.00  0.00    -0.272 OA
ENDROOT
BRANCH   1  11
ATOM     11  C   UNL     1       4.166   6.567  -5.814  0.00  0.00    +0.081 C 
ATOM     12  C   UNL     1       3.565   7.610  -4.661  0.00  0.00    +0.015 C 
BRANCH  11  13
ATOM     13  C   UNL     1       4.057   5.312  -4.810  0.00  0.00    -0.091 C 
ATOM     14  C   UNL     1       4.176   4.987  -3.642  0.00  0.00    -0.091 C 
BRANCH  14  15
ATOM     15  C   UNL     1       4.158   4.638  -2.229  0.00  0.00    +0.076 C 
ATOM     16  C   UNL     1       2.865   5.184  -1.650  0.00  0.00    +0.015 C 
ENDBRANCH  14  15
ENDBRANCH  11  13
ENDBRANCH   1  11
BRANCH   1  17
ATOM     17  C   UNL     1       1.689   6.576  -5.347  0.00  0.00    +0.044 C 
BRANCH  17  19
ATOM     18  C   UNL     1      -0.314   6.496  -5.747  0.00  0.00    -0.005 C 
ATOM     19  C   UNL     1       0.262   6.536  -5.736  0.00  0.00    -0.025 C 
ENDBRANCH  17  19
ENDBRANCH   1  17
TORSDOF 5
ENDMDL
