MODEL 1
REMARK VINA RESULT:      -6.0      0.000      0.000
REMARK  Name = 
REMARK  6 active torsions:
REMARK  status: ('A' for Active; 'I' for Inactive)
REMARK    1  A    between atoms: O_2  and  C_3
REMARK    2  A    between atoms: C_6  and  O_7
REMARK    3  A    between atoms: C_9  and  C_10
REMARK    4  A    between atoms: C_10  and  C_12
REMARK    5  A    between atoms: C_12  and  N_13
REMARK    6  A    between atoms: C_14  and  C_16
REMARK                            x       y       z     vdW  Elec       q    Type
REMARK                         _______ _______ _______ _____ _____    ______ ____
ROOT
ATOM      1  C   UNL     1       0.933   6.324 -11.669  0.00  0.00    +0.139 A 
ATOM      2  C   UNL     1       2.322   6.264 -11.712  0.00  0.00    +0.038 A 
ATOM      3  C   UNL     1       2.963   5.987 -10.517  0.00  0.00    +0.046 A 
ATOM      4  C   UNL     1       2.327   4.961  -9.817  0.00  0.00    +0.137 A 
ATOM      5  C   UNL     1       1.038   4.549 -10.145  0.00  0.00    +0.040 A 
ATOM      6  C   UNL     1       0.338   5.166 -11.177  0.00  0.00    +0.040 A 
ENDROOT
BRANCH   3   7
ATOM      7  C   UNL     1       4.540   5.517 -10.709  0.00  0.00    +0.199 C 
ATOM      8  O   UNL     1       4.396   5.303 -12.243  0.00  0.00    -0.216 OA
BRANCH   7   9
ATOM      9  C   UNL     1       5.031   7.115 -10.912  0.00  0.00    +0.153 C 
BRANCH   9  10
ATOM     10  N   UNL     1       6.172   7.070 -11.759  0.00  0.00    -0.201 NA
ATOM     11  C   UNL     1       7.489   6.725 -11.360  0.00  0.00    +0.261 C 
ATOM     12  O   UNL     1       7.777   7.050 -10.173  0.00  0.00    -0.272 OA
BRANCH  11  13
ATOM     13  C   UNL     1       8.422   5.941 -12.226  0.00  0.00    +0.196 C 
ATOM     14  N   UNL     1       7.814   4.717 -12.688  0.00  0.00    -0.121 NA
ENDBRANCH  11  13
ENDBRANCH   9  10
ENDBRANCH   7   9
ENDBRANCH   3   7
BRANCH   4  15
ATOM     15  O   UNL     1       2.936   4.261  -8.788  0.00  0.00    -0.472 OA
ATOM     16  C   UNL     1       2.364   4.149  -7.485  0.00  0.00    +0.252 C 
ENDBRANCH   4  15
BRANCH   1  18
ATOM     17  C   UNL     1       0.437   7.664 -13.173  0.00  0.00    +0.252 C 
ATOM     18  O   UNL     1       0.338   6.999 -12.738  0.00  0.00    -0.471 OA
ENDBRANCH   1  18
TORSDOF 6
ENDMDL
MODEL 2
REMARK VINA RESULT:      -5.7      6.551      9.639
REMARK  Name = 
REMARK  6 active torsions:
REMARK  status: ('A' for Active; 'I' for Inactive)
REMARK    1  A    between atoms: O_2  and  C_3
REMARK    2  A    between atoms: C_6  and  O_7
REMARK    3  A    between atoms: C_9  and  C_10
REMARK    4  A    between atoms: C_10  and  C_12
REMARK    5  A    between atoms: C_12  and  N_13
REMARK    6  A    between atoms: C_14  and  C_16
REMARK                            x       y       z     vdW  Elec       q    Type
REMARK                         _______ _______ _______ _____ _____    ______ ____
ROOT
ATOM      1  C   UNL     1       3.965   7.890  -2.920  0.00  0.00    +0.139 A 
ATOM      2  C   UNL     1       2.918   7.009  -3.173  0.00  0.00    +0.038 A 
ATOM      3  C   UNL     1       2.525   6.885  -4.495  0.00  0.00    +0.046 A 
ATOM      4  C   UNL     1       3.624   6.794  -5.351  0.00  0.00    +0.137 A 
ATOM      5  C   UNL     1       4.905   7.138  -4.929  0.00  0.00    +0.040 A 
ATOM      6  C   UNL     1       5.123   7.602  -3.636  0.00  0.00    +0.040 A 
ENDROOT
BRANCH   3   7
ATOM      7  C   UNL     1       1.595   5.544  -4.781  0.00  0.00    +0.199 C 
ATOM      8  O   UNL     1       1.198   5.374  -3.287  0.00  0.00    -0.216 OA
BRANCH   7   9
ATOM      9  C   UNL     1       0.246   6.503  -5.098  0.00  0.00    +0.153 C 
BRANCH   9  10
ATOM     10  N   UNL     1      -0.695   6.204  -4.075  0.00  0.00    -0.201 NA
ATOM     11  C   UNL     1      -2.107   6.244  -4.210  0.00  0.00    +0.261 C 
ATOM     12  O   UNL     1      -2.530   7.117  -5.021  0.00  0.00    -0.272 OA
BRANCH  11  13
ATOM     13  C   UNL     1      -3.016   5.264  -3.540  0.00  0.00    +0.196 C 
ATOM     14  N   UNL     1      -2.584   4.973  -2.195  0.00  0.00    -0.121 NA
ENDBRANCH  11  13
ENDBRANCH   9  10
ENDBRANCH   7   9
ENDBRANCH   3   7
BRANCH   4  15
ATOM     15  O   UNL     1       3.527   6.324  -6.652  0.00  0.00    -0.472 OA
ATOM     16  C   UNL     1       4.545   5.534  -7.265  0.00  0.00    +0.252 C 
ENDBRANCH   4  15
BRANCH   1  18
ATOM     17  C   UNL     1       3.661   8.751  -1.058  0.00  0.00    +0.252 C 
ATOM     18  O   UNL     1       4.068   8.318  -1.594  0.00  0.00    -0.471 OA
ENDBRANCH   1  18
TORSDOF 6
ENDMDL
MODEL 3
REMARK VINA RESULT:      -5.6      1.601      3.693
REMARK  Name = 
REMARK  6 active torsions:
REMARK  status: ('A' for Active; 'I' for Inactive)
REMARK    1  A    between atoms: O_2  and  C_3
REMARK    2  A    between atoms: C_6  and  O_7
REMARK    3  A    between atoms: C_9  and  C_10
REMARK    4  A    between atoms: C_10  and  C_12
REMARK    5  A    between atoms: C_12  and  N_13
REMARK    6  A    between atoms: C_14  and  C_16
REMARK                            x       y       z     vdW  Elec       q    Type
REMARK                         _______ _______ _______ _____ _____    ______ ____
ROOT
ATOM      1  C   UNL     1       1.821   4.717  -7.541  0.00  0.00    +0.139 A 
ATOM      2  C   UNL     1       2.780   5.215  -8.417  0.00  0.00    +0.038 A 
ATOM      3  C   UNL     1       2.457   5.188  -9.762  0.00  0.00    +0.046 A 
ATOM      4  C   UNL     1       1.146   5.610  -9.985  0.00  0.00    +0.137 A 
ATOM      5  C   UNL     1       0.224   5.698  -8.945  0.00  0.00    +0.040 A 
ATOM      6  C   UNL     1       0.585   5.347  -7.648  0.00  0.00    +0.040 A 
ENDROOT
BRANCH   3   7
ATOM      7  C   UNL     1       3.427   6.158 -10.692  0.00  0.00    +0.199 C 
ATOM      8  O   UNL     1       3.610   7.221  -9.572  0.00  0.00    -0.216 OA
BRANCH   7   9
ATOM      9  C   UNL     1       4.800   5.313 -10.206  0.00  0.00    +0.153 C 
BRANCH   9  10
ATOM     10  N   UNL     1       5.887   5.889 -10.919  0.00  0.00    -0.201 NA
ATOM     11  C   UNL     1       7.263   5.675 -10.648  0.00  0.00    +0.261 C 
ATOM     12  O   UNL     1       7.531   5.478  -9.429  0.00  0.00    -0.272 OA
BRANCH  11  13
ATOM     13  C   UNL     1       8.297   5.577 -11.724  0.00  0.00    +0.196 C 
ATOM     14  N   UNL     1       7.840   4.767 -12.826  0.00  0.00    -0.121 NA
ENDBRANCH  11  13
ENDBRANCH   9  10
ENDBRANCH   7   9
ENDBRANCH   3   7
BRANCH   4  15
ATOM     15  O   UNL     1       0.683   6.005 -11.231  0.00  0.00    -0.472 OA
ATOM     16  C   UNL     1      -0.293   7.032 -11.402  0.00  0.00    +0.252 C 
ENDBRANCH   4  15
BRANCH   1  18
ATOM     17  C   UNL     1       2.094   4.419  -5.506  0.00  0.00    +0.252 C 
ATOM     18  O   UNL     1       2.302   4.364  -6.277  0.00  0.00    -0.471 OA
ENDBRANCH   1  18
TORSDOF 6
ENDMDL
MODEL 4
REMARK VINA RESULT:      -5.5      5.962      8.060
REMARK  Name = 
REMARK  6 active torsions:
REMARK  status: ('A' for Active; 'I' for Inactive)
REMARK    1  A    between atoms: O_2  and  C_3
REMARK    2  A    between atoms: C_6  and  O_7
REMARK    3  A    between atoms: C_9  and  C_10
REMARK    4  A    between atoms: C_10  and  C_12
REMARK    5  A    between atoms: C_12  and  N_13
REMARK    6  A    between atoms: C_14  and  C_16
REMARK                            x       y       z     vdW  Elec       q    Type
REMARK                         _______ _______ _______ _____ _____    ______ ____
ROOT
ATOM      1  C   UNL     1      -1.765   5.476  -4.858  0.00  0.00    +0.139 A 
ATOM      2  C   UNL     1      -0.448   5.689  -4.464  0.00  0.00    +0.038 A 
ATOM      3  C   UNL     1       0.524   5.009  -5.177  0.00  0.00    +0.046 A 
ATOM      4  C   UNL     1       0.281   5.053  -6.550  0.00  0.00    +0.137 A 
ATOM      5  C   UNL     1      -0.959   5.434  -7.056  0.00  0.00    +0.040 A 
ATOM      6  C   UNL     1      -2.002   5.767  -6.198  0.00  0.00    +0.040 A 
ENDROOT
BRANCH   3   7
ATOM      7  C   UNL     1       2.050   5.614  -4.951  0.00  0.00    +0.199 C 
ATOM      8  O   UNL     1       1.662   7.045  -5.419  0.00  0.00    -0.216 OA
BRANCH   7   9
ATOM      9  C   UNL     1       1.708   5.977  -3.342  0.00  0.00    +0.153 C 
BRANCH   9  10
ATOM     10  N   UNL     1       2.947   5.895  -2.650  0.00  0.00    -0.201 NA
ATOM     11  C   UNL     1       3.700   6.995  -2.163  0.00  0.00    +0.261 C 
ATOM     12  O   UNL     1       3.599   8.046  -2.859  0.00  0.00    -0.272 OA
BRANCH  11  13
ATOM     13  C   UNL     1       4.457   6.955  -0.875  0.00  0.00    +0.196 C 
ATOM     14  N   UNL     1       4.309   5.683  -0.212  0.00  0.00    -0.121 NA
ENDBRANCH  11  13
ENDBRANCH   9  10
ENDBRANCH   7   9
ENDBRANCH   3   7
BRANCH   4  15
ATOM     15  O   UNL     1       1.252   4.764  -7.496  0.00  0.00    -0.472 OA
ATOM     16  C   UNL     1       1.248   5.333  -8.805  0.00  0.00    +0.252 C 
ENDBRANCH   4  15
BRANCH   1  18
ATOM     17  C   UNL     1      -3.164   5.469  -3.326  0.00  0.00    +0.252 C 
ATOM     18  O   UNL     1      -2.729   5.813  -3.903  0.00  0.00    -0.471 OA
ENDBRANCH   1  18
TORSDOF 6
ENDMDL
MODEL 5
REMARK VINA RESULT:      -5.4      1.942      2.566
REMARK  Name = 
REMARK  6 active torsions:
REMARK  status: ('A' for Active; 'I' for Inactive)
REMARK    1  A    between atoms: O_2  and  C_3
REMARK    2  A    between atoms: C_6  and  O_7
REMARK    3  A    between atoms: C_9  and  C_10
REMARK    4  A    between atoms: C_10  and  C_12
REMARK    5  A    between atoms: C_12  and  N_13
REMARK    6  A    between atoms: C_14  and  C_16
REMARK                            x       y       z     vdW  Elec       q    Type
REMARK                         _______ _______ _______ _____ _____    ______ ____
ROOT
ATOM      1  C   UNL     1       0.866   6.292  -9.561  0.00  0.00    +0.139 A 
ATOM      2  C   UNL     1       2.184   5.981  -9.878  0.00  0.00    +0.038 A 
ATOM      3  C   UNL     1       3.148   6.393  -8.974  0.00  0.00    +0.046 A 
ATOM      4  C   UNL     1       2.758   6.143  -7.657  0.00  0.00    +0.137 A 
ATOM      5  C   UNL     1       1.437   5.846  -7.334  0.00  0.00    +0.040 A 
ATOM      6  C   UNL     1       0.459   5.806  -8.323  0.00  0.00    +0.040 A 
ENDROOT
BRANCH   3   7
ATOM      7  C   UNL     1       4.610   5.641  -9.181  0.00  0.00    +0.199 C 
ATOM      8  O   UNL     1       3.996   4.213  -9.141  0.00  0.00    -0.216 OA
BRANCH   7   9
ATOM      9  C   UNL     1       4.459   5.730 -10.856  0.00  0.00    +0.153 C 
BRANCH   9  10
ATOM     10  N   UNL     1       5.756   5.475 -11.380  0.00  0.00    -0.201 NA
ATOM     11  C   UNL     1       6.075   5.280 -12.749  0.00  0.00    +0.261 C 
ATOM     12  O   UNL     1       5.160   4.729 -13.424  0.00  0.00    -0.272 OA
BRANCH  11  13
ATOM     13  C   UNL     1       7.337   5.786 -13.370  0.00  0.00    +0.196 C 
ATOM     14  N   UNL     1       8.501   5.333 -12.649  0.00  0.00    -0.121 NA
ENDBRANCH  11  13
ENDBRANCH   9  10
ENDBRANCH   7   9
ENDBRANCH   3   7
BRANCH   4  15
ATOM     15  O   UNL     1       3.651   6.133  -6.597  0.00  0.00    -0.472 OA
ATOM     16  C   UNL     1       3.560   7.044  -5.502  0.00  0.00    +0.252 C 
ENDBRANCH   4  15
BRANCH   1  18
ATOM     17  C   UNL     1      -0.286   6.725 -11.231  0.00  0.00    +0.252 C 
ATOM     18  O   UNL     1      -0.024   6.256 -10.638  0.00  0.00    -0.471 OA
ENDBRANCH   1  18
TORSDOF 6
ENDMDL
MODEL 6
REMARK VINA RESULT:      -5.4      5.319      7.361
REMARK  Name = 
REMARK  6 active torsions:
REMARK  status: ('A' for Active; 'I' for Inactive)
REMARK    1  A    between atoms: O_2  and  C_3
REMARK    2  A    between atoms: C_6  and  O_7
REMARK    3  A    between atoms: C_9  and  C_10
REMARK    4  A    between atoms: C_10  and  C_12
REMARK    5  A    between atoms: C_12  and  N_13
REMARK    6  A    between atoms: C_14  and  C_16
REMARK                            x       y       z     vdW  Elec       q    Type
REMARK                         _______ _______ _______ _____ _____    ______ ____
ROOT
ATOM      1  C   UNL     1      -2.228   5.383  -4.629  0.00  0.00    +0.139 A 
ATOM      2  C   UNL     1      -0.961   5.892  -4.364  0.00  0.00    +0.038 A 
ATOM      3  C   UNL     1       0.074   5.402  -5.143  0.00  0.00    +0.046 A 
ATOM      4  C   UNL     1      -0.287   5.326  -6.488  0.00  0.00    +0.137 A 
ATOM      5  C   UNL     1      -1.618   5.408  -6.890  0.00  0.00    +0.040 A 
ATOM      6  C   UNL     1      -2.633   5.551  -5.950  0.00  0.00    +0.040 A 
ENDROOT
BRANCH   3   7
ATOM      7  C   UNL     1       1.444   6.331  -5.075  0.00  0.00    +0.199 C 
ATOM      8  O   UNL     1       1.322   6.583  -3.546  0.00  0.00    -0.216 OA
BRANCH   7   9
ATOM      9  C   UNL     1       2.402   4.966  -4.840  0.00  0.00    +0.153 C 
BRANCH   9  10
ATOM     10  N   UNL     1       3.612   5.432  -4.256  0.00  0.00    -0.201 NA
ATOM     11  C   UNL     1       4.605   6.206  -4.911  0.00  0.00    +0.261 C 
ATOM     12  O   UNL     1       4.720   5.970  -6.147  0.00  0.00    -0.272 OA
BRANCH  11  13
ATOM     13  C   UNL     1       5.372   7.292  -4.227  0.00  0.00    +0.196 C 
ATOM     14  N   UNL     1       4.535   8.044  -3.325  0.00  0.00    -0.121 NA
ENDBRANCH  11  13
ENDBRANCH   9  10
ENDBRANCH   7   9
ENDBRANCH   3   7
BRANCH   4  15
ATOM     15  O   UNL     1       0.641   5.207  -7.511  0.00  0.00    -0.472 OA
ATOM     16  C   UNL     1       0.395   5.674  -8.837  0.00  0.00    +0.252 C 
ENDBRANCH   4  15
BRANCH   1  18
ATOM     17  C   UNL     1      -3.240   5.945  -2.908  0.00  0.00    +0.252 C 
ATOM     18  O   UNL     1      -3.159   5.551  -3.600  0.00  0.00    -0.471 OA
ENDBRANCH   1  18
TORSDOF 6
ENDMDL
MODEL 7
REMARK VINA RESULT:      -5.4      2.812      4.652
REMARK  Name = 
REMARK  6 active torsions:
REMARK  status: ('A' for Active; 'I' for Inactive)
REMARK    1  A    between atoms: O_2  and  C_3
REMARK    2  A    between atoms: C_6  and  O_7
REMARK    3  A    between atoms: C_9  and  C_10
REMARK    4  A    between atoms: C_10  and  C_12
REMARK    5  A    between atoms: C_12  and  N_13
REMARK    6  A    between atoms: C_14  and  C_16
REMARK                            x       y       z     vdW  Elec       q    Type
REMARK                         _______ _______ _______ _____ _____    ______ ____
ROOT
ATOM      1  C   UNL     1       0.335   5.187  -5.790  0.00  0.00    +0.139 A 
ATOM      2  C   UNL     1       1.286   6.027  -6.359  0.00  0.00    +0.038 A 
ATOM      3  C   UNL     1       1.559   5.829  -7.702  0.00  0.00    +0.046 A 
ATOM      4  C   UNL     1       0.391   5.636  -8.440  0.00  0.00    +0.137 A 
ATOM      5  C   UNL     1      -0.821   5.343  -7.820  0.00  0.00    +0.040 A 
ATOM      6  C   UNL     1      -0.896   5.217  -6.437  0.00  0.00    +0.040 A 
ENDROOT
BRANCH   3   7
ATOM      7  C   UNL     1       2.356   7.098  -8.406  0.00  0.00    +0.199 C 
ATOM      8  O   UNL     1       2.785   7.717  -7.046  0.00  0.00    -0.216 OA
BRANCH   7   9
ATOM      9  C   UNL     1       3.773   6.195  -8.517  0.00  0.00    +0.153 C 
BRANCH   9  10
ATOM     10  N   UNL     1       4.320   6.479  -9.798  0.00  0.00    -0.201 NA
ATOM     11  C   UNL     1       5.542   5.971 -10.310  0.00  0.00    +0.261 C 
ATOM     12  O   UNL     1       6.432   5.770  -9.435  0.00  0.00    -0.272 OA
BRANCH  11  13
ATOM     13  C   UNL     1       5.728   5.595 -11.745  0.00  0.00    +0.196 C 
ATOM     14  N   UNL     1       7.082   5.173 -12.011  0.00  0.00    -0.121 NA
ENDBRANCH  11  13
ENDBRANCH   9  10
ENDBRANCH   7   9
ENDBRANCH   3   7
BRANCH   4  15
ATOM     15  O   UNL     1       0.343   5.760  -9.820  0.00  0.00    -0.472 OA
ATOM     16  C   UNL     1       0.131   4.648 -10.689  0.00  0.00    +0.252 C 
ENDBRANCH   4  15
BRANCH   1  18
ATOM     17  C   UNL     1       0.715   5.479  -3.772  0.00  0.00    +0.252 C 
ATOM     18  O   UNL     1       0.375   5.109  -4.395  0.00  0.00    -0.471 OA
ENDBRANCH   1  18
TORSDOF 6
ENDMDL
MODEL 8
REMARK VINA RESULT:      -5.4      6.109      8.191
REMARK  Name = 
REMARK  6 active torsions:
REMARK  status: ('A' for Active; 'I' for Inactive)
REMARK    1  A    between atoms: O_2  and  C_3
REMARK    2  A    between atoms: C_6  and  O_7
REMARK    3  A    between atoms: C_9  and  C_10
REMARK    4  A    between atoms: C_10  and  C_12
REMARK    5  A    between atoms: C_12  and  N_13
REMARK    6  A    between atoms: C_14  and  C_16
REMARK                            x       y       z     vdW  Elec       q    Type
REMARK                         _______ _______ _______ _____ _____    ______ ____
ROOT
ATOM      1  C   UNL     1      -0.670   6.354  -4.928  0.00  0.00    +0.139 A 
ATOM      2  C   UNL     1       0.669   6.586  -4.628  0.00  0.00    +0.038 A 
ATOM      3  C   UNL     1       1.526   5.509  -4.770  0.00  0.00    +0.046 A 
ATOM      4  C   UNL     1       1.275   4.803  -5.947  0.00  0.00    +0.137 A 
ATOM      5  C   UNL     1       0.096   4.984  -6.666  0.00  0.00    +0.040 A 
ATOM      6  C   UNL     1      -0.878   5.868  -6.215  0.00  0.00    +0.040 A 
ENDROOT
BRANCH   3   7
ATOM      7  C   UNL     1       3.125   5.942  -4.814  0.00  0.00    +0.199 C 
ATOM      8  O   UNL     1       2.906   7.226  -3.965  0.00  0.00    -0.216 OA
BRANCH   7   9
ATOM      9  C   UNL     1       3.452   5.014  -3.447  0.00  0.00    +0.153 C 
BRANCH   9  10
ATOM     10  N   UNL     1       3.419   5.913  -2.346  0.00  0.00    -0.201 NA
ATOM     11  C   UNL     1       4.097   5.740  -1.112  0.00  0.00    +0.261 C 
ATOM     12  O   UNL     1       4.228   4.536  -0.753  0.00  0.00    -0.272 OA
BRANCH  11  13
ATOM     13  C   UNL     1       4.710   6.875  -0.355  0.00  0.00    +0.196 C 
ATOM     14  N   UNL     1       4.457   6.765   1.061  0.00  0.00    -0.121 NA
ENDBRANCH  11  13
ENDBRANCH   9  10
ENDBRANCH   7   9
ENDBRANCH   3   7
BRANCH   4  15
ATOM     15  O   UNL     1       2.184   3.914  -6.501  0.00  0.00    -0.472 OA
ATOM     16  C   UNL     1       2.531   3.926  -7.885  0.00  0.00    +0.252 C 
ENDBRANCH   4  15
BRANCH   1  18
ATOM     17  C   UNL     1      -1.984   7.929  -4.619  0.00  0.00    +0.252 C 
ATOM     18  O   UNL     1      -1.564   7.286  -4.394  0.00  0.00    -0.471 OA
ENDBRANCH   1  18
TORSDOF 6
ENDMDL
MODEL 9
REMARK VINA RESULT:      -5.4      5.799      7.713
REMARK  Name = 
REMARK  6 active torsions:
REMARK  status: ('A' for Active; 'I' for Inactive)
REMARK    1  A    between atoms: O_2  and  C_3
REMARK    2  A    between atoms: C_6  and  O_7
REMARK    3  A    between atoms: C_9  and  C_10
REMARK    4  A    between atoms: C_10  and  C_12
REMARK    5  A    between atoms: C_12  and  N_13
REMARK    6  A    between atoms: C_14  and  C_16
REMARK                            x       y       z     vdW  Elec       q    Type
REMARK                         _______ _______ _______ _____ _____    ______ ____
ROOT
ATOM      1  C   UNL     1       0.249   5.791  -7.580  0.00  0.00    +0.139 A 
ATOM      2  C   UNL     1       0.879   5.966  -6.352  0.00  0.00    +0.038 A 
ATOM      3  C   UNL     1       0.170   6.666  -5.391  0.00  0.00    +0.046 A 
ATOM      4  C   UNL     1      -1.166   6.265  -5.343  0.00  0.00    +0.137 A 
ATOM      5  C   UNL     1      -1.738   5.518  -6.370  0.00  0.00    +0.040 A 
ATOM      6  C   UNL     1      -0.990   5.164  -7.488  0.00  0.00    +0.040 A 
ENDROOT
BRANCH   3   7
ATOM      7  C   UNL     1       0.772   6.476  -3.860  0.00  0.00    +0.199 C 
ATOM      8  O   UNL     1       0.896   4.931  -3.990  0.00  0.00    -0.216 OA
BRANCH   7   9
ATOM      9  C   UNL     1       2.346   6.714  -4.410  0.00  0.00    +0.153 C 
BRANCH   9  10
ATOM     10  N   UNL     1       3.185   5.982  -3.525  0.00  0.00    -0.201 NA
ATOM     11  C   UNL     1       3.588   6.398  -2.230  0.00  0.00    +0.261 C 
ATOM     12  O   UNL     1       3.715   7.648  -2.098  0.00  0.00    -0.272 OA
BRANCH  11  13
ATOM     13  C   UNL     1       3.738   5.451  -1.082  0.00  0.00    +0.196 C 
ATOM     14  N   UNL     1       4.288   6.108   0.079  0.00  0.00    -0.121 NA
ENDBRANCH  11  13
ENDBRANCH   9  10
ENDBRANCH   7   9
ENDBRANCH   3   7
BRANCH   4  15
ATOM     15  O   UNL     1      -1.997   6.541  -4.269  0.00  0.00    -0.472 OA
ATOM     16  C   UNL     1      -2.838   5.557  -3.669  0.00  0.00    +0.252 C 
ENDBRANCH   4  15
BRANCH   1  18
ATOM     17  C   UNL     1       1.693   4.964  -8.817  0.00  0.00    +0.252 C 
ATOM     18  O   UNL     1       1.101   5.472  -8.641  0.00  0.00    -0.471 OA
ENDBRANCH   1  18
TORSDOF 6
ENDMDL
