MODEL 1
REMARK VINA RESULT:      -7.9      0.000      0.000
REMARK  Name = 
REMARK  5 active torsions:
REMARK  status: ('A' for Active; 'I' for Inactive)
REMARK    1  A    between atoms: C_6  and  O_7
REMARK    2  A    between atoms: O_7  and  C_8
REMARK    3  A    between atoms: C_8  and  C_10
REMARK    4  A    between atoms: C_10  and  C_12
REMARK    5  A    between atoms: C_10  and  C_18
REMARK                            x       y       z     vdW  Elec       q    Type
REMARK                         _______ _______ _______ _____ _____    ______ ____
ROOT
ATOM      1  C   UNL     1       2.491   4.770  -6.711  0.00  0.00    +0.233 C 
ATOM      2  O   UNL     1       2.191   3.525  -6.148  0.00  0.00    -0.210 OA
ENDROOT
BRANCH   1   3
ATOM      3  C   UNL     1       3.618   5.392  -5.938  0.00  0.00    +0.015 A 
ATOM      4  C   UNL     1       3.758   6.756  -5.872  0.00  0.00    -0.001 A 
ATOM      5  C   UNL     1       4.161   7.390  -4.713  0.00  0.00    -0.000 A 
ATOM      6  C   UNL     1       4.481   6.649  -3.600  0.00  0.00    -0.000 A 
ATOM      7  C   UNL     1       4.748   5.300  -3.784  0.00  0.00    -0.000 A 
ATOM      8  C   UNL     1       4.202   4.676  -4.899  0.00  0.00    -0.001 A 
ENDBRANCH   1   3
BRANCH   1   9
ATOM      9  C   UNL     1       1.317   5.674  -6.513  0.00  0.00    +0.043 C 
ATOM     10  C   UNL     1       0.187   5.469  -7.465  0.00  0.00    +0.003 C 
ATOM     11  C   UNL     1      -1.050   5.882  -6.672  0.00  0.00    +0.000 C 
ATOM     12  C   UNL     1      -0.734   5.463  -5.241  0.00  0.00    +0.000 C 
ATOM     13  C   UNL     1       0.759   5.454  -5.108  0.00  0.00    +0.003 C 
ENDBRANCH   1   9
BRANCH   1  14
ATOM     14  C   UNL     1       2.930   4.613  -8.105  0.00  0.00    +0.349 C 
ATOM     15  O   UNL     1       2.610   3.519  -8.665  0.00  0.00    -0.247 OA
BRANCH  14  16
ATOM     16  O   UNL     1       3.278   5.675  -8.943  0.00  0.00    -0.444 OA
BRANCH  16  20
ATOM     17  C   UNL     1       5.959   5.725 -11.801  0.00  0.00    +0.171 C 
ATOM     18  N   UNL     1       5.866   6.518 -11.039  0.00  0.00    +0.309 N 
ATOM     19  C   UNL     1       4.527   6.826 -10.531  0.00  0.00    +0.153 C 
ATOM     20  C   UNL     1       4.277   5.245 -10.063  0.00  0.00    +0.229 C 
ATOM     21  C   UNL     1       5.569   5.319  -9.011  0.00  0.00    +0.111 C 
ATOM     22  C   UNL     1       6.517   6.162  -9.801  0.00  0.00    +0.113 C 
ATOM     23  C   UNL     1       6.458   7.750 -11.511  0.00  0.00    +0.171 C 
ENDBRANCH  16  20
ENDBRANCH  14  16
ENDBRANCH   1  14
TORSDOF 5
ENDMDL
MODEL 2
REMARK VINA RESULT:      -7.7      2.923      6.843
REMARK  Name = 
REMARK  5 active torsions:
REMARK  status: ('A' for Active; 'I' for Inactive)
REMARK    1  A    between atoms: C_6  and  O_7
REMARK    2  A    between atoms: O_7  and  C_8
REMARK    3  A    between atoms: C_8  and  C_10
REMARK    4  A    between atoms: C_10  and  C_12
REMARK    5  A    between atoms: C_10  and  C_18
REMARK                            x       y       z     vdW  Elec       q    Type
REMARK                         _______ _______ _______ _____ _____    ______ ____
ROOT
ATOM      1  C   UNL     1       2.188   4.629  -8.468  0.00  0.00    +0.233 C 
ATOM      2  O   UNL     1       2.550   3.351  -8.906  0.00  0.00    -0.210 OA
ENDROOT
BRANCH   1   3
ATOM      3  C   UNL     1       1.054   5.127  -9.317  0.00  0.00    +0.015 A 
ATOM      4  C   UNL     1       0.871   6.471  -9.528  0.00  0.00    -0.001 A 
ATOM      5  C   UNL     1       0.466   6.967 -10.752  0.00  0.00    -0.000 A 
ATOM      6  C   UNL     1       0.188   6.103 -11.786  0.00  0.00    -0.000 A 
ATOM      7  C   UNL     1      -0.036   4.772 -11.464  0.00  0.00    -0.000 A 
ATOM      8  C   UNL     1       0.512   4.287 -10.282  0.00  0.00    -0.001 A 
ENDBRANCH   1   3
BRANCH   1   9
ATOM      9  C   UNL     1       3.329   5.559  -8.730  0.00  0.00    +0.043 C 
ATOM     10  C   UNL     1       4.507   5.393  -7.829  0.00  0.00    +0.003 C 
ATOM     11  C   UNL     1       5.694   5.827  -8.683  0.00  0.00    +0.000 C 
ATOM     12  C   UNL     1       5.324   5.384 -10.094  0.00  0.00    +0.000 C 
ATOM     13  C   UNL     1       3.826   5.337 -10.157  0.00  0.00    +0.003 C 
ENDBRANCH   1   9
BRANCH   1  14
ATOM     14  C   UNL     1       1.726   4.585  -7.074  0.00  0.00    +0.349 C 
ATOM     15  O   UNL     1       2.081   3.566  -6.406  0.00  0.00    -0.247 OA
BRANCH  14  16
ATOM     16  O   UNL     1       1.311   5.705  -6.348  0.00  0.00    -0.444 OA
BRANCH  16  20
ATOM     17  C   UNL     1      -1.551   5.947  -3.683  0.00  0.00    +0.171 C 
ATOM     18  N   UNL     1      -1.403   6.688  -4.486  0.00  0.00    +0.309 N 
ATOM     19  C   UNL     1      -0.032   6.960  -4.925  0.00  0.00    +0.153 C 
ATOM     20  C   UNL     1       0.239   5.351  -5.271  0.00  0.00    +0.229 C 
ATOM     21  C   UNL     1      -0.981   5.359  -6.408  0.00  0.00    +0.111 C 
ATOM     22  C   UNL     1      -1.974   6.253  -5.739  0.00  0.00    +0.113 C 
ATOM     23  C   UNL     1      -2.018   7.950  -4.136  0.00  0.00    +0.171 C 
ENDBRANCH  16  20
ENDBRANCH  14  16
ENDBRANCH   1  14
TORSDOF 5
ENDMDL
MODEL 3
REMARK VINA RESULT:      -7.6      2.204      2.894
REMARK  Name = 
REMARK  5 active torsions:
REMARK  status: ('A' for Active; 'I' for Inactive)
REMARK    1  A    between atoms: C_6  and  O_7
REMARK    2  A    between atoms: O_7  and  C_8
REMARK    3  A    between atoms: C_8  and  C_10
REMARK    4  A    between atoms: C_10  and  C_12
REMARK    5  A    between atoms: C_10  and  C_18
REMARK                            x       y       z     vdW  Elec       q    Type
REMARK                         _______ _______ _______ _____ _____    ______ ____
ROOT
ATOM      1  C   UNL     1       1.409   5.056  -6.358  0.00  0.00    +0.233 C 
ATOM      2  O   UNL     1       1.100   3.771  -5.901  0.00  0.00    -0.210 OA
ENDROOT
BRANCH   1   3
ATOM      3  C   UNL     1       2.294   5.729  -5.349  0.00  0.00    +0.015 A 
ATOM      4  C   UNL     1       2.872   5.012  -4.331  0.00  0.00    -0.001 A 
ATOM      5  C   UNL     1       4.160   5.266  -3.901  0.00  0.00    -0.000 A 
ATOM      6  C   UNL     1       4.881   6.293  -4.464  0.00  0.00    -0.000 A 
ATOM      7  C   UNL     1       4.178   7.260  -5.166  0.00  0.00    -0.000 A 
ATOM      8  C   UNL     1       2.942   6.909  -5.696  0.00  0.00    -0.001 A 
ENDBRANCH   1   3
BRANCH   1   9
ATOM      9  C   UNL     1       0.150   5.862  -6.393  0.00  0.00    +0.043 C 
ATOM     10  C   UNL     1      -0.973   5.255  -7.165  0.00  0.00    +0.003 C 
ATOM     11  C   UNL     1      -2.228   5.784  -6.478  0.00  0.00    +0.000 C 
ATOM     12  C   UNL     1      -1.837   5.882  -5.008  0.00  0.00    +0.000 C 
ATOM     13  C   UNL     1      -0.348   6.057  -4.963  0.00  0.00    +0.003 C 
ENDBRANCH   1   9
BRANCH   1  14
ATOM     14  C   UNL     1       2.142   4.988  -7.630  0.00  0.00    +0.349 C 
ATOM     15  O   UNL     1       2.632   3.855  -7.925  0.00  0.00    -0.247 OA
BRANCH  14  16
ATOM     16  O   UNL     1       1.990   5.903  -8.675  0.00  0.00    -0.444 OA
BRANCH  16  20
ATOM     17  C   UNL     1       0.493   5.258 -12.238  0.00  0.00    +0.171 C 
ATOM     18  N   UNL     1       0.867   6.240 -11.903  0.00  0.00    +0.309 N 
ATOM     19  C   UNL     1       0.709   6.589 -10.489  0.00  0.00    +0.153 C 
ATOM     20  C   UNL     1       1.528   5.221 -10.000  0.00  0.00    +0.229 C 
ATOM     21  C   UNL     1       2.904   5.722 -10.798  0.00  0.00    +0.111 C 
ATOM     22  C   UNL     1       2.303   6.343 -12.017  0.00  0.00    +0.113 C 
ATOM     23  C   UNL     1       0.285   7.303 -12.693  0.00  0.00    +0.171 C 
ENDBRANCH  16  20
ENDBRANCH  14  16
ENDBRANCH   1  14
TORSDOF 5
ENDMDL
MODEL 4
REMARK VINA RESULT:      -7.4      3.116      6.850
REMARK  Name = 
REMARK  5 active torsions:
REMARK  status: ('A' for Active; 'I' for Inactive)
REMARK    1  A    between atoms: C_6  and  O_7
REMARK    2  A    between atoms: O_7  and  C_8
REMARK    3  A    between atoms: C_8  and  C_10
REMARK    4  A    between atoms: C_10  and  C_12
REMARK    5  A    between atoms: C_10  and  C_18
REMARK                            x       y       z     vdW  Elec       q    Type
REMARK                         _______ _______ _______ _____ _____    ______ ____
ROOT
ATOM      1  C   UNL     1       3.025   5.868  -5.380  0.00  0.00    +0.233 C 
ATOM      2  O   UNL     1       3.739   4.756  -4.923  0.00  0.00    -0.210 OA
ENDROOT
BRANCH   1   3
ATOM      3  C   UNL     1       3.572   6.279  -6.716  0.00  0.00    +0.015 A 
ATOM      4  C   UNL     1       4.465   5.480  -7.387  0.00  0.00    -0.001 A 
ATOM      5  C   UNL     1       4.417   5.327  -8.759  0.00  0.00    -0.000 A 
ATOM      6  C   UNL     1       3.488   6.023  -9.495  0.00  0.00    -0.000 A 
ATOM      7  C   UNL     1       2.887   7.120  -8.896  0.00  0.00    -0.000 A 
ATOM      8  C   UNL     1       2.841   7.157  -7.507  0.00  0.00    -0.001 A 
ENDBRANCH   1   3
BRANCH   1   9
ATOM      9  C   UNL     1       3.297   7.015  -4.461  0.00  0.00    +0.043 C 
ATOM     10  C   UNL     1       2.925   6.791  -3.034  0.00  0.00    +0.003 C 
ATOM     11  C   UNL     1       3.906   7.658  -2.251  0.00  0.00    +0.000 C 
ATOM     12  C   UNL     1       5.191   7.603  -3.069  0.00  0.00    +0.000 C 
ATOM     13  C   UNL     1       4.794   7.321  -4.488  0.00  0.00    +0.003 C 
ENDBRANCH   1   9
BRANCH   1  14
ATOM     14  C   UNL     1       1.605   5.533  -5.556  0.00  0.00    +0.349 C 
ATOM     15  O   UNL     1       1.341   4.298  -5.681  0.00  0.00    -0.247 OA
BRANCH  14  16
ATOM     16  O   UNL     1       0.548   6.373  -5.194  0.00  0.00    -0.444 OA
BRANCH  16  20
ATOM     17  C   UNL     1      -2.601   5.167  -3.198  0.00  0.00    +0.171 C 
ATOM     18  N   UNL     1      -2.227   6.205  -3.176  0.00  0.00    +0.309 N 
ATOM     19  C   UNL     1      -0.781   6.415  -3.287  0.00  0.00    +0.153 C 
ATOM     20  C   UNL     1      -0.711   5.577  -4.727  0.00  0.00    +0.229 C 
ATOM     21  C   UNL     1      -1.737   6.674  -5.452  0.00  0.00    +0.111 C 
ATOM     22  C   UNL     1      -2.669   6.966  -4.321  0.00  0.00    +0.113 C 
ATOM     23  C   UNL     1      -2.687   6.888  -1.988  0.00  0.00    +0.171 C 
ENDBRANCH  16  20
ENDBRANCH  14  16
ENDBRANCH   1  14
TORSDOF 5
ENDMDL
MODEL 5
REMARK VINA RESULT:      -7.4      2.874      6.393
REMARK  Name = 
REMARK  5 active torsions:
REMARK  status: ('A' for Active; 'I' for Inactive)
REMARK    1  A    between atoms: C_6  and  O_7
REMARK    2  A    between atoms: O_7  and  C_8
REMARK    3  A    between atoms: C_8  and  C_10
REMARK    4  A    between atoms: C_10  and  C_12
REMARK    5  A    between atoms: C_10  and  C_18
REMARK                            x       y       z     vdW  Elec       q    Type
REMARK                         _______ _______ _______ _____ _____    ______ ____
ROOT
ATOM      1  C   UNL     1       2.916   6.133  -6.524  0.00  0.00    +0.233 C 
ATOM      2  O   UNL     1       2.828   7.427  -7.047  0.00  0.00    -0.210 OA
ENDROOT
BRANCH   1   3
ATOM      3  C   UNL     1       3.903   6.135  -5.393  0.00  0.00    +0.015 A 
ATOM      4  C   UNL     1       4.324   7.313  -4.827  0.00  0.00    -0.001 A 
ATOM      5  C   UNL     1       4.532   7.433  -3.467  0.00  0.00    -0.000 A 
ATOM      6  C   UNL     1       4.366   6.342  -2.647  0.00  0.00    -0.000 A 
ATOM      7  C   UNL     1       4.361   5.089  -3.242  0.00  0.00    -0.000 A 
ATOM      8  C   UNL     1       4.009   5.008  -4.585  0.00  0.00    -0.001 A 
ENDBRANCH   1   3
BRANCH   1   9
ATOM      9  C   UNL     1       3.501   5.239  -7.570  0.00  0.00    +0.043 C 
ATOM     10  C   UNL     1       2.942   5.414  -8.943  0.00  0.00    +0.003 C 
ATOM     11  C   UNL     1       4.094   5.031  -9.867  0.00  0.00    +0.000 C 
ATOM     12  C   UNL     1       5.340   5.498  -9.125  0.00  0.00    +0.000 C 
ATOM     13  C   UNL     1       5.001   5.508  -7.664  0.00  0.00    +0.003 C 
ENDBRANCH   1   9
BRANCH   1  14
ATOM     14  C   UNL     1       1.616   5.703  -5.990  0.00  0.00    +0.349 C 
ATOM     15  O   UNL     1       1.344   4.471  -6.125  0.00  0.00    -0.247 OA
BRANCH  14  16
ATOM     16  O   UNL     1       0.888   6.411  -5.030  0.00  0.00    -0.444 OA
BRANCH  16  20
ATOM     17  C   UNL     1      -2.667   5.328  -3.788  0.00  0.00    +0.171 C 
ATOM     18  N   UNL     1      -1.954   5.900  -3.170  0.00  0.00    +0.309 N 
ATOM     19  C   UNL     1      -0.524   5.639  -3.353  0.00  0.00    +0.153 C 
ATOM     20  C   UNL     1      -0.611   5.979  -4.984  0.00  0.00    +0.229 C 
ATOM     21  C   UNL     1      -1.104   7.540  -4.663  0.00  0.00    +0.111 C 
ATOM     22  C   UNL     1      -1.981   7.311  -3.475  0.00  0.00    +0.113 C 
ATOM     23  C   UNL     1      -2.259   5.747  -1.765  0.00  0.00    +0.171 C 
ENDBRANCH  16  20
ENDBRANCH  14  16
ENDBRANCH   1  14
TORSDOF 5
ENDMDL
MODEL 6
REMARK VINA RESULT:      -7.2      1.499      2.572
REMARK  Name = 
REMARK  5 active torsions:
REMARK  status: ('A' for Active; 'I' for Inactive)
REMARK    1  A    between atoms: C_6  and  O_7
REMARK    2  A    between atoms: O_7  and  C_8
REMARK    3  A    between atoms: C_8  and  C_10
REMARK    4  A    between atoms: C_10  and  C_12
REMARK    5  A    between atoms: C_10  and  C_18
REMARK                            x       y       z     vdW  Elec       q    Type
REMARK                         _______ _______ _______ _____ _____    ______ ____
ROOT
ATOM      1  C   UNL     1       3.248   5.330  -8.082  0.00  0.00    +0.233 C 
ATOM      2  O   UNL     1       2.968   3.967  -8.222  0.00  0.00    -0.210 OA
ENDROOT
BRANCH   1   3
ATOM      3  C   UNL     1       3.221   5.683  -6.624  0.00  0.00    +0.015 A 
ATOM      4  C   UNL     1       3.309   4.708  -5.662  0.00  0.00    -0.001 A 
ATOM      5  C   UNL     1       4.030   4.896  -4.498  0.00  0.00    -0.000 A 
ATOM      6  C   UNL     1       4.643   6.103  -4.257  0.00  0.00    -0.000 A 
ATOM      7  C   UNL     1       4.215   7.197  -4.996  0.00  0.00    -0.000 A 
ATOM      8  C   UNL     1       3.617   6.956  -6.228  0.00  0.00    -0.001 A 
ENDBRANCH   1   3
BRANCH   1   9
ATOM      9  C   UNL     1       2.136   6.108  -8.708  0.00  0.00    +0.043 C 
ATOM     10  C   UNL     1       1.955   5.895 -10.174  0.00  0.00    +0.003 C 
ATOM     11  C   UNL     1       0.465   6.127 -10.404  0.00  0.00    +0.000 C 
ATOM     12  C   UNL     1      -0.196   5.607  -9.132  0.00  0.00    +0.000 C 
ATOM     13  C   UNL     1       0.822   5.713  -8.036  0.00  0.00    +0.003 C 
ENDBRANCH   1   9
BRANCH   1  14
ATOM     14  C   UNL     1       4.591   5.635  -8.598  0.00  0.00    +0.349 C 
ATOM     15  O   UNL     1       5.510   4.829  -8.256  0.00  0.00    -0.247 OA
BRANCH  14  16
ATOM     16  O   UNL     1       4.840   6.447  -9.708  0.00  0.00    -0.444 OA
BRANCH  16  20
ATOM     17  C   UNL     1       7.623   5.464 -12.286  0.00  0.00    +0.171 C 
ATOM     18  N   UNL     1       6.638   5.868 -12.577  0.00  0.00    +0.309 N 
ATOM     19  C   UNL     1       5.483   5.526 -11.743  0.00  0.00    +0.153 C 
ATOM     20  C   UNL     1       6.216   6.134 -10.375  0.00  0.00    +0.229 C 
ATOM     21  C   UNL     1       6.291   7.656 -11.054  0.00  0.00    +0.111 C 
ATOM     22  C   UNL     1       6.590   7.307 -12.475  0.00  0.00    +0.113 C 
ATOM     23  C   UNL     1       6.324   5.511 -13.943  0.00  0.00    +0.171 C 
ENDBRANCH  16  20
ENDBRANCH  14  16
ENDBRANCH   1  14
TORSDOF 5
ENDMDL
MODEL 7
REMARK VINA RESULT:      -7.2      2.832      5.999
REMARK  Name = 
REMARK  5 active torsions:
REMARK  status: ('A' for Active; 'I' for Inactive)
REMARK    1  A    between atoms: C_6  and  O_7
REMARK    2  A    between atoms: O_7  and  C_8
REMARK    3  A    between atoms: C_8  and  C_10
REMARK    4  A    between atoms: C_10  and  C_12
REMARK    5  A    between atoms: C_10  and  C_18
REMARK                            x       y       z     vdW  Elec       q    Type
REMARK                         _______ _______ _______ _____ _____    ______ ____
ROOT
ATOM      1  C   UNL     1       2.814   5.669  -9.271  0.00  0.00    +0.233 C 
ATOM      2  O   UNL     1       2.858   6.987  -8.808  0.00  0.00    -0.210 OA
ENDROOT
BRANCH   1   3
ATOM      3  C   UNL     1       4.182   5.278  -9.749  0.00  0.00    +0.015 A 
ATOM      4  C   UNL     1       4.489   5.285 -11.087  0.00  0.00    -0.001 A 
ATOM      5  C   UNL     1       5.721   5.703 -11.550  0.00  0.00    -0.000 A 
ATOM      6  C   UNL     1       6.697   6.082 -10.658  0.00  0.00    -0.000 A 
ATOM      7  C   UNL     1       6.548   5.683  -9.338  0.00  0.00    -0.000 A 
ATOM      8  C   UNL     1       5.263   5.405  -8.884  0.00  0.00    -0.001 A 
ENDBRANCH   1   3
BRANCH   1   9
ATOM      9  C   UNL     1       1.934   5.620 -10.478  0.00  0.00    +0.043 C 
ATOM     10  C   UNL     1       0.928   4.517 -10.489  0.00  0.00    +0.003 C 
ATOM     11  C   UNL     1      -0.230   5.077 -11.309  0.00  0.00    +0.000 C 
ATOM     12  C   UNL     1      -0.241   6.564 -10.976  0.00  0.00    +0.000 C 
ATOM     13  C   UNL     1       1.156   6.931 -10.572  0.00  0.00    +0.003 C 
ENDBRANCH   1   9
BRANCH   1  14
ATOM     14  C   UNL     1       2.436   4.754  -8.184  0.00  0.00    +0.349 C 
ATOM     15  O   UNL     1       2.824   3.552  -8.314  0.00  0.00    -0.247 OA
BRANCH  14  16
ATOM     16  O   UNL     1       2.073   5.167  -6.900  0.00  0.00    -0.444 OA
BRANCH  16  20
ATOM     17  C   UNL     1      -1.552   5.590  -5.472  0.00  0.00    +0.171 C 
ATOM     18  N   UNL     1      -0.639   5.722  -4.866  0.00  0.00    +0.309 N 
ATOM     19  C   UNL     1       0.524   4.892  -5.188  0.00  0.00    +0.153 C 
ATOM     20  C   UNL     1       0.538   5.422  -6.769  0.00  0.00    +0.229 C 
ATOM     21  C   UNL     1       0.790   6.995  -6.272  0.00  0.00    +0.111 C 
ATOM     22  C   UNL     1      -0.056   7.032  -5.041  0.00  0.00    +0.113 C 
ATOM     23  C   UNL     1      -0.932   5.554  -3.460  0.00  0.00    +0.171 C 
ENDBRANCH  16  20
ENDBRANCH  14  16
ENDBRANCH   1  14
TORSDOF 5
ENDMDL
MODEL 8
REMARK VINA RESULT:      -7.2      3.469      7.316
REMARK  Name = 
REMARK  5 active torsions:
REMARK  status: ('A' for Active; 'I' for Inactive)
REMARK    1  A    between atoms: C_6  and  O_7
REMARK    2  A    between atoms: O_7  and  C_8
REMARK    3  A    between atoms: C_8  and  C_10
REMARK    4  A    between atoms: C_10  and  C_12
REMARK    5  A    between atoms: C_10  and  C_18
REMARK                            x       y       z     vdW  Elec       q    Type
REMARK                         _______ _______ _______ _____ _____    ______ ____
ROOT
ATOM      1  C   UNL     1       1.234   5.533  -7.225  0.00  0.00    +0.233 C 
ATOM      2  O   UNL     1       1.582   4.239  -6.827  0.00  0.00    -0.210 OA
ENDROOT
BRANCH   1   3
ATOM      3  C   UNL     1       1.305   5.614  -8.722  0.00  0.00    +0.015 A 
ATOM      4  C   UNL     1       1.232   4.481  -9.493  0.00  0.00    -0.001 A 
ATOM      5  C   UNL     1       0.546   4.459 -10.692  0.00  0.00    -0.000 A 
ATOM      6  C   UNL     1      -0.046   5.606 -11.166  0.00  0.00    -0.000 A 
ATOM      7  C   UNL     1       0.374   6.813 -10.626  0.00  0.00    -0.000 A 
ATOM      8  C   UNL     1       0.936   6.796  -9.354  0.00  0.00    -0.001 A 
ENDBRANCH   1   3
BRANCH   1   9
ATOM      9  C   UNL     1       2.274   6.480  -6.718  0.00  0.00    +0.043 C 
ATOM     10  C   UNL     1       2.325   6.637  -5.235  0.00  0.00    +0.003 C 
ATOM     11  C   UNL     1       3.785   6.971  -4.944  0.00  0.00    +0.000 C 
ATOM     12  C   UNL     1       4.565   6.181  -5.989  0.00  0.00    +0.000 C 
ATOM     13  C   UNL     1       3.649   5.981  -7.159  0.00  0.00    +0.003 C 
ENDBRANCH   1   9
BRANCH   1  14
ATOM     14  C   UNL     1      -0.144   5.844  -6.819  0.00  0.00    +0.349 C 
ATOM     15  O   UNL     1      -1.025   4.998  -7.162  0.00  0.00    -0.247 OA
BRANCH  14  16
ATOM     16  O   UNL     1      -0.479   6.725  -5.787  0.00  0.00    -0.444 OA
BRANCH  16  20
ATOM     17  C   UNL     1      -3.188   5.595  -3.190  0.00  0.00    +0.171 C 
ATOM     18  N   UNL     1      -2.212   6.022  -2.905  0.00  0.00    +0.309 N 
ATOM     19  C   UNL     1      -1.060   5.736  -3.764  0.00  0.00    +0.153 C 
ATOM     20  C   UNL     1      -1.834   6.354  -5.106  0.00  0.00    +0.229 C 
ATOM     21  C   UNL     1      -1.944   7.856  -4.390  0.00  0.00    +0.111 C 
ATOM     22  C   UNL     1      -2.210   7.465  -2.972  0.00  0.00    +0.113 C 
ATOM     23  C   UNL     1      -1.865   5.643  -1.553  0.00  0.00    +0.171 C 
ENDBRANCH  16  20
ENDBRANCH  14  16
ENDBRANCH   1  14
TORSDOF 5
ENDMDL
MODEL 9
REMARK VINA RESULT:      -7.1      2.323      4.397
REMARK  Name = 
REMARK  5 active torsions:
REMARK  status: ('A' for Active; 'I' for Inactive)
REMARK    1  A    between atoms: C_6  and  O_7
REMARK    2  A    between atoms: O_7  and  C_8
REMARK    3  A    between atoms: C_8  and  C_10
REMARK    4  A    between atoms: C_10  and  C_12
REMARK    5  A    between atoms: C_10  and  C_18
REMARK                            x       y       z     vdW  Elec       q    Type
REMARK                         _______ _______ _______ _____ _____    ______ ____
ROOT
ATOM      1  C   UNL     1       1.894   5.881  -8.813  0.00  0.00    +0.233 C 
ATOM      2  O   UNL     1       1.989   7.193  -8.338  0.00  0.00    -0.210 OA
ENDROOT
BRANCH   1   3
ATOM      3  C   UNL     1       0.863   5.835  -9.902  0.00  0.00    +0.015 A 
ATOM      4  C   UNL     1       0.466   6.981 -10.546  0.00  0.00    -0.001 A 
ATOM      5  C   UNL     1       0.208   7.001 -11.903  0.00  0.00    -0.000 A 
ATOM      6  C   UNL     1       0.298   5.841 -12.637  0.00  0.00    -0.000 A 
ATOM      7  C   UNL     1       0.277   4.641 -11.942  0.00  0.00    -0.000 A 
ATOM      8  C   UNL     1       0.680   4.653 -10.611  0.00  0.00    -0.001 A 
ENDBRANCH   1   3
BRANCH   1   9
ATOM      9  C   UNL     1       1.362   5.018  -7.715  0.00  0.00    +0.043 C 
ATOM     10  C   UNL     1       2.089   5.119  -6.416  0.00  0.00    +0.003 C 
ATOM     11  C   UNL     1       1.024   4.814  -5.367  0.00  0.00    +0.000 C 
ATOM     12  C   UNL     1      -0.256   5.397  -5.952  0.00  0.00    +0.000 C 
ATOM     13  C   UNL     1      -0.090   5.408  -7.443  0.00  0.00    +0.003 C 
ENDBRANCH   1   9
BRANCH   1  14
ATOM     14  C   UNL     1       3.177   5.446  -9.384  0.00  0.00    +0.349 C 
ATOM     15  O   UNL     1       3.554   4.276  -9.067  0.00  0.00    -0.247 OA
BRANCH  14  16
ATOM     16  O   UNL     1       3.767   6.018 -10.514  0.00  0.00    -0.444 OA
BRANCH  16  20
ATOM     17  C   UNL     1       7.417   5.323 -11.761  0.00  0.00    +0.171 C 
ATOM     18  N   UNL     1       6.630   5.765 -12.395  0.00  0.00    +0.309 N 
ATOM     19  C   UNL     1       5.247   5.336 -12.173  0.00  0.00    +0.153 C 
ATOM     20  C   UNL     1       5.309   5.776 -10.565  0.00  0.00    +0.229 C 
ATOM     21  C   UNL     1       5.596   7.366 -10.979  0.00  0.00    +0.111 C 
ATOM     22  C   UNL     1       6.481   7.183 -12.169  0.00  0.00    +0.113 C 
ATOM     23  C   UNL     1       6.936   5.572 -13.796  0.00  0.00    +0.171 C 
ENDBRANCH  16  20
ENDBRANCH  14  16
ENDBRANCH   1  14
TORSDOF 5
ENDMDL
