MODEL 1
REMARK VINA RESULT:      -2.8      0.000      0.000
REMARK  Name = 
REMARK  7 active torsions:
REMARK  status: ('A' for Active; 'I' for Inactive)
REMARK    1  A    between atoms: C_2  and  C_3
REMARK    2  A    between atoms: C_9  and  O_10
REMARK    3  A    between atoms: O_10  and  C_11
REMARK    4  A    between atoms: C_13  and  O_15
REMARK    5  A    between atoms: C_24  and  O_25
REMARK    6  A    between atoms: O_25  and  C_26
REMARK    7  A    between atoms: C_31  and  N_32
REMARK                            x       y       z     vdW  Elec       q    Type
REMARK                         _______ _______ _______ _____ _____    ______ ____
ROOT
ATOM      1  C   UNL     1       1.181   5.934 -12.051  0.00  0.00    +0.199 C 
ATOM      2  C   UNL     1       0.958   4.746 -13.148  0.00  0.00    +0.192 C 
ATOM      3  O   UNL     1      -0.136   5.009 -13.896  0.00  0.00    -0.219 OA
ATOM      4  C   UNL     1       1.127   3.435 -12.540  0.00  0.00    +0.039 C 
ATOM      5  C   UNL     1       2.317   5.140 -13.964  0.00  0.00    +0.198 C 
ATOM      6  O   UNL     1       2.324   3.815 -14.678  0.00  0.00    -0.219 OA
ATOM      7  C   UNL     1       3.335   4.543 -12.719  0.00  0.00    +0.091 C 
ATOM      8  C   UNL     1       4.545   4.253 -13.764  0.00  0.00    +0.020 C 
ATOM      9  N   UNL     1       3.800   5.969 -12.334  0.00  0.00    -0.270 NA
ATOM     10  C   UNL     1       4.858   6.458 -13.125  0.00  0.00    +0.090 C 
ATOM     11  C   UNL     1       4.361   5.871 -10.978  0.00  0.00    +0.072 C 
ATOM     12  C   UNL     1       4.159   7.468 -10.655  0.00  0.00    +0.019 C 
ATOM     13  C   UNL     1       5.651   7.618 -10.003  0.00  0.00    +0.002 C 
ATOM     14  C   UNL     1       3.356   7.247  -9.266  0.00  0.00    +0.034 C 
ATOM     15  C   UNL     1       3.544   6.083  -8.520  0.00  0.00    +0.152 C 
ATOM     16  O   UNL     1       4.922   6.047  -8.245  0.00  0.00    -0.223 OA
ATOM     17  C   UNL     1       3.331   4.678  -8.818  0.00  0.00    +0.035 C 
ATOM     18  C   UNL     1       2.749   6.548  -7.149  0.00  0.00    +0.148 C 
ATOM     19  C   UNL     1       1.601   5.286  -7.116  0.00  0.00    +0.058 C 
ATOM     20  C   UNL     1       1.103   5.728  -5.659  0.00  0.00    +0.005 C 
ATOM     21  C   UNL     1       0.297   6.116  -7.791  0.00  0.00    +0.131 C 
ATOM     22  C   UNL     1       0.574   5.395  -9.319  0.00  0.00    +0.126 C 
ATOM     23  C   UNL     1      -0.507   4.187  -9.275  0.00  0.00    +0.014 C 
ATOM     24  C   UNL     1      -0.367   6.361 -10.173  0.00  0.00    +0.319 C 
ATOM     25  O   UNL     1      -0.479   7.560  -9.782  0.00  0.00    -0.250 OA
ATOM     26  O   UNL     1      -0.269   5.977 -11.521  0.00  0.00    -0.450 OA
ENDROOT
BRANCH   1  28
ATOM     27  C   UNL     1       0.773   7.556 -13.119  0.00  0.00    +0.004 C 
ATOM     28  C   UNL     1       0.890   7.108 -13.173  0.00  0.00    +0.046 C 
ENDBRANCH   1  28
BRANCH  21  29
ATOM     29  O   UNL     1      -0.747   5.172  -7.258  0.00  0.00    -0.332 OA
BRANCH  29  30
ATOM     30  C   UNL     1      -1.810   6.197  -6.834  0.00  0.00    +0.238 C 
ATOM     31  O   UNL     1      -0.917   6.814  -5.777  0.00  0.00    -0.330 OA
ATOM     32  C   UNL     1      -1.730   7.978  -5.282  0.00  0.00    +0.150 C 
ATOM     33  C   UNL     1      -3.116   7.798  -6.143  0.00  0.00    +0.035 C 
ATOM     34  C   UNL     1      -2.501   7.164  -3.965  0.00  0.00    +0.204 C 
ATOM     35  O   UNL     1      -1.256   7.369  -3.127  0.00  0.00    -0.218 OA
ATOM     36  C   UNL     1      -2.179   5.633  -4.376  0.00  0.00    +0.128 C 
ATOM     37  C   UNL     1      -3.243   4.993  -3.479  0.00  0.00    +0.033 C 
ATOM     38  C   UNL     1      -2.519   5.204  -5.709  0.00  0.00    +0.091 C 
BRANCH  36  39
ATOM     39  O   UNL     1      -0.971   5.241  -3.978  0.00  0.00    -0.353 OA
ATOM     40  C   UNL     1      -1.003   4.964  -2.614  0.00  0.00    +0.174 C 
ENDBRANCH  36  39
ENDBRANCH  29  30
ENDBRANCH  21  29
BRANCH  18  41
ATOM     41  O   UNL     1       3.732   5.812  -6.300  0.00  0.00    -0.328 OA
BRANCH  41  42
ATOM     42  C   UNL     1       3.790   6.446  -4.935  0.00  0.00    +0.268 C 
ATOM     43  C   UNL     1       4.644   5.147  -4.163  0.00  0.00    +0.222 C 
ATOM     44  O   UNL     1       3.695   4.045  -4.494  0.00  0.00    -0.216 OA
ATOM     45  C   UNL     1       3.697   5.660  -2.836  0.00  0.00    +0.096 C 
ATOM     46  C   UNL     1       4.307   7.106  -2.732  0.00  0.00    +0.048 C 
ATOM     47  C   UNL     1       5.301   7.829  -3.752  0.00  0.00    +0.119 C 
ATOM     48  C   UNL     1       6.632   6.961  -3.245  0.00  0.00    +0.032 C 
ATOM     49  O   UNL     1       5.173   7.041  -5.046  0.00  0.00    -0.331 OA
BRANCH  45  50
ATOM     50  N   UNL     1       4.582   4.999  -1.708  0.00  0.00    -0.269 NA
ATOM     51  C   UNL     1       4.602   6.022  -0.647  0.00  0.00    +0.090 C 
ATOM     52  C   UNL     1       3.880   3.891  -1.169  0.00  0.00    +0.090 C 
ENDBRANCH  45  50
ENDBRANCH  41  42
ENDBRANCH  18  41
TORSDOF 7
ENDMDL
MODEL 2
REMARK VINA RESULT:      -2.0      2.127      9.562
REMARK  Name = 
REMARK  7 active torsions:
REMARK  status: ('A' for Active; 'I' for Inactive)
REMARK    1  A    between atoms: C_2  and  C_3
REMARK    2  A    between atoms: C_9  and  O_10
REMARK    3  A    between atoms: O_10  and  C_11
REMARK    4  A    between atoms: C_13  and  O_15
REMARK    5  A    between atoms: C_24  and  O_25
REMARK    6  A    between atoms: O_25  and  C_26
REMARK    7  A    between atoms: C_31  and  N_32
REMARK                            x       y       z     vdW  Elec       q    Type
REMARK                         _______ _______ _______ _____ _____    ______ ____
ROOT
ATOM      1  C   UNL     1       3.567   6.180  -3.486  0.00  0.00    +0.199 C 
ATOM      2  C   UNL     1       3.815   5.039  -2.345  0.00  0.00    +0.192 C 
ATOM      3  O   UNL     1       4.914   5.343  -1.621  0.00  0.00    -0.219 OA
ATOM      4  C   UNL     1       3.653   3.703  -2.899  0.00  0.00    +0.039 C 
ATOM      5  C   UNL     1       2.462   5.451  -1.529  0.00  0.00    +0.198 C 
ATOM      6  O   UNL     1       2.476   4.155  -0.764  0.00  0.00    -0.219 OA
ATOM      7  C   UNL     1       1.436   4.795  -2.738  0.00  0.00    +0.091 C 
ATOM      8  C   UNL     1       0.241   4.535  -1.669  0.00  0.00    +0.020 C 
ATOM      9  N   UNL     1       0.951   6.200  -3.174  0.00  0.00    -0.270 NA
ATOM     10  C   UNL     1      -0.103   6.709  -2.391  0.00  0.00    +0.090 C 
ATOM     11  C   UNL     1       0.377   6.042  -4.519  0.00  0.00    +0.072 C 
ATOM     12  C   UNL     1       0.558   7.627  -4.907  0.00  0.00    +0.019 C 
ATOM     13  C   UNL     1      -0.943   7.735  -5.547  0.00  0.00    +0.002 C 
ATOM     14  C   UNL     1       1.348   7.358  -6.295  0.00  0.00    +0.034 C 
ATOM     15  C   UNL     1       1.164   6.164  -6.992  0.00  0.00    +0.152 C 
ATOM     16  O   UNL     1      -0.217   6.103  -7.250  0.00  0.00    -0.223 OA
ATOM     17  C   UNL     1       1.395   4.775  -6.641  0.00  0.00    +0.035 C 
ATOM     18  C   UNL     1       1.938   6.582  -8.390  0.00  0.00    +0.148 C 
ATOM     19  C   UNL     1       3.099   5.331  -8.386  0.00  0.00    +0.058 C 
ATOM     20  C   UNL     1       3.576   5.720  -9.865  0.00  0.00    +0.005 C 
ATOM     21  C   UNL     1       4.402   6.201  -7.759  0.00  0.00    +0.131 C 
ATOM     22  C   UNL     1       4.149   5.538  -6.201  0.00  0.00    +0.126 C 
ATOM     23  C   UNL     1       5.242   4.341  -6.210  0.00  0.00    +0.014 C 
ATOM     24  C   UNL     1       5.089   6.547  -5.397  0.00  0.00    +0.319 C 
ATOM     25  O   UNL     1       5.185   7.731  -5.837  0.00  0.00    -0.250 OA
ATOM     26  O   UNL     1       5.011   6.217  -4.034  0.00  0.00    -0.450 OA
ENDROOT
BRANCH   1  28
ATOM     27  C   UNL     1       3.896   7.860  -2.483  0.00  0.00    +0.004 C 
ATOM     28  C   UNL     1       3.858   7.400  -2.415  0.00  0.00    +0.046 C 
ENDBRANCH   1  28
BRANCH  21  29
ATOM     29  O   UNL     1       5.450   5.247  -8.267  0.00  0.00    -0.332 OA
BRANCH  29  30
ATOM     30  C   UNL     1       6.496   6.265  -8.744  0.00  0.00    +0.238 C 
ATOM     31  O   UNL     1       5.601   6.800  -9.842  0.00  0.00    -0.330 OA
ATOM     32  C   UNL     1       6.396   7.947 -10.401  0.00  0.00    +0.150 C 
ATOM     33  C   UNL     1       7.778   7.847  -9.521  0.00  0.00    +0.035 C 
ATOM     34  C   UNL     1       7.194   7.071 -11.661  0.00  0.00    +0.204 C 
ATOM     35  O   UNL     1       5.951   7.202 -12.519  0.00  0.00    -0.218 OA
ATOM     36  C   UNL     1       6.897   5.561 -11.161  0.00  0.00    +0.128 C 
ATOM     37  C   UNL     1       7.980   4.889 -12.010  0.00  0.00    +0.033 C 
ATOM     38  C   UNL     1       7.233   5.220  -9.802  0.00  0.00    +0.091 C 
BRANCH  36  39
ATOM     39  O   UNL     1       5.700   5.123 -11.544  0.00  0.00    -0.353 OA
ATOM     40  C   UNL     1       5.729   4.833 -12.905  0.00  0.00    +0.174 C 
ENDBRANCH  36  39
ENDBRANCH  29  30
ENDBRANCH  21  29
BRANCH  18  41
ATOM     41  O   UNL     1       0.954   5.803  -9.197  0.00  0.00    -0.328 OA
BRANCH  41  42
ATOM     42  C   UNL     1       0.942   6.322 -10.611  0.00  0.00    +0.268 C 
ATOM     43  C   UNL     1      -0.020   5.036 -11.273  0.00  0.00    +0.222 C 
ATOM     44  O   UNL     1       0.837   3.893 -10.847  0.00  0.00    -0.216 OA
ATOM     45  C   UNL     1       0.960   5.355 -12.635  0.00  0.00    +0.096 C 
ATOM     46  C   UNL     1       0.471   6.833 -12.864  0.00  0.00    +0.048 C 
ATOM     47  C   UNL     1      -0.456   7.719 -11.911  0.00  0.00    +0.119 C 
ATOM     48  C   UNL     1      -1.856   6.924 -12.346  0.00  0.00    +0.032 C 
ATOM     49  O   UNL     1      -0.388   7.035 -10.555  0.00  0.00    -0.331 OA
BRANCH  45  50
ATOM     50  N   UNL     1       0.019   4.677 -13.706  0.00  0.00    -0.269 NA
ATOM     51  C   UNL     1       0.113   5.582 -14.866  0.00  0.00    +0.090 C 
ATOM     52  C   UNL     1       0.606   3.453 -14.117  0.00  0.00    +0.090 C 
ENDBRANCH  45  50
ENDBRANCH  41  42
ENDBRANCH  18  41
TORSDOF 7
ENDMDL
MODEL 3
REMARK VINA RESULT:      -0.8      3.566      5.975
REMARK  Name = 
REMARK  7 active torsions:
REMARK  status: ('A' for Active; 'I' for Inactive)
REMARK    1  A    between atoms: C_2  and  C_3
REMARK    2  A    between atoms: C_9  and  O_10
REMARK    3  A    between atoms: O_10  and  C_11
REMARK    4  A    between atoms: C_13  and  O_15
REMARK    5  A    between atoms: C_24  and  O_25
REMARK    6  A    between atoms: O_25  and  C_26
REMARK    7  A    between atoms: C_31  and  N_32
REMARK                            x       y       z     vdW  Elec       q    Type
REMARK                         _______ _______ _______ _____ _____    ______ ____
ROOT
ATOM      1  C   UNL     1       1.607   5.890  -6.012  0.00  0.00    +0.199 C 
ATOM      2  C   UNL     1       1.541   4.595  -7.002  0.00  0.00    +0.192 C 
ATOM      3  O   UNL     1       0.424   4.651  -7.760  0.00  0.00    -0.219 OA
ATOM      4  C   UNL     1       1.875   3.372  -6.286  0.00  0.00    +0.039 C 
ATOM      5  C   UNL     1       2.840   5.088  -7.860  0.00  0.00    +0.198 C 
ATOM      6  O   UNL     1       3.019   3.718  -8.459  0.00  0.00    -0.219 OA
ATOM      7  C   UNL     1       3.923   4.734  -6.578  0.00  0.00    +0.091 C 
ATOM      8  C   UNL     1       5.163   4.513  -7.604  0.00  0.00    +0.020 C 
ATOM      9  N   UNL     1       4.201   6.236  -6.319  0.00  0.00    -0.270 NA
ATOM     10  C   UNL     1       5.190   6.787  -7.157  0.00  0.00    +0.090 C 
ATOM     11  C   UNL     1       4.766   6.325  -4.963  0.00  0.00    +0.072 C 
ATOM     12  C   UNL     1       4.360   7.906  -4.775  0.00  0.00    +0.019 C 
ATOM     13  C   UNL     1       5.819   8.300  -4.151  0.00  0.00    +0.002 C 
ATOM     14  C   UNL     1       3.589   7.702  -3.366  0.00  0.00    +0.034 C 
ATOM     15  C   UNL     1       3.922   6.640  -2.526  0.00  0.00    +0.152 C 
ATOM     16  O   UNL     1       5.293   6.804  -2.260  0.00  0.00    -0.223 OA
ATOM     17  C   UNL     1       3.891   5.199  -2.702  0.00  0.00    +0.035 C 
ATOM     18  C   UNL     1       3.071   7.115  -1.193  0.00  0.00    +0.148 C 
ATOM     19  C   UNL     1       2.094   5.723  -1.043  0.00  0.00    +0.058 C 
ATOM     20  C   UNL     1       1.539   6.221   0.376  0.00  0.00    +0.005 C 
ATOM     21  C   UNL     1       0.696   6.320  -1.775  0.00  0.00    +0.131 C 
ATOM     22  C   UNL     1       1.067   5.513  -3.239  0.00  0.00    +0.126 C 
ATOM     23  C   UNL     1       0.150   4.185  -3.084  0.00  0.00    +0.014 C 
ATOM     24  C   UNL     1       0.013   6.274  -4.164  0.00  0.00    +0.319 C 
ATOM     25  O   UNL     1      -0.254   7.478  -3.875  0.00  0.00    -0.250 OA
ATOM     26  O   UNL     1       0.162   5.793  -5.475  0.00  0.00    -0.450 OA
ENDROOT
BRANCH   1  28
ATOM     27  C   UNL     1       1.232   7.378  -7.270  0.00  0.00    +0.004 C 
ATOM     28  C   UNL     1       1.171   6.918  -7.227  0.00  0.00    +0.046 C 
ENDBRANCH   1  28
BRANCH  21  29
ATOM     29  O   UNL     1      -0.220   5.299  -1.156  0.00  0.00    -0.332 OA
BRANCH  29  30
ATOM     30  C   UNL     1      -1.546   6.069  -1.254  0.00  0.00    +0.238 C 
ATOM     31  O   UNL     1      -0.919   7.375  -0.811  0.00  0.00    -0.330 OA
ATOM     32  C   UNL     1      -2.048   8.359  -0.952  0.00  0.00    +0.150 C 
ATOM     33  C   UNL     1      -3.278   7.379  -1.420  0.00  0.00    +0.035 C 
ATOM     34  C   UNL     1      -2.642   8.248   0.668  0.00  0.00    +0.204 C 
ATOM     35  O   UNL     1      -1.552   9.199   1.118  0.00  0.00    -0.218 OA
ATOM     36  C   UNL     1      -1.889   6.894   1.134  0.00  0.00    +0.128 C 
ATOM     37  C   UNL     1      -2.787   6.611   2.342  0.00  0.00    +0.033 C 
ATOM     38  C   UNL     1      -2.020   5.726   0.300  0.00  0.00    +0.091 C 
BRANCH  36  39
ATOM     39  O   UNL     1      -0.646   7.119   1.551  0.00  0.00    -0.353 OA
ATOM     40  C   UNL     1      -0.576   6.911   2.926  0.00  0.00    +0.174 C 
ENDBRANCH  36  39
ENDBRANCH  29  30
ENDBRANCH  21  29
BRANCH  18  41
ATOM     41  O   UNL     1       4.137   6.585  -0.293  0.00  0.00    -0.328 OA
BRANCH  41  42
ATOM     42  C   UNL     1       4.103   7.328   1.018  0.00  0.00    +0.268 C 
ATOM     43  C   UNL     1       5.573   8.216   0.767  0.00  0.00    +0.222 C 
ATOM     44  O   UNL     1       6.481   7.058   0.528  0.00  0.00    -0.216 OA
ATOM     45  C   UNL     1       5.668   8.030   2.463  0.00  0.00    +0.096 C 
ATOM     46  C   UNL     1       4.365   8.844   2.804  0.00  0.00    +0.048 C 
ATOM     47  C   UNL     1       3.261   9.398   1.791  0.00  0.00    +0.119 C 
ATOM     48  C   UNL     1       4.213  10.663   1.267  0.00  0.00    +0.032 C 
ATOM     49  O   UNL     1       3.467   8.601   0.513  0.00  0.00    -0.331 OA
BRANCH  45  50
ATOM     50  N   UNL     1       6.695   9.201   2.722  0.00  0.00    -0.269 NA
ATOM     51  C   UNL     1       6.022  10.026   3.742  0.00  0.00    +0.090 C 
ATOM     52  C   UNL     1       7.847   8.664   3.352  0.00  0.00    +0.090 C 
ENDBRANCH  45  50
ENDBRANCH  41  42
ENDBRANCH  18  41
TORSDOF 7
ENDMDL
MODEL 4
REMARK VINA RESULT:      -0.5      3.014      4.979
REMARK  Name = 
REMARK  7 active torsions:
REMARK  status: ('A' for Active; 'I' for Inactive)
REMARK    1  A    between atoms: C_2  and  C_3
REMARK    2  A    between atoms: C_9  and  O_10
REMARK    3  A    between atoms: O_10  and  C_11
REMARK    4  A    between atoms: C_13  and  O_15
REMARK    5  A    between atoms: C_24  and  O_25
REMARK    6  A    between atoms: O_25  and  C_26
REMARK    7  A    between atoms: C_31  and  N_32
REMARK                            x       y       z     vdW  Elec       q    Type
REMARK                         _______ _______ _______ _____ _____    ______ ____
ROOT
ATOM      1  C   UNL     1       2.349   6.049  -7.153  0.00  0.00    +0.199 C 
ATOM      2  C   UNL     1       2.360   4.854  -8.265  0.00  0.00    +0.192 C 
ATOM      3  O   UNL     1       1.414   5.087  -9.200  0.00  0.00    -0.219 OA
ATOM      4  C   UNL     1       2.451   3.549  -7.628  0.00  0.00    +0.039 C 
ATOM      5  C   UNL     1       3.834   5.283  -8.823  0.00  0.00    +0.198 C 
ATOM      6  O   UNL     1       4.005   3.958  -9.516  0.00  0.00    -0.219 OA
ATOM      7  C   UNL     1       4.625   4.716  -7.411  0.00  0.00    +0.091 C 
ATOM      8  C   UNL     1       6.011   4.458  -8.217  0.00  0.00    +0.020 C 
ATOM      9  N   UNL     1       4.974   6.154  -6.956  0.00  0.00    -0.270 NA
ATOM     10  C   UNL     1       6.145   6.671  -7.545  0.00  0.00    +0.090 C 
ATOM     11  C   UNL     1       5.282   6.072  -5.520  0.00  0.00    +0.072 C 
ATOM     12  C   UNL     1       4.982   7.664  -5.248  0.00  0.00    +0.019 C 
ATOM     13  C   UNL     1       6.327   7.855  -4.337  0.00  0.00    +0.002 C 
ATOM     14  C   UNL     1       3.947   7.422  -4.027  0.00  0.00    +0.034 C 
ATOM     15  C   UNL     1       4.027   6.264  -3.253  0.00  0.00    +0.152 C 
ATOM     16  O   UNL     1       5.333   6.266  -2.731  0.00  0.00    -0.223 OA
ATOM     17  C   UNL     1       3.908   4.855  -3.576  0.00  0.00    +0.035 C 
ATOM     18  C   UNL     1       2.984   6.709  -2.051  0.00  0.00    +0.148 C 
ATOM     19  C   UNL     1       1.883   5.416  -2.219  0.00  0.00    +0.058 C 
ATOM     20  C   UNL     1       1.117   5.847  -0.879  0.00  0.00    +0.005 C 
ATOM     21  C   UNL     1       0.702   6.211  -3.125  0.00  0.00    +0.131 C 
ATOM     22  C   UNL     1       1.271   5.496  -4.573  0.00  0.00    +0.126 C 
ATOM     23  C   UNL     1       0.232   4.260  -4.719  0.00  0.00    +0.014 C 
ATOM     24  C   UNL     1       0.475   6.436  -5.589  0.00  0.00    +0.319 C 
ATOM     25  O   UNL     1       0.262   7.631  -5.232  0.00  0.00    -0.250 OA
ATOM     26  O   UNL     1       0.826   6.053  -6.894  0.00  0.00    -0.450 OA
ENDROOT
BRANCH   1  28
ATOM     27  C   UNL     1       2.206   7.677  -8.277  0.00  0.00    +0.004 C 
ATOM     28  C   UNL     1       2.236   7.213  -8.315  0.00  0.00    +0.046 C 
ENDBRANCH   1  28
BRANCH  21  29
ATOM     29  O   UNL     1      -0.396   5.240  -2.785  0.00  0.00    -0.332 OA
BRANCH  29  30
ATOM     30  C   UNL     1      -1.380   6.209  -2.112  0.00  0.00    +0.238 C 
ATOM     31  O   UNL     1      -2.575   5.318  -2.382  0.00  0.00    -0.330 OA
ATOM     32  C   UNL     1      -3.696   6.028  -1.674  0.00  0.00    +0.150 C 
ATOM     33  C   UNL     1      -2.933   7.373  -1.122  0.00  0.00    +0.035 C 
ATOM     34  C   UNL     1      -4.253   6.959  -3.021  0.00  0.00    +0.204 C 
ATOM     35  O   UNL     1      -5.016   5.750  -3.523  0.00  0.00    -0.218 OA
ATOM     36  C   UNL     1      -2.985   6.781  -4.009  0.00  0.00    +0.128 C 
ATOM     37  C   UNL     1      -3.322   7.958  -4.928  0.00  0.00    +0.033 C 
ATOM     38  C   UNL     1      -1.675   7.086  -3.491  0.00  0.00    +0.091 C 
BRANCH  36  39
ATOM     39  O   UNL     1      -3.035   5.647  -4.705  0.00  0.00    -0.353 OA
ATOM     40  C   UNL     1      -2.749   5.914  -6.041  0.00  0.00    +0.174 C 
ENDBRANCH  36  39
ENDBRANCH  29  30
ENDBRANCH  21  29
BRANCH  18  41
ATOM     41  O   UNL     1       3.816   6.001  -1.034  0.00  0.00    -0.328 OA
BRANCH  41  42
ATOM     42  C   UNL     1       3.597   6.628   0.318  0.00  0.00    +0.268 C 
ATOM     43  C   UNL     1       4.941   7.724   0.235  0.00  0.00    +0.222 C 
ATOM     44  O   UNL     1       6.015   6.720  -0.017  0.00  0.00    -0.216 OA
ATOM     45  C   UNL     1       4.956   7.422   1.917  0.00  0.00    +0.096 C 
ATOM     46  C   UNL     1       3.534   8.023   2.218  0.00  0.00    +0.048 C 
ATOM     47  C   UNL     1       2.428   8.500   1.168  0.00  0.00    +0.119 C 
ATOM     48  C   UNL     1       3.224   9.919   0.802  0.00  0.00    +0.032 C 
ATOM     49  O   UNL     1       2.822   7.839  -0.143  0.00  0.00    -0.331 OA
BRANCH  45  50
ATOM     50  N   UNL     1       5.792   8.696   2.328  0.00  0.00    -0.269 NA
ATOM     51  C   UNL     1       5.109   9.173   3.545  0.00  0.00    +0.090 C 
ATOM     52  C   UNL     1       7.082   8.280   2.743  0.00  0.00    +0.090 C 
ENDBRANCH  45  50
ENDBRANCH  41  42
ENDBRANCH  18  41
TORSDOF 7
ENDMDL
