MODEL 1
REMARK VINA RESULT:      -9.4      0.000      0.000
REMARK  Name = 
REMARK  12 active torsions:
REMARK  status: ('A' for Active; 'I' for Inactive)
REMARK    1  A    between atoms: C_2  and  C_4
REMARK    2  A    between atoms: C_5  and  C_6
REMARK    3  A    between atoms: N_8  and  C_9
REMARK    4  A    between atoms: C_15  and  C_16
REMARK    5  A    between atoms: C_22  and  C_23
REMARK    6  A    between atoms: N_30  and  C_31
REMARK    7  A    between atoms: C_31  and  C_32
REMARK    8  A    between atoms: C_32  and  C_33
REMARK    9  A    between atoms: C_33  and  C_35
REMARK   10  A    between atoms: C_35  and  C_36
REMARK   11  A    between atoms: C_36  and  C_38
REMARK   12  A    between atoms: C_38  and  C_39
REMARK                            x       y       z     vdW  Elec       q    Type
REMARK                         _______ _______ _______ _____ _____    ______ ____
ROOT
ATOM      1  C   UNL     1       3.036   6.171  -6.340  0.00  0.00    +0.041 A 
ATOM      2  N   UNL     1       1.871   6.520  -5.741  0.00  0.00    -0.330 N 
ATOM      3  C   UNL     1       0.920   6.565  -6.704  0.00  0.00    +0.060 A 
ATOM      4  C   UNL     1       1.524   6.512  -7.956  0.00  0.00    +0.021 A 
ATOM      5  C   UNL     1       2.888   6.491  -7.685  0.00  0.00    +0.068 A 
ENDROOT
BRANCH   3   6
ATOM      6  C   UNL     1      -0.495   6.360  -6.374  0.00  0.00    +0.016 A 
ATOM      7  C   UNL     1      -1.190   5.221  -6.746  0.00  0.00    +0.004 A 
ATOM      8  C   UNL     1      -2.215   4.744  -5.935  0.00  0.00    +0.030 A 
ATOM      9  C   UNL     1      -2.607   5.466  -4.835  0.00  0.00    +0.140 A 
ATOM     10  F   UNL     1      -3.099   4.889  -3.700  0.00  0.00    -0.204 F 
ATOM     11  C   UNL     1      -2.315   6.824  -4.863  0.00  0.00    +0.030 A 
ATOM     12  C   UNL     1      -1.204   7.249  -5.579  0.00  0.00    +0.004 A 
ENDBRANCH   3   6
BRANCH   4  13
ATOM     13  C   UNL     1       0.871   6.085  -9.200  0.00  0.00    +0.002 A 
ATOM     14  C   UNL     1       0.339   7.072 -10.021  0.00  0.00    +0.000 A 
ATOM     15  C   UNL     1       0.053   6.772 -11.348  0.00  0.00    +0.000 A 
ATOM     16  C   UNL     1      -0.445   5.490 -11.552  0.00  0.00    +0.000 A 
ATOM     17  C   UNL     1       0.032   4.490 -10.715  0.00  0.00    +0.000 A 
ATOM     18  C   UNL     1       0.904   4.813  -9.687  0.00  0.00    +0.000 A 
ENDBRANCH   4  13
BRANCH   1  20
ATOM     19  C   UNL     1       4.118   5.105  -5.573  0.00  0.00    +0.006 C 
ATOM     20  C   UNL     1       4.189   5.431  -5.749  0.00  0.00    +0.038 C 
ATOM     21  C   UNL     1       5.049   6.406  -4.971  0.00  0.00    +0.006 C 
ENDBRANCH   1  20
BRANCH   5  22
ATOM     22  C   UNL     1       3.964   6.510  -8.684  0.00  0.00    +0.270 C 
ATOM     23  N   UNL     1       4.545   5.291  -9.164  0.00  0.00    -0.175 NA
ATOM     24  O   UNL     1       3.922   7.428  -9.561  0.00  0.00    -0.268 OA
BRANCH  23  25
ATOM     25  C   UNL     1       5.698   5.443 -10.001  0.00  0.00    +0.074 A 
ATOM     26  C   UNL     1       5.584   5.404 -11.386  0.00  0.00    +0.017 A 
ATOM     27  C   UNL     1       6.384   6.243 -12.153  0.00  0.00    +0.001 A 
ATOM     28  C   UNL     1       7.417   6.952 -11.555  0.00  0.00    +0.000 A 
ATOM     29  C   UNL     1       7.803   6.527 -10.293  0.00  0.00    +0.001 A 
ATOM     30  C   UNL     1       6.940   5.779  -9.505  0.00  0.00    +0.017 A 
ENDBRANCH  23  25
ENDBRANCH   5  22
BRANCH   2  31
ATOM     31  C   UNL     1       1.814   6.938  -4.363  0.00  0.00    +0.108 C 
BRANCH  31  32
ATOM     32  C   UNL     1       1.319   5.880  -3.425  0.00  0.00    +0.057 C 
BRANCH  32  33
ATOM     33  C   UNL     1       2.096   6.335  -2.018  0.00  0.00    +0.156 C 
ATOM     34  O   UNL     1       3.108   5.188  -2.162  0.00  0.00    -0.223 OA
BRANCH  33  35
ATOM     35  C   UNL     1       1.083   5.395  -1.074  0.00  0.00    +0.066 C 
BRANCH  35  36
ATOM     36  C   UNL     1      -0.282   6.226  -1.573  0.00  0.00    +0.166 C 
ATOM     37  O   UNL     1      -1.161   4.988  -1.331  0.00  0.00    -0.222 OA
BRANCH  36  38
ATOM     38  C   UNL     1      -0.584   6.792  -0.030  0.00  0.00    +0.147 C 
BRANCH  38  39
ATOM     39  C   UNL     1      -1.497   7.930  -0.306  0.00  0.00    +0.367 C 
ATOM     40  O   UNL     1      -1.979   8.194  -1.589  0.00  0.00    -0.246 OA
ATOM     41  O   UNL     1      -1.635   8.830   0.565  0.00  0.00    -0.246 OA
ENDBRANCH  38  39
ENDBRANCH  36  38
ENDBRANCH  35  36
ENDBRANCH  33  35
ENDBRANCH  32  33
ENDBRANCH  31  32
ENDBRANCH   2  31
TORSDOF 12
ENDMDL
MODEL 2
REMARK VINA RESULT:      -9.3      2.876      9.370
REMARK  Name = 
REMARK  12 active torsions:
REMARK  status: ('A' for Active; 'I' for Inactive)
REMARK    1  A    between atoms: C_2  and  C_4
REMARK    2  A    between atoms: C_5  and  C_6
REMARK    3  A    between atoms: N_8  and  C_9
REMARK    4  A    between atoms: C_15  and  C_16
REMARK    5  A    between atoms: C_22  and  C_23
REMARK    6  A    between atoms: N_30  and  C_31
REMARK    7  A    between atoms: C_31  and  C_32
REMARK    8  A    between atoms: C_32  and  C_33
REMARK    9  A    between atoms: C_33  and  C_35
REMARK   10  A    between atoms: C_35  and  C_36
REMARK   11  A    between atoms: C_36  and  C_38
REMARK   12  A    between atoms: C_38  and  C_39
REMARK                            x       y       z     vdW  Elec       q    Type
REMARK                         _______ _______ _______ _____ _____    ______ ____
ROOT
ATOM      1  C   UNL     1      -0.169   5.729  -6.942  0.00  0.00    +0.041 A 
ATOM      2  N   UNL     1       0.564   5.941  -8.063  0.00  0.00    -0.330 N 
ATOM      3  C   UNL     1       1.845   6.148  -7.673  0.00  0.00    +0.060 A 
ATOM      4  C   UNL     1       1.887   6.336  -6.296  0.00  0.00    +0.021 A 
ATOM      5  C   UNL     1       0.555   6.289  -5.896  0.00  0.00    +0.068 A 
ENDROOT
BRANCH   3   6
ATOM      6  C   UNL     1       2.961   5.861  -8.580  0.00  0.00    +0.016 A 
ATOM      7  C   UNL     1       3.572   6.840  -9.346  0.00  0.00    +0.004 A 
ATOM      8  C   UNL     1       4.926   6.735  -9.648  0.00  0.00    +0.030 A 
ATOM      9  C   UNL     1       5.620   5.608  -9.284  0.00  0.00    +0.140 A 
ATOM     10  F   UNL     1       6.948   5.619  -8.966  0.00  0.00    -0.204 F 
ATOM     11  C   UNL     1       4.860   4.462  -9.085  0.00  0.00    +0.030 A 
ATOM     12  C   UNL     1       3.547   4.604  -8.657  0.00  0.00    +0.004 A 
ENDBRANCH   3   6
BRANCH   4  13
ATOM     13  C   UNL     1       3.065   6.135  -5.444  0.00  0.00    +0.002 A 
ATOM     14  C   UNL     1       3.301   4.854  -4.960  0.00  0.00    +0.000 A 
ATOM     15  C   UNL     1       4.564   4.531  -4.477  0.00  0.00    +0.000 A 
ATOM     16  C   UNL     1       5.192   5.557  -3.782  0.00  0.00    +0.000 A 
ATOM     17  C   UNL     1       4.937   6.854  -4.210  0.00  0.00    +0.000 A 
ATOM     18  C   UNL     1       4.032   7.073  -5.237  0.00  0.00    +0.000 A 
ENDBRANCH   4  13
BRANCH   1  20
ATOM     19  C   UNL     1      -1.475   4.643  -7.051  0.00  0.00    +0.006 C 
ATOM     20  C   UNL     1      -1.409   4.912  -6.795  0.00  0.00    +0.038 C 
ATOM     21  C   UNL     1      -2.577   5.839  -6.526  0.00  0.00    +0.006 C 
ENDBRANCH   1  20
BRANCH   5  22
ATOM     22  C   UNL     1       0.059   6.510  -4.532  0.00  0.00    +0.270 C 
ATOM     23  N   UNL     1      -0.006   5.434  -3.588  0.00  0.00    -0.175 NA
ATOM     24  O   UNL     1       0.316   7.634  -3.999  0.00  0.00    -0.268 OA
BRANCH  23  25
ATOM     25  C   UNL     1      -0.668   5.733  -2.352  0.00  0.00    +0.074 A 
ATOM     26  C   UNL     1       0.053   5.860  -1.170  0.00  0.00    +0.017 A 
ATOM     27  C   UNL     1      -0.337   6.818  -0.242  0.00  0.00    +0.001 A 
ATOM     28  C   UNL     1      -1.543   7.489  -0.403  0.00  0.00    +0.000 A 
ATOM     29  C   UNL     1      -2.442   6.927  -1.297  0.00  0.00    +0.001 A 
ATOM     30  C   UNL     1      -2.006   6.055  -2.284  0.00  0.00    +0.017 A 
ENDBRANCH  23  25
ENDBRANCH   5  22
BRANCH   2  31
ATOM     31  C   UNL     1      -0.046   6.097  -9.358  0.00  0.00    +0.108 C 
BRANCH  31  32
ATOM     32  C   UNL     1       0.136   4.917 -10.263  0.00  0.00    +0.057 C 
BRANCH  32  33
ATOM     33  C   UNL     1      -0.361   5.571 -11.719  0.00  0.00    +0.156 C 
ATOM     34  O   UNL     1       0.298   4.424 -12.501  0.00  0.00    -0.223 OA
BRANCH  33  35
ATOM     35  C   UNL     1       1.015   6.516 -11.841  0.00  0.00    +0.066 C 
BRANCH  35  36
ATOM     36  C   UNL     1       1.480   5.791 -13.276  0.00  0.00    +0.166 C 
ATOM     37  O   UNL     1       1.430   7.141 -14.010  0.00  0.00    -0.222 OA
BRANCH  36  38
ATOM     38  C   UNL     1       3.102   5.992 -12.931  0.00  0.00    +0.147 C 
BRANCH  38  39
ATOM     39  C   UNL     1       3.713   4.902 -13.736  0.00  0.00    +0.367 C 
ATOM     40  O   UNL     1       2.942   4.055 -14.534  0.00  0.00    -0.246 OA
ATOM     41  O   UNL     1       4.902   4.560 -13.502  0.00  0.00    -0.246 OA
ENDBRANCH  38  39
ENDBRANCH  36  38
ENDBRANCH  35  36
ENDBRANCH  33  35
ENDBRANCH  32  33
ENDBRANCH  31  32
ENDBRANCH   2  31
TORSDOF 12
ENDMDL
MODEL 3
REMARK VINA RESULT:      -9.1      1.579      2.364
REMARK  Name = 
REMARK  12 active torsions:
REMARK  status: ('A' for Active; 'I' for Inactive)
REMARK    1  A    between atoms: C_2  and  C_4
REMARK    2  A    between atoms: C_5  and  C_6
REMARK    3  A    between atoms: N_8  and  C_9
REMARK    4  A    between atoms: C_15  and  C_16
REMARK    5  A    between atoms: C_22  and  C_23
REMARK    6  A    between atoms: N_30  and  C_31
REMARK    7  A    between atoms: C_31  and  C_32
REMARK    8  A    between atoms: C_32  and  C_33
REMARK    9  A    between atoms: C_33  and  C_35
REMARK   10  A    between atoms: C_35  and  C_36
REMARK   11  A    between atoms: C_36  and  C_38
REMARK   12  A    between atoms: C_38  and  C_39
REMARK                            x       y       z     vdW  Elec       q    Type
REMARK                         _______ _______ _______ _____ _____    ______ ____
ROOT
ATOM      1  C   UNL     1       3.027   6.091  -6.363  0.00  0.00    +0.041 A 
ATOM      2  N   UNL     1       1.867   6.440  -5.753  0.00  0.00    -0.330 N 
ATOM      3  C   UNL     1       0.920   6.542  -6.716  0.00  0.00    +0.060 A 
ATOM      4  C   UNL     1       1.527   6.525  -7.968  0.00  0.00    +0.021 A 
ATOM      5  C   UNL     1       2.889   6.466  -7.695  0.00  0.00    +0.068 A 
ENDROOT
BRANCH   3   6
ATOM      6  C   UNL     1      -0.500   6.353  -6.398  0.00  0.00    +0.016 A 
ATOM      7  C   UNL     1      -1.204   5.221  -6.773  0.00  0.00    +0.004 A 
ATOM      8  C   UNL     1      -2.241   4.757  -5.971  0.00  0.00    +0.030 A 
ATOM      9  C   UNL     1      -2.634   5.485  -4.875  0.00  0.00    +0.140 A 
ATOM     10  F   UNL     1      -3.142   4.915  -3.743  0.00  0.00    -0.204 F 
ATOM     11  C   UNL     1      -2.327   6.840  -4.902  0.00  0.00    +0.030 A 
ATOM     12  C   UNL     1      -1.206   7.251  -5.610  0.00  0.00    +0.004 A 
ENDBRANCH   3   6
BRANCH   4  13
ATOM     13  C   UNL     1       0.869   6.160  -9.229  0.00  0.00    +0.002 A 
ATOM     14  C   UNL     1       0.914   4.826  -9.617  0.00  0.00    +0.000 A 
ATOM     15  C   UNL     1       0.017   4.367 -10.575  0.00  0.00    +0.000 A 
ATOM     16  C   UNL     1      -0.255   5.277 -11.590  0.00  0.00    +0.000 A 
ATOM     17  C   UNL     1      -0.258   6.622 -11.243  0.00  0.00    +0.000 A 
ATOM     18  C   UNL     1       0.076   6.999  -9.952  0.00  0.00    +0.000 A 
ENDBRANCH   4  13
BRANCH   1  20
ATOM     19  C   UNL     1       4.082   4.991  -5.607  0.00  0.00    +0.006 C 
ATOM     20  C   UNL     1       4.162   5.306  -5.798  0.00  0.00    +0.038 C 
ATOM     21  C   UNL     1       5.113   6.255  -5.096  0.00  0.00    +0.006 C 
ENDBRANCH   1  20
BRANCH   5  22
ATOM     22  C   UNL     1       3.968   6.503  -8.690  0.00  0.00    +0.270 C 
ATOM     23  N   UNL     1       4.548   5.292  -9.191  0.00  0.00    -0.175 NA
ATOM     24  O   UNL     1       3.931   7.437  -9.549  0.00  0.00    -0.268 OA
BRANCH  23  25
ATOM     25  C   UNL     1       5.705   5.457 -10.022  0.00  0.00    +0.074 A 
ATOM     26  C   UNL     1       5.600   5.407 -11.407  0.00  0.00    +0.017 A 
ATOM     27  C   UNL     1       6.391   6.255 -12.174  0.00  0.00    +0.001 A 
ATOM     28  C   UNL     1       7.409   6.985 -11.574  0.00  0.00    +0.000 A 
ATOM     29  C   UNL     1       7.793   6.573 -10.306  0.00  0.00    +0.001 A 
ATOM     30  C   UNL     1       6.937   5.817  -9.519  0.00  0.00    +0.017 A 
ENDBRANCH  23  25
ENDBRANCH   5  22
BRANCH   2  31
ATOM     31  C   UNL     1       1.814   6.806  -4.361  0.00  0.00    +0.108 C 
BRANCH  31  32
ATOM     32  C   UNL     1       1.308   5.717  -3.464  0.00  0.00    +0.057 C 
BRANCH  32  33
ATOM     33  C   UNL     1       2.609   5.550  -2.428  0.00  0.00    +0.156 C 
ATOM     34  O   UNL     1       1.695   5.039  -1.303  0.00  0.00    -0.223 OA
BRANCH  33  35
ATOM     35  C   UNL     1       2.475   7.129  -1.894  0.00  0.00    +0.066 C 
BRANCH  35  36
ATOM     36  C   UNL     1       4.117   7.252  -1.597  0.00  0.00    +0.166 C 
ATOM     37  O   UNL     1       4.238   8.427  -2.583  0.00  0.00    -0.222 OA
BRANCH  36  38
ATOM     38  C   UNL     1       3.877   8.298  -0.316  0.00  0.00    +0.147 C 
BRANCH  38  39
ATOM     39  C   UNL     1       3.793   7.351   0.826  0.00  0.00    +0.367 C 
ATOM     40  O   UNL     1       2.911   7.555   1.888  0.00  0.00    -0.246 OA
ATOM     41  O   UNL     1       4.705   6.496   0.981  0.00  0.00    -0.246 OA
ENDBRANCH  38  39
ENDBRANCH  36  38
ENDBRANCH  35  36
ENDBRANCH  33  35
ENDBRANCH  32  33
ENDBRANCH  31  32
ENDBRANCH   2  31
TORSDOF 12
ENDMDL
MODEL 4
REMARK VINA RESULT:      -9.1      1.673      2.948
REMARK  Name = 
REMARK  12 active torsions:
REMARK  status: ('A' for Active; 'I' for Inactive)
REMARK    1  A    between atoms: C_2  and  C_4
REMARK    2  A    between atoms: C_5  and  C_6
REMARK    3  A    between atoms: N_8  and  C_9
REMARK    4  A    between atoms: C_15  and  C_16
REMARK    5  A    between atoms: C_22  and  C_23
REMARK    6  A    between atoms: N_30  and  C_31
REMARK    7  A    between atoms: C_31  and  C_32
REMARK    8  A    between atoms: C_32  and  C_33
REMARK    9  A    between atoms: C_33  and  C_35
REMARK   10  A    between atoms: C_35  and  C_36
REMARK   11  A    between atoms: C_36  and  C_38
REMARK   12  A    between atoms: C_38  and  C_39
REMARK                            x       y       z     vdW  Elec       q    Type
REMARK                         _______ _______ _______ _____ _____    ______ ____
ROOT
ATOM      1  C   UNL     1       4.692   5.752  -8.277  0.00  0.00    +0.041 A 
ATOM      2  N   UNL     1       3.909   6.045  -7.209  0.00  0.00    -0.330 N 
ATOM      3  C   UNL     1       2.649   6.227  -7.672  0.00  0.00    +0.060 A 
ATOM      4  C   UNL     1       2.672   6.318  -9.060  0.00  0.00    +0.021 A 
ATOM      5  C   UNL     1       4.021   6.239  -9.392  0.00  0.00    +0.068 A 
ENDROOT
BRANCH   3   6
ATOM      6  C   UNL     1       1.489   6.008  -6.800  0.00  0.00    +0.016 A 
ATOM      7  C   UNL     1       0.816   7.047  -6.178  0.00  0.00    +0.004 A 
ATOM      8  C   UNL     1      -0.550   6.938  -5.940  0.00  0.00    +0.030 A 
ATOM      9  C   UNL     1      -1.199   5.760  -6.217  0.00  0.00    +0.140 A 
ATOM     10  F   UNL     1      -2.507   5.703  -6.606  0.00  0.00    -0.204 F 
ATOM     11  C   UNL     1      -0.405   4.621  -6.252  0.00  0.00    +0.030 A 
ATOM     12  C   UNL     1       0.927   4.752  -6.622  0.00  0.00    +0.004 A 
ENDBRANCH   3   6
BRANCH   4  13
ATOM     13  C   UNL     1       1.534   6.061  -9.950  0.00  0.00    +0.002 A 
ATOM     14  C   UNL     1       1.256   4.739 -10.277  0.00  0.00    +0.000 A 
ATOM     15  C   UNL     1       0.006   4.414 -10.792  0.00  0.00    +0.000 A 
ATOM     16  C   UNL     1      -0.526   5.368 -11.652  0.00  0.00    +0.000 A 
ATOM     17  C   UNL     1      -0.225   6.697 -11.380  0.00  0.00    +0.000 A 
ATOM     18  C   UNL     1       0.632   7.007 -10.336  0.00  0.00    +0.000 A 
ENDBRANCH   4  13
BRANCH   1  20
ATOM     19  C   UNL     1       6.045   4.762  -7.985  0.00  0.00    +0.006 C 
ATOM     20  C   UNL     1       5.932   4.923  -8.307  0.00  0.00    +0.038 C 
ATOM     21  C   UNL     1       7.010   5.681  -9.055  0.00  0.00    +0.006 C 
ENDBRANCH   1  20
BRANCH   5  22
ATOM     22  C   UNL     1       4.582   6.363 -10.743  0.00  0.00    +0.270 C 
ATOM     23  N   UNL     1       4.487   5.283 -11.681  0.00  0.00    -0.175 NA
ATOM     24  O   UNL     1       4.532   7.509 -11.287  0.00  0.00    -0.268 OA
BRANCH  23  25
ATOM     25  C   UNL     1       5.221   5.456 -12.900  0.00  0.00    +0.074 A 
ATOM     26  C   UNL     1       4.569   5.779 -14.085  0.00  0.00    +0.017 A 
ATOM     27  C   UNL     1       5.185   6.647 -14.979  0.00  0.00    +0.001 A 
ATOM     28  C   UNL     1       6.510   7.017 -14.785  0.00  0.00    +0.000 A 
ATOM     29  C   UNL     1       7.241   6.238 -13.900  0.00  0.00    +0.001 A 
ATOM     30  C   UNL     1       6.599   5.462 -12.945  0.00  0.00    +0.017 A 
ENDBRANCH  23  25
ENDBRANCH   5  22
BRANCH   2  31
ATOM     31  C   UNL     1       4.458   6.290  -5.900  0.00  0.00    +0.108 C 
BRANCH  31  32
ATOM     32  C   UNL     1       4.254   5.164  -4.933  0.00  0.00    +0.057 C 
BRANCH  32  33
ATOM     33  C   UNL     1       4.605   5.934  -3.492  0.00  0.00    +0.156 C 
ATOM     34  O   UNL     1       4.028   4.762  -2.683  0.00  0.00    -0.223 OA
BRANCH  33  35
ATOM     35  C   UNL     1       3.135   6.734  -3.484  0.00  0.00    +0.066 C 
BRANCH  35  36
ATOM     36  C   UNL     1       2.568   5.841  -2.186  0.00  0.00    +0.166 C 
ATOM     37  O   UNL     1       2.401   7.117  -1.343  0.00  0.00    -0.222 OA
BRANCH  36  38
ATOM     38  C   UNL     1       0.989   5.939  -2.721  0.00  0.00    +0.147 C 
BRANCH  38  39
ATOM     39  C   UNL     1       0.302   5.011  -1.786  0.00  0.00    +0.367 C 
ATOM     40  O   UNL     1      -0.994   5.254  -1.326  0.00  0.00    -0.246 OA
ATOM     41  O   UNL     1       0.978   4.134  -1.186  0.00  0.00    -0.246 OA
ENDBRANCH  38  39
ENDBRANCH  36  38
ENDBRANCH  35  36
ENDBRANCH  33  35
ENDBRANCH  32  33
ENDBRANCH  31  32
ENDBRANCH   2  31
TORSDOF 12
ENDMDL
MODEL 5
REMARK VINA RESULT:      -9.1      2.563      8.453
REMARK  Name = 
REMARK  12 active torsions:
REMARK  status: ('A' for Active; 'I' for Inactive)
REMARK    1  A    between atoms: C_2  and  C_4
REMARK    2  A    between atoms: C_5  and  C_6
REMARK    3  A    between atoms: N_8  and  C_9
REMARK    4  A    between atoms: C_15  and  C_16
REMARK    5  A    between atoms: C_22  and  C_23
REMARK    6  A    between atoms: N_30  and  C_31
REMARK    7  A    between atoms: C_31  and  C_32
REMARK    8  A    between atoms: C_32  and  C_33
REMARK    9  A    between atoms: C_33  and  C_35
REMARK   10  A    between atoms: C_35  and  C_36
REMARK   11  A    between atoms: C_36  and  C_38
REMARK   12  A    between atoms: C_38  and  C_39
REMARK                            x       y       z     vdW  Elec       q    Type
REMARK                         _______ _______ _______ _____ _____    ______ ____
ROOT
ATOM      1  C   UNL     1       3.111   5.263  -6.189  0.00  0.00    +0.041 A 
ATOM      2  N   UNL     1       2.660   4.916  -7.420  0.00  0.00    -0.330 N 
ATOM      3  C   UNL     1       1.329   5.168  -7.447  0.00  0.00    +0.060 A 
ATOM      4  C   UNL     1       0.878   5.420  -6.156  0.00  0.00    +0.021 A 
ATOM      5  C   UNL     1       2.000   5.246  -5.353  0.00  0.00    +0.068 A 
ENDROOT
BRANCH   3   6
ATOM      6  C   UNL     1       0.643   5.442  -8.714  0.00  0.00    +0.016 A 
ATOM      7  C   UNL     1       0.614   6.701  -9.291  0.00  0.00    +0.004 A 
ATOM      8  C   UNL     1       0.575   6.824 -10.676  0.00  0.00    +0.030 A 
ATOM      9  C   UNL     1       0.449   5.702 -11.457  0.00  0.00    +0.140 A 
ATOM     10  F   UNL     1       0.985   5.600 -12.709  0.00  0.00    -0.204 F 
ATOM     11  C   UNL     1      -0.112   4.590 -10.840  0.00  0.00    +0.030 A 
ATOM     12  C   UNL     1       0.060   4.435  -9.471  0.00  0.00    +0.004 A 
ENDBRANCH   3   6
BRANCH   4  13
ATOM     13  C   UNL     1      -0.342   6.160  -5.809  0.00  0.00    +0.002 A 
ATOM     14  C   UNL     1      -1.558   5.628  -6.220  0.00  0.00    +0.000 A 
ATOM     15  C   UNL     1      -2.731   6.067  -5.617  0.00  0.00    +0.000 A 
ATOM     16  C   UNL     1      -2.745   7.422  -5.307  0.00  0.00    +0.000 A 
ATOM     17  C   UNL     1      -1.534   7.995  -4.940  0.00  0.00    +0.000 A 
ATOM     18  C   UNL     1      -0.376   7.232  -4.969  0.00  0.00    +0.000 A 
ENDBRANCH   4  13
BRANCH   1  20
ATOM     19  C   UNL     1       4.660   5.550  -5.547  0.00  0.00    +0.006 C 
ATOM     20  C   UNL     1       4.471   5.744  -5.810  0.00  0.00    +0.038 C 
ATOM     21  C   UNL     1       4.417   7.242  -5.586  0.00  0.00    +0.006 C 
ENDBRANCH   1  20
BRANCH   5  22
ATOM     22  C   UNL     1       2.030   5.327  -3.887  0.00  0.00    +0.270 C 
ATOM     23  N   UNL     1       2.383   6.548  -3.224  0.00  0.00    -0.175 NA
ATOM     24  O   UNL     1       1.171   4.639  -3.253  0.00  0.00    -0.268 OA
BRANCH  23  25
ATOM     25  C   UNL     1       2.546   6.455  -1.803  0.00  0.00    +0.074 A 
ATOM     26  C   UNL     1       3.737   5.998  -1.251  0.00  0.00    +0.017 A 
ATOM     27  C   UNL     1       4.201   6.577  -0.075  0.00  0.00    +0.001 A 
ATOM     28  C   UNL     1       3.387   7.447   0.638  0.00  0.00    +0.000 A 
ATOM     29  C   UNL     1       2.038   7.428   0.315  0.00  0.00    +0.001 A 
ATOM     30  C   UNL     1       1.612   6.942  -0.913  0.00  0.00    +0.017 A 
ENDBRANCH  23  25
ENDBRANCH   5  22
BRANCH   2  31
ATOM     31  C   UNL     1       3.492   4.228  -8.374  0.00  0.00    +0.108 C 
BRANCH  31  32
ATOM     32  C   UNL     1       3.617   4.932  -9.691  0.00  0.00    +0.057 C 
BRANCH  32  33
ATOM     33  C   UNL     1       4.905   5.948  -9.369  0.00  0.00    +0.156 C 
ATOM     34  O   UNL     1       4.086   7.179  -9.790  0.00  0.00    -0.223 OA
BRANCH  33  35
ATOM     35  C   UNL     1       5.523   5.764 -10.913  0.00  0.00    +0.066 C 
BRANCH  35  36
ATOM     36  C   UNL     1       7.004   6.414 -10.482  0.00  0.00    +0.166 C 
ATOM     37  O   UNL     1       6.873   5.845  -9.059  0.00  0.00    -0.222 OA
BRANCH  36  38
ATOM     38  C   UNL     1       7.827   5.053 -10.995  0.00  0.00    +0.147 C 
BRANCH  38  39
ATOM     39  C   UNL     1       8.191   5.434 -12.384  0.00  0.00    +0.367 C 
ATOM     40  O   UNL     1       7.592   4.834 -13.493  0.00  0.00    -0.246 OA
ATOM     41  O   UNL     1       9.234   6.111 -12.581  0.00  0.00    -0.246 OA
ENDBRANCH  38  39
ENDBRANCH  36  38
ENDBRANCH  35  36
ENDBRANCH  33  35
ENDBRANCH  32  33
ENDBRANCH  31  32
ENDBRANCH   2  31
TORSDOF 12
ENDMDL
MODEL 6
REMARK VINA RESULT:      -8.8      3.646      9.721
REMARK  Name = 
REMARK  12 active torsions:
REMARK  status: ('A' for Active; 'I' for Inactive)
REMARK    1  A    between atoms: C_2  and  C_4
REMARK    2  A    between atoms: C_5  and  C_6
REMARK    3  A    between atoms: N_8  and  C_9
REMARK    4  A    between atoms: C_15  and  C_16
REMARK    5  A    between atoms: C_22  and  C_23
REMARK    6  A    between atoms: N_30  and  C_31
REMARK    7  A    between atoms: C_31  and  C_32
REMARK    8  A    between atoms: C_32  and  C_33
REMARK    9  A    between atoms: C_33  and  C_35
REMARK   10  A    between atoms: C_35  and  C_36
REMARK   11  A    between atoms: C_36  and  C_38
REMARK   12  A    between atoms: C_38  and  C_39
REMARK                            x       y       z     vdW  Elec       q    Type
REMARK                         _______ _______ _______ _____ _____    ______ ____
ROOT
ATOM      1  C   UNL     1       1.484   5.519  -9.782  0.00  0.00    +0.041 A 
ATOM      2  N   UNL     1       2.556   6.102 -10.375  0.00  0.00    -0.330 N 
ATOM      3  C   UNL     1       3.420   6.451  -9.391  0.00  0.00    +0.060 A 
ATOM      4  C   UNL     1       2.788   6.339  -8.157  0.00  0.00    +0.021 A 
ATOM      5  C   UNL     1       1.485   5.962  -8.464  0.00  0.00    +0.068 A 
ENDROOT
BRANCH   3   6
ATOM      6  C   UNL     1       4.856   6.579  -9.663  0.00  0.00    +0.016 A 
ATOM      7  C   UNL     1       5.790   5.678  -9.180  0.00  0.00    +0.004 A 
ATOM      8  C   UNL     1       6.938   5.413  -9.919  0.00  0.00    +0.030 A 
ATOM      9  C   UNL     1       7.193   6.130 -11.063  0.00  0.00    +0.140 A 
ATOM     10  F   UNL     1       7.866   5.612 -12.132  0.00  0.00    -0.204 F 
ATOM     11  C   UNL     1       6.577   7.371 -11.154  0.00  0.00    +0.030 A 
ATOM     12  C   UNL     1       5.363   7.557 -10.507  0.00  0.00    +0.004 A 
ENDBRANCH   3   6
BRANCH   4  13
ATOM     13  C   UNL     1       3.465   6.178  -6.864  0.00  0.00    +0.002 A 
ATOM     14  C   UNL     1       3.713   7.324  -6.118  0.00  0.00    +0.000 A 
ATOM     15  C   UNL     1       4.000   7.205  -4.763  0.00  0.00    +0.000 A 
ATOM     16  C   UNL     1       4.775   6.099  -4.436  0.00  0.00    +0.000 A 
ATOM     17  C   UNL     1       4.585   4.952  -5.196  0.00  0.00    +0.000 A 
ATOM     18  C   UNL     1       3.710   4.977  -6.270  0.00  0.00    +0.000 A 
ENDBRANCH   4  13
BRANCH   1  20
ATOM     19  C   UNL     1       0.732   4.152 -10.461  0.00  0.00    +0.006 C 
ATOM     20  C   UNL     1       0.578   4.476 -10.344  0.00  0.00    +0.038 C 
ATOM     21  C   UNL     1      -0.367   5.129 -11.332  0.00  0.00    +0.006 C 
ENDBRANCH   1  20
BRANCH   5  22
ATOM     22  C   UNL     1       0.391   5.785  -7.501  0.00  0.00    +0.270 C 
ATOM     23  N   UNL     1       0.259   6.655  -6.369  0.00  0.00    -0.175 NA
ATOM     24  O   UNL     1      -0.723   5.383  -7.959  0.00  0.00    -0.268 OA
BRANCH  23  25
ATOM     25  C   UNL     1      -0.739   6.278  -5.412  0.00  0.00    +0.074 A 
ATOM     26  C   UNL     1      -0.431   5.417  -4.364  0.00  0.00    +0.017 A 
ATOM     27  C   UNL     1      -1.017   5.632  -3.121  0.00  0.00    +0.001 A 
ATOM     28  C   UNL     1      -2.042   6.560  -2.989  0.00  0.00    +0.000 A 
ATOM     29  C   UNL     1      -2.649   6.974  -4.165  0.00  0.00    +0.001 A 
ATOM     30  C   UNL     1      -1.994   6.846  -5.382  0.00  0.00    +0.017 A 
ENDBRANCH  23  25
ENDBRANCH   5  22
BRANCH   2  31
ATOM     31  C   UNL     1       2.575   6.421 -11.779  0.00  0.00    +0.108 C 
BRANCH  31  32
ATOM     32  C   UNL     1       3.447   5.518 -12.597  0.00  0.00    +0.057 C 
BRANCH  32  33
ATOM     33  C   UNL     1       2.453   5.249 -13.914  0.00  0.00    +0.156 C 
ATOM     34  O   UNL     1       3.493   5.855 -14.869  0.00  0.00    -0.223 OA
BRANCH  33  35
ATOM     35  C   UNL     1       1.688   6.725 -13.724  0.00  0.00    +0.066 C 
BRANCH  35  36
ATOM     36  C   UNL     1       1.442   6.898 -15.371  0.00  0.00    +0.166 C 
ATOM     37  O   UNL     1       0.388   5.778 -15.361  0.00  0.00    -0.222 OA
BRANCH  36  38
ATOM     38  C   UNL     1       0.267   8.063 -15.142  0.00  0.00    +0.147 C 
BRANCH  38  39
ATOM     39  C   UNL     1       1.004   9.301 -15.506  0.00  0.00    +0.367 C 
ATOM     40  O   UNL     1       2.014   9.300 -16.470  0.00  0.00    -0.246 OA
ATOM     41  O   UNL     1       0.910  10.312 -14.761  0.00  0.00    -0.246 OA
ENDBRANCH  38  39
ENDBRANCH  36  38
ENDBRANCH  35  36
ENDBRANCH  33  35
ENDBRANCH  32  33
ENDBRANCH  31  32
ENDBRANCH   2  31
TORSDOF 12
ENDMDL
MODEL 7
REMARK VINA RESULT:      -8.8      2.748      8.752
REMARK  Name = 
REMARK  12 active torsions:
REMARK  status: ('A' for Active; 'I' for Inactive)
REMARK    1  A    between atoms: C_2  and  C_4
REMARK    2  A    between atoms: C_5  and  C_6
REMARK    3  A    between atoms: N_8  and  C_9
REMARK    4  A    between atoms: C_15  and  C_16
REMARK    5  A    between atoms: C_22  and  C_23
REMARK    6  A    between atoms: N_30  and  C_31
REMARK    7  A    between atoms: C_31  and  C_32
REMARK    8  A    between atoms: C_32  and  C_33
REMARK    9  A    between atoms: C_33  and  C_35
REMARK   10  A    between atoms: C_35  and  C_36
REMARK   11  A    between atoms: C_36  and  C_38
REMARK   12  A    between atoms: C_38  and  C_39
REMARK                            x       y       z     vdW  Elec       q    Type
REMARK                         _______ _______ _______ _____ _____    ______ ____
ROOT
ATOM      1  C   UNL     1       3.678   6.880  -4.555  0.00  0.00    +0.041 A 
ATOM      2  N   UNL     1       3.374   6.501  -5.821  0.00  0.00    -0.330 N 
ATOM      3  C   UNL     1       2.049   6.223  -5.851  0.00  0.00    +0.060 A 
ATOM      4  C   UNL     1       1.558   6.161  -4.551  0.00  0.00    +0.021 A 
ATOM      5  C   UNL     1       2.675   6.360  -3.746  0.00  0.00    +0.068 A 
ENDROOT
BRANCH   3   6
ATOM      6  C   UNL     1       1.287   6.327  -7.100  0.00  0.00    +0.016 A 
ATOM      7  C   UNL     1       1.497   7.340  -8.020  0.00  0.00    +0.004 A 
ATOM      8  C   UNL     1       1.301   7.093  -9.375  0.00  0.00    +0.030 A 
ATOM      9  C   UNL     1       0.793   5.883  -9.781  0.00  0.00    +0.140 A 
ATOM     10  F   UNL     1       1.110   5.303 -10.976  0.00  0.00    -0.204 F 
ATOM     11  C   UNL     1       0.060   5.181  -8.832  0.00  0.00    +0.030 A 
ATOM     12  C   UNL     1       0.373   5.358  -7.490  0.00  0.00    +0.004 A 
ENDBRANCH   3   6
BRANCH   4  13
ATOM     13  C   UNL     1       0.154   6.339  -4.160  0.00  0.00    +0.002 A 
ATOM     14  C   UNL     1      -0.476   7.519  -4.537  0.00  0.00    +0.000 A 
ATOM     15  C   UNL     1      -1.865   7.581  -4.527  0.00  0.00    +0.000 A 
ATOM     16  C   UNL     1      -2.463   6.892  -3.478  0.00  0.00    +0.000 A 
ATOM     17  C   UNL     1      -1.830   5.734  -3.046  0.00  0.00    +0.000 A 
ATOM     18  C   UNL     1      -0.619   5.361  -3.610  0.00  0.00    +0.000 A 
ENDBRANCH   4  13
BRANCH   1  20
ATOM     19  C   UNL     1       4.852   8.093  -4.338  0.00  0.00    +0.006 C 
ATOM     20  C   UNL     1       4.755   7.810  -4.108  0.00  0.00    +0.038 C 
ATOM     21  C   UNL     1       5.916   6.995  -3.572  0.00  0.00    +0.006 C 
ENDBRANCH   1  20
BRANCH   5  22
ATOM     22  C   UNL     1       2.698   6.310  -2.279  0.00  0.00    +0.270 C 
ATOM     23  N   UNL     1       2.585   7.508  -1.500  0.00  0.00    -0.175 NA
ATOM     24  O   UNL     1       2.166   5.298  -1.726  0.00  0.00    -0.268 OA
BRANCH  23  25
ATOM     25  C   UNL     1       2.795   7.351  -0.090  0.00  0.00    +0.074 A 
ATOM     26  C   UNL     1       4.053   7.038   0.412  0.00  0.00    +0.017 A 
ATOM     27  C   UNL     1       4.458   7.603   1.616  0.00  0.00    +0.001 A 
ATOM     28  C   UNL     1       3.545   8.300   2.397  0.00  0.00    +0.000 A 
ATOM     29  C   UNL     1       2.205   8.106   2.094  0.00  0.00    +0.001 A 
ATOM     30  C   UNL     1       1.823   7.641   0.844  0.00  0.00    +0.017 A 
ENDBRANCH  23  25
ENDBRANCH   5  22
BRANCH   2  31
ATOM     31  C   UNL     1       4.389   6.278  -6.819  0.00  0.00    +0.108 C 
BRANCH  31  32
ATOM     32  C   UNL     1       4.229   4.993  -7.572  0.00  0.00    +0.057 C 
BRANCH  32  33
ATOM     33  C   UNL     1       4.341   5.548  -9.145  0.00  0.00    +0.156 C 
ATOM     34  O   UNL     1       4.082   4.138  -9.699  0.00  0.00    -0.223 OA
BRANCH  33  35
ATOM     35  C   UNL     1       5.998   5.316  -9.181  0.00  0.00    +0.066 C 
BRANCH  35  36
ATOM     36  C   UNL     1       6.090   5.666 -10.815  0.00  0.00    +0.166 C 
ATOM     37  O   UNL     1       5.526   7.076 -10.575  0.00  0.00    -0.222 OA
BRANCH  36  38
ATOM     38  C   UNL     1       7.658   6.226 -10.675  0.00  0.00    +0.147 C 
BRANCH  38  39
ATOM     39  C   UNL     1       8.327   5.512 -11.794  0.00  0.00    +0.367 C 
ATOM     40  O   UNL     1       9.465   6.025 -12.419  0.00  0.00    -0.246 OA
ATOM     41  O   UNL     1       7.722   4.569 -12.368  0.00  0.00    -0.246 OA
ENDBRANCH  38  39
ENDBRANCH  36  38
ENDBRANCH  35  36
ENDBRANCH  33  35
ENDBRANCH  32  33
ENDBRANCH  31  32
ENDBRANCH   2  31
TORSDOF 12
ENDMDL
MODEL 8
REMARK VINA RESULT:      -8.5      2.709      4.573
REMARK  Name = 
REMARK  12 active torsions:
REMARK  status: ('A' for Active; 'I' for Inactive)
REMARK    1  A    between atoms: C_2  and  C_4
REMARK    2  A    between atoms: C_5  and  C_6
REMARK    3  A    between atoms: N_8  and  C_9
REMARK    4  A    between atoms: C_15  and  C_16
REMARK    5  A    between atoms: C_22  and  C_23
REMARK    6  A    between atoms: N_30  and  C_31
REMARK    7  A    between atoms: C_31  and  C_32
REMARK    8  A    between atoms: C_32  and  C_33
REMARK    9  A    between atoms: C_33  and  C_35
REMARK   10  A    between atoms: C_35  and  C_36
REMARK   11  A    between atoms: C_36  and  C_38
REMARK   12  A    between atoms: C_38  and  C_39
REMARK                            x       y       z     vdW  Elec       q    Type
REMARK                         _______ _______ _______ _____ _____    ______ ____
ROOT
ATOM      1  C   UNL     1       2.976   5.955  -4.329  0.00  0.00    +0.041 A 
ATOM      2  N   UNL     1       2.553   6.108  -3.050  0.00  0.00    -0.330 N 
ATOM      3  C   UNL     1       1.236   6.424  -3.096  0.00  0.00    +0.060 A 
ATOM      4  C   UNL     1       0.880   6.739  -4.404  0.00  0.00    +0.021 A 
ATOM      5  C   UNL     1       2.069   6.650  -5.121  0.00  0.00    +0.068 A 
ENDROOT
BRANCH   3   6
ATOM      6  C   UNL     1       0.351   6.122  -1.966  0.00  0.00    +0.016 A 
ATOM      7  C   UNL     1       0.596   6.581  -0.683  0.00  0.00    +0.004 A 
ATOM      8  C   UNL     1      -0.471   6.865   0.164  0.00  0.00    +0.030 A 
ATOM      9  C   UNL     1      -1.753   6.580  -0.237  0.00  0.00    +0.140 A 
ATOM     10  F   UNL     1      -2.838   7.307   0.161  0.00  0.00    -0.204 F 
ATOM     11  C   UNL     1      -1.882   5.605  -1.218  0.00  0.00    +0.030 A 
ATOM     12  C   UNL     1      -0.847   5.440  -2.128  0.00  0.00    +0.004 A 
ENDBRANCH   3   6
BRANCH   4  13
ATOM     13  C   UNL     1      -0.480   6.686  -4.952  0.00  0.00    +0.002 A 
ATOM     14  C   UNL     1      -0.833   5.567  -5.697  0.00  0.00    +0.000 A 
ATOM     15  C   UNL     1      -2.178   5.292  -5.916  0.00  0.00    +0.000 A 
ATOM     16  C   UNL     1      -2.969   6.418  -6.117  0.00  0.00    +0.000 A 
ATOM     17  C   UNL     1      -2.612   7.568  -5.424  0.00  0.00    +0.000 A 
ATOM     18  C   UNL     1      -1.469   7.570  -4.640  0.00  0.00    +0.000 A 
ENDBRANCH   4  13
BRANCH   1  20
ATOM     19  C   UNL     1       4.123   4.747  -4.673  0.00  0.00    +0.006 C 
ATOM     20  C   UNL     1       4.075   5.083  -4.836  0.00  0.00    +0.038 C 
ATOM     21  C   UNL     1       5.336   5.913  -4.970  0.00  0.00    +0.006 C 
ENDBRANCH   1  20
BRANCH   5  22
ATOM     22  C   UNL     1       2.240   6.965  -6.545  0.00  0.00    +0.270 C 
ATOM     23  N   UNL     1       2.147   5.939  -7.541  0.00  0.00    -0.175 NA
ATOM     24  O   UNL     1       1.815   8.093  -6.942  0.00  0.00    -0.268 OA
BRANCH  23  25
ATOM     25  C   UNL     1       2.504   6.336  -8.872  0.00  0.00    +0.074 A 
ATOM     26  C   UNL     1       3.836   6.500  -9.234  0.00  0.00    +0.017 A 
ATOM     27  C   UNL     1       4.240   6.125 -10.509  0.00  0.00    +0.001 A 
ATOM     28  C   UNL     1       3.290   5.787 -11.466  0.00  0.00    +0.000 A 
ATOM     29  C   UNL     1       1.984   6.166 -11.194  0.00  0.00    +0.001 A 
ATOM     30  C   UNL     1       1.582   6.432  -9.892  0.00  0.00    +0.017 A 
ENDBRANCH  23  25
ENDBRANCH   5  22
BRANCH   2  31
ATOM     31  C   UNL     1       3.466   6.109  -1.936  0.00  0.00    +0.108 C 
BRANCH  31  32
ATOM     32  C   UNL     1       4.005   7.464  -1.592  0.00  0.00    +0.057 C 
BRANCH  32  33
ATOM     33  C   UNL     1       4.822   7.115  -0.177  0.00  0.00    +0.156 C 
ATOM     34  O   UNL     1       4.206   5.708  -0.125  0.00  0.00    -0.223 OA
BRANCH  33  35
ATOM     35  C   UNL     1       3.594   7.746   0.768  0.00  0.00    +0.066 C 
BRANCH  35  36
ATOM     36  C   UNL     1       3.565   9.183  -0.089  0.00  0.00    +0.166 C 
ATOM     37  O   UNL     1       2.152   9.499   0.427  0.00  0.00    -0.222 OA
BRANCH  36  38
ATOM     38  C   UNL     1       4.260  10.029   1.174  0.00  0.00    +0.147 C 
BRANCH  38  39
ATOM     39  C   UNL     1       4.013  11.434   0.759  0.00  0.00    +0.367 C 
ATOM     40  O   UNL     1       4.083  11.831  -0.577  0.00  0.00    -0.246 OA
ATOM     41  O   UNL     1       4.001  12.338   1.635  0.00  0.00    -0.246 OA
ENDBRANCH  38  39
ENDBRANCH  36  38
ENDBRANCH  35  36
ENDBRANCH  33  35
ENDBRANCH  32  33
ENDBRANCH  31  32
ENDBRANCH   2  31
TORSDOF 12
ENDMDL
MODEL 9
REMARK VINA RESULT:      -8.1      2.740      4.721
REMARK  Name = 
REMARK  12 active torsions:
REMARK  status: ('A' for Active; 'I' for Inactive)
REMARK    1  A    between atoms: C_2  and  C_4
REMARK    2  A    between atoms: C_5  and  C_6
REMARK    3  A    between atoms: N_8  and  C_9
REMARK    4  A    between atoms: C_15  and  C_16
REMARK    5  A    between atoms: C_22  and  C_23
REMARK    6  A    between atoms: N_30  and  C_31
REMARK    7  A    between atoms: C_31  and  C_32
REMARK    8  A    between atoms: C_32  and  C_33
REMARK    9  A    between atoms: C_33  and  C_35
REMARK   10  A    between atoms: C_35  and  C_36
REMARK   11  A    between atoms: C_36  and  C_38
REMARK   12  A    between atoms: C_38  and  C_39
REMARK                            x       y       z     vdW  Elec       q    Type
REMARK                         _______ _______ _______ _____ _____    ______ ____
ROOT
ATOM      1  C   UNL     1       2.869   5.833  -4.407  0.00  0.00    +0.041 A 
ATOM      2  N   UNL     1       2.507   5.984  -3.110  0.00  0.00    -0.330 N 
ATOM      3  C   UNL     1       1.210   6.377  -3.097  0.00  0.00    +0.060 A 
ATOM      4  C   UNL     1       0.821   6.737  -4.383  0.00  0.00    +0.021 A 
ATOM      5  C   UNL     1       1.973   6.594  -5.149  0.00  0.00    +0.068 A 
ENDROOT
BRANCH   3   6
ATOM      6  C   UNL     1       0.354   6.104  -1.937  0.00  0.00    +0.016 A 
ATOM      7  C   UNL     1       0.592   6.652  -0.688  0.00  0.00    +0.004 A 
ATOM      8  C   UNL     1      -0.476   6.937   0.156  0.00  0.00    +0.030 A 
ATOM      9  C   UNL     1      -1.749   6.568  -0.207  0.00  0.00    +0.140 A 
ATOM     10  F   UNL     1      -2.862   7.268   0.162  0.00  0.00    -0.204 F 
ATOM     11  C   UNL     1      -1.843   5.530  -1.125  0.00  0.00    +0.030 A 
ATOM     12  C   UNL     1      -0.812   5.358  -2.039  0.00  0.00    +0.004 A 
ENDBRANCH   3   6
BRANCH   4  13
ATOM     13  C   UNL     1      -0.561   6.774  -4.877  0.00  0.00    +0.002 A 
ATOM     14  C   UNL     1      -1.379   7.805  -4.430  0.00  0.00    +0.000 A 
ATOM     15  C   UNL     1      -2.542   8.102  -5.130  0.00  0.00    +0.000 A 
ATOM     16  C   UNL     1      -3.205   6.991  -5.640  0.00  0.00    +0.000 A 
ATOM     17  C   UNL     1      -2.416   5.924  -6.050  0.00  0.00    +0.000 A 
ATOM     18  C   UNL     1      -1.043   5.974  -5.869  0.00  0.00    +0.000 A 
ENDBRANCH   4  13
BRANCH   1  20
ATOM     19  C   UNL     1       4.036   4.642  -4.748  0.00  0.00    +0.006 C 
ATOM     20  C   UNL     1       3.895   4.909  -4.973  0.00  0.00    +0.038 C 
ATOM     21  C   UNL     1       4.929   5.726  -5.723  0.00  0.00    +0.006 C 
ENDBRANCH   1  20
BRANCH   5  22
ATOM     22  C   UNL     1       2.106   6.927  -6.573  0.00  0.00    +0.270 C 
ATOM     23  N   UNL     1       1.897   5.932  -7.584  0.00  0.00    -0.175 NA
ATOM     24  O   UNL     1       1.747   8.091  -6.931  0.00  0.00    -0.268 OA
BRANCH  23  25
ATOM     25  C   UNL     1       2.224   6.331  -8.921  0.00  0.00    +0.074 A 
ATOM     26  C   UNL     1       3.548   6.504  -9.309  0.00  0.00    +0.017 A 
ATOM     27  C   UNL     1       3.929   6.131 -10.593  0.00  0.00    +0.001 A 
ATOM     28  C   UNL     1       2.963   5.787 -11.530  0.00  0.00    +0.000 A 
ATOM     29  C   UNL     1       1.660   6.158 -11.232  0.00  0.00    +0.001 A 
ATOM     30  C   UNL     1       1.282   6.421  -9.923  0.00  0.00    +0.017 A 
ENDBRANCH  23  25
ENDBRANCH   5  22
BRANCH   2  31
ATOM     31  C   UNL     1       3.462   5.911  -2.034  0.00  0.00    +0.108 C 
BRANCH  31  32
ATOM     32  C   UNL     1       4.506   6.985  -2.072  0.00  0.00    +0.057 C 
BRANCH  32  33
ATOM     33  C   UNL     1       4.809   7.172  -0.440  0.00  0.00    +0.156 C 
ATOM     34  O   UNL     1       3.969   5.929  -0.104  0.00  0.00    -0.223 OA
BRANCH  33  35
ATOM     35  C   UNL     1       3.491   8.183  -0.241  0.00  0.00    +0.066 C 
BRANCH  35  36
ATOM     36  C   UNL     1       4.230   9.032   0.998  0.00  0.00    +0.166 C 
ATOM     37  O   UNL     1       3.329  10.251   0.741  0.00  0.00    -0.222 OA
BRANCH  36  38
ATOM     38  C   UNL     1       3.163   8.432   2.136  0.00  0.00    +0.147 C 
BRANCH  38  39
ATOM     39  C   UNL     1       4.093   7.983   3.205  0.00  0.00    +0.367 C 
ATOM     40  O   UNL     1       5.056   8.835   3.749  0.00  0.00    -0.246 OA
ATOM     41  O   UNL     1       4.201   6.752   3.446  0.00  0.00    -0.246 OA
ENDBRANCH  38  39
ENDBRANCH  36  38
ENDBRANCH  35  36
ENDBRANCH  33  35
ENDBRANCH  32  33
ENDBRANCH  31  32
ENDBRANCH   2  31
TORSDOF 12
ENDMDL
