MODEL 1
REMARK VINA RESULT:      -6.3      0.000      0.000
REMARK  Name = 
REMARK  5 active torsions:
REMARK  status: ('A' for Active; 'I' for Inactive)
REMARK    1  A    between atoms: C_2  and  C_3
REMARK    2  A    between atoms: C_3  and  S_4
REMARK    3  A    between atoms: S_4  and  C_5
REMARK    4  A    between atoms: N_11  and  C_12
REMARK    5  A    between atoms: C_12  and  O_14
REMARK                            x       y       z     vdW  Elec       q    Type
REMARK                         _______ _______ _______ _____ _____    ______ ____
ROOT
ATOM      1  C   UNL     1       3.114   5.256  -7.217  0.00  0.00    +0.027 A 
ATOM      2  C   UNL     1       4.425   5.369  -7.639  0.00  0.00    +0.027 A 
ATOM      3  C   UNL     1       4.700   5.875  -8.898  0.00  0.00    +0.102 A 
ATOM      4  C   UNL     1       3.735   6.719  -9.433  0.00  0.00    +0.102 A 
ATOM      5  N   UNL     1       4.341   7.260 -10.519  0.00  0.00    -0.211 NA
ATOM      6  C   UNL     1       5.438   6.516 -10.800  0.00  0.00    +0.246 A 
ATOM      7  N   UNL     1       6.155   6.511 -11.881  0.00  0.00    -0.106 NA
ATOM      8  C   UNL     1       2.440   6.690  -8.949  0.00  0.00    +0.021 A 
ATOM      9  N   UNL     1       5.574   5.533  -9.876  0.00  0.00    -0.211 NA
ATOM     10  C   UNL     1       2.073   5.744  -8.000  0.00  0.00    +0.008 A 
ENDROOT
BRANCH   7  11
ATOM     11  C   UNL     1       6.481   5.298 -12.572  0.00  0.00    +0.428 C 
ATOM     12  O   UNL     1       5.780   4.901 -13.549  0.00  0.00    -0.224 OA
BRANCH  11  13
ATOM     13  O   UNL     1       7.782   4.818 -12.469  0.00  0.00    -0.429 OA
ATOM     14  C   UNL     1       8.901   5.675 -12.258  0.00  0.00    +0.257 C 
ENDBRANCH  11  13
ENDBRANCH   7  11
BRANCH   1  15
ATOM     15  S   UNL     1       2.847   4.795  -5.500  0.00  0.00    -0.114 S 
BRANCH  15  16
ATOM     16  C   UNL     1       4.258   5.485  -4.572  0.00  0.00    +0.062 C 
BRANCH  16  18
ATOM     17  C   UNL     1       5.225   7.785  -4.251  0.00  0.00    +0.001 C 
ATOM     18  C   UNL     1       3.947   6.963  -4.373  0.00  0.00    +0.012 C 
ENDBRANCH  16  18
ENDBRANCH  15  16
ENDBRANCH   1  15
TORSDOF 5
ENDMDL
MODEL 2
REMARK VINA RESULT:      -6.1      2.850      3.970
REMARK  Name = 
REMARK  5 active torsions:
REMARK  status: ('A' for Active; 'I' for Inactive)
REMARK    1  A    between atoms: C_2  and  C_3
REMARK    2  A    between atoms: C_3  and  S_4
REMARK    3  A    between atoms: S_4  and  C_5
REMARK    4  A    between atoms: N_11  and  C_12
REMARK    5  A    between atoms: C_12  and  O_14
REMARK                            x       y       z     vdW  Elec       q    Type
REMARK                         _______ _______ _______ _____ _____    ______ ____
ROOT
ATOM      1  C   UNL     1       1.297   6.005  -5.780  0.00  0.00    +0.027 A 
ATOM      2  C   UNL     1       1.640   6.563  -6.997  0.00  0.00    +0.027 A 
ATOM      3  C   UNL     1       2.467   5.868  -7.862  0.00  0.00    +0.102 A 
ATOM      4  C   UNL     1       2.463   4.485  -7.721  0.00  0.00    +0.102 A 
ATOM      5  N   UNL     1       3.134   4.044  -8.814  0.00  0.00    -0.211 NA
ATOM      6  C   UNL     1       3.790   5.098  -9.356  0.00  0.00    +0.246 A 
ATOM      7  N   UNL     1       4.740   5.091 -10.239  0.00  0.00    -0.106 NA
ATOM      8  C   UNL     1       2.025   3.908  -6.544  0.00  0.00    +0.021 A 
ATOM      9  N   UNL     1       3.508   6.224  -8.654  0.00  0.00    -0.211 NA
ATOM     10  C   UNL     1       1.687   4.709  -5.460  0.00  0.00    +0.008 A 
ENDROOT
BRANCH   7  11
ATOM     11  C   UNL     1       5.967   5.807 -10.043  0.00  0.00    +0.428 C 
ATOM     12  O   UNL     1       6.768   5.480  -9.119  0.00  0.00    -0.224 OA
BRANCH  11  13
ATOM     13  O   UNL     1       6.472   6.538 -11.113  0.00  0.00    -0.429 OA
ATOM     14  C   UNL     1       6.234   7.934 -11.269  0.00  0.00    +0.257 C 
ENDBRANCH  11  13
ENDBRANCH   7  11
BRANCH   1  15
ATOM     15  S   UNL     1       0.055   6.868  -4.809  0.00  0.00    -0.114 S 
BRANCH  15  16
ATOM     16  C   UNL     1      -1.094   5.584  -4.209  0.00  0.00    +0.062 C 
BRANCH  16  18
ATOM     17  C   UNL     1      -2.263   5.562  -6.435  0.00  0.00    +0.001 C 
ATOM     18  C   UNL     1      -2.408   5.822  -4.940  0.00  0.00    +0.012 C 
ENDBRANCH  16  18
ENDBRANCH  15  16
ENDBRANCH   1  15
TORSDOF 5
ENDMDL
MODEL 3
REMARK VINA RESULT:      -6.0      5.260      7.509
REMARK  Name = 
REMARK  5 active torsions:
REMARK  status: ('A' for Active; 'I' for Inactive)
REMARK    1  A    between atoms: C_2  and  C_3
REMARK    2  A    between atoms: C_3  and  S_4
REMARK    3  A    between atoms: S_4  and  C_5
REMARK    4  A    between atoms: N_11  and  C_12
REMARK    5  A    between atoms: C_12  and  O_14
REMARK                            x       y       z     vdW  Elec       q    Type
REMARK                         _______ _______ _______ _____ _____    ______ ____
ROOT
ATOM      1  C   UNL     1       3.296   5.915  -9.318  0.00  0.00    +0.027 A 
ATOM      2  C   UNL     1       2.736   6.662  -8.299  0.00  0.00    +0.027 A 
ATOM      3  C   UNL     1       1.861   6.062  -7.410  0.00  0.00    +0.102 A 
ATOM      4  C   UNL     1       2.009   4.689  -7.249  0.00  0.00    +0.102 A 
ATOM      5  N   UNL     1       1.233   4.401  -6.176  0.00  0.00    -0.211 NA
ATOM      6  C   UNL     1       0.414   5.457  -5.954  0.00  0.00    +0.246 A 
ATOM      7  N   UNL     1      -0.646   5.515  -5.211  0.00  0.00    -0.106 NA
ATOM      8  C   UNL     1       2.660   3.944  -8.215  0.00  0.00    +0.021 A 
ATOM      9  N   UNL     1       0.691   6.444  -6.843  0.00  0.00    -0.211 NA
ATOM     10  C   UNL     1       3.075   4.545  -9.397  0.00  0.00    +0.008 A 
ENDROOT
BRANCH   7  11
ATOM     11  C   UNL     1      -1.893   6.028  -5.701  0.00  0.00    +0.428 C 
ATOM     12  O   UNL     1      -2.687   5.287  -6.351  0.00  0.00    -0.224 OA
BRANCH  11  13
ATOM     13  O   UNL     1      -2.414   7.163  -5.091  0.00  0.00    -0.429 OA
ATOM     14  C   UNL     1      -1.964   7.628  -3.822  0.00  0.00    +0.257 C 
ENDBRANCH  11  13
ENDBRANCH   7  11
BRANCH   1  15
ATOM     15  S   UNL     1       4.580   6.707 -10.296  0.00  0.00    -0.114 S 
BRANCH  15  16
ATOM     16  C   UNL     1       6.134   5.850  -9.870  0.00  0.00    +0.062 C 
BRANCH  16  18
ATOM     17  C   UNL     1       6.702   7.914 -11.191  0.00  0.00    +0.001 C 
ATOM     18  C   UNL     1       7.255   6.702 -10.451  0.00  0.00    +0.012 C 
ENDBRANCH  16  18
ENDBRANCH  15  16
ENDBRANCH   1  15
TORSDOF 5
ENDMDL
MODEL 4
REMARK VINA RESULT:      -6.0      4.412      6.792
REMARK  Name = 
REMARK  5 active torsions:
REMARK  status: ('A' for Active; 'I' for Inactive)
REMARK    1  A    between atoms: C_2  and  C_3
REMARK    2  A    between atoms: C_3  and  S_4
REMARK    3  A    between atoms: S_4  and  C_5
REMARK    4  A    between atoms: N_11  and  C_12
REMARK    5  A    between atoms: C_12  and  O_14
REMARK                            x       y       z     vdW  Elec       q    Type
REMARK                         _______ _______ _______ _____ _____    ______ ____
ROOT
ATOM      1  C   UNL     1       5.443   6.450 -10.144  0.00  0.00    +0.027 A 
ATOM      2  C   UNL     1       5.435   5.776  -8.937  0.00  0.00    +0.027 A 
ATOM      3  C   UNL     1       4.276   5.153  -8.507  0.00  0.00    +0.102 A 
ATOM      4  C   UNL     1       3.384   4.779  -9.505  0.00  0.00    +0.102 A 
ATOM      5  N   UNL     1       2.486   3.993  -8.862  0.00  0.00    -0.211 NA
ATOM      6  C   UNL     1       2.635   4.189  -7.530  0.00  0.00    +0.246 A 
ATOM      7  N   UNL     1       1.834   3.849  -6.569  0.00  0.00    -0.106 NA
ATOM      8  C   UNL     1       3.448   5.374 -10.752  0.00  0.00    +0.021 A 
ATOM      9  N   UNL     1       3.654   5.056  -7.306  0.00  0.00    -0.211 NA
ATOM     10  C   UNL     1       4.332   6.421 -10.979  0.00  0.00    +0.008 A 
ENDROOT
BRANCH   7  11
ATOM     11  C   UNL     1       1.406   4.782  -5.568  0.00  0.00    +0.428 C 
ATOM     12  O   UNL     1       2.136   5.036  -4.565  0.00  0.00    -0.224 OA
BRANCH  11  13
ATOM     13  O   UNL     1       0.436   5.714  -5.919  0.00  0.00    -0.429 OA
ATOM     14  C   UNL     1      -0.723   5.369  -6.672  0.00  0.00    +0.257 C 
ENDBRANCH  11  13
ENDBRANCH   7  11
BRANCH   1  15
ATOM     15  S   UNL     1       7.034   7.045 -10.733  0.00  0.00    -0.114 S 
BRANCH  15  16
ATOM     16  C   UNL     1       8.028   5.555 -11.081  0.00  0.00    +0.062 C 
BRANCH  16  18
ATOM     17  C   UNL     1       7.391   5.559 -13.515  0.00  0.00    +0.001 C 
ATOM     18  C   UNL     1       8.529   5.710 -12.512  0.00  0.00    +0.012 C 
ENDBRANCH  16  18
ENDBRANCH  15  16
ENDBRANCH   1  15
TORSDOF 5
ENDMDL
MODEL 5
REMARK VINA RESULT:      -6.0      4.482      6.901
REMARK  Name = 
REMARK  5 active torsions:
REMARK  status: ('A' for Active; 'I' for Inactive)
REMARK    1  A    between atoms: C_2  and  C_3
REMARK    2  A    between atoms: C_3  and  S_4
REMARK    3  A    between atoms: S_4  and  C_5
REMARK    4  A    between atoms: N_11  and  C_12
REMARK    5  A    between atoms: C_12  and  O_14
REMARK                            x       y       z     vdW  Elec       q    Type
REMARK                         _______ _______ _______ _____ _____    ______ ____
ROOT
ATOM      1  C   UNL     1       5.641   6.243  -9.943  0.00  0.00    +0.027 A 
ATOM      2  C   UNL     1       5.549   5.685  -8.682  0.00  0.00    +0.027 A 
ATOM      3  C   UNL     1       4.375   5.065  -8.290  0.00  0.00    +0.102 A 
ATOM      4  C   UNL     1       3.582   4.568  -9.317  0.00  0.00    +0.102 A 
ATOM      5  N   UNL     1       2.655   3.814  -8.677  0.00  0.00    -0.211 NA
ATOM      6  C   UNL     1       2.685   4.139  -7.362  0.00  0.00    +0.246 A 
ATOM      7  N   UNL     1       1.815   3.862  -6.441  0.00  0.00    -0.106 NA
ATOM      8  C   UNL     1       3.735   5.045 -10.606  0.00  0.00    +0.021 A 
ATOM      9  N   UNL     1       3.657   5.058  -7.140  0.00  0.00    -0.211 NA
ATOM     10  C   UNL     1       4.606   6.097 -10.860  0.00  0.00    +0.008 A 
ENDROOT
BRANCH   7  11
ATOM     11  C   UNL     1       1.278   4.869  -5.573  0.00  0.00    +0.428 C 
ATOM     12  O   UNL     1       0.113   5.330  -5.756  0.00  0.00    -0.224 OA
BRANCH  11  13
ATOM     13  O   UNL     1       1.838   5.003  -4.307  0.00  0.00    -0.429 OA
ATOM     14  C   UNL     1       1.183   5.695  -3.248  0.00  0.00    +0.257 C 
ENDBRANCH  11  13
ENDBRANCH   7  11
BRANCH   1  15
ATOM     15  S   UNL     1       7.260   6.835 -10.455  0.00  0.00    -0.114 S 
BRANCH  15  16
ATOM     16  C   UNL     1       8.130   5.386 -11.140  0.00  0.00    +0.062 C 
BRANCH  16  18
ATOM     17  C   UNL     1       7.307   5.619 -13.505  0.00  0.00    +0.001 C 
ATOM     18  C   UNL     1       8.502   5.757 -12.570  0.00  0.00    +0.012 C 
ENDBRANCH  16  18
ENDBRANCH  15  16
ENDBRANCH   1  15
TORSDOF 5
ENDMDL
MODEL 6
REMARK VINA RESULT:      -6.0      2.199      3.251
REMARK  Name = 
REMARK  5 active torsions:
REMARK  status: ('A' for Active; 'I' for Inactive)
REMARK    1  A    between atoms: C_2  and  C_3
REMARK    2  A    between atoms: C_3  and  S_4
REMARK    3  A    between atoms: S_4  and  C_5
REMARK    4  A    between atoms: N_11  and  C_12
REMARK    5  A    between atoms: C_12  and  O_14
REMARK                            x       y       z     vdW  Elec       q    Type
REMARK                         _______ _______ _______ _____ _____    ______ ____
ROOT
ATOM      1  C   UNL     1       2.316   6.005  -7.324  0.00  0.00    +0.027 A 
ATOM      2  C   UNL     1       2.523   6.884  -8.371  0.00  0.00    +0.027 A 
ATOM      3  C   UNL     1       3.349   6.519  -9.420  0.00  0.00    +0.102 A 
ATOM      4  C   UNL     1       3.482   5.153  -9.637  0.00  0.00    +0.102 A 
ATOM      5  N   UNL     1       4.115   5.073 -10.834  0.00  0.00    -0.211 NA
ATOM      6  C   UNL     1       4.633   6.292 -11.116  0.00  0.00    +0.246 A 
ATOM      7  N   UNL     1       5.517   6.607 -12.010  0.00  0.00    -0.106 NA
ATOM      8  C   UNL     1       3.179   4.256  -8.629  0.00  0.00    +0.021 A 
ATOM      9  N   UNL     1       4.296   7.170 -10.138  0.00  0.00    -0.211 NA
ATOM     10  C   UNL     1       2.844   4.719  -7.363  0.00  0.00    +0.008 A 
ENDROOT
BRANCH   7  11
ATOM     11  C   UNL     1       6.683   7.377 -11.690  0.00  0.00    +0.428 C 
ATOM     12  O   UNL     1       6.625   8.639 -11.612  0.00  0.00    -0.224 OA
BRANCH  11  13
ATOM     13  O   UNL     1       7.731   6.733 -11.041  0.00  0.00    -0.429 OA
ATOM     14  C   UNL     1       8.541   5.750 -11.679  0.00  0.00    +0.257 C 
ENDBRANCH  11  13
ENDBRANCH   7  11
BRANCH   1  15
ATOM     15  S   UNL     1       1.069   6.462  -6.112  0.00  0.00    -0.114 S 
BRANCH  15  16
ATOM     16  C   UNL     1      -0.013   5.004  -5.934  0.00  0.00    +0.062 C 
BRANCH  16  18
ATOM     17  C   UNL     1      -2.374   5.750  -6.375  0.00  0.00    +0.001 C 
ATOM     18  C   UNL     1      -1.106   5.162  -6.983  0.00  0.00    +0.012 C 
ENDBRANCH  16  18
ENDBRANCH  15  16
ENDBRANCH   1  15
TORSDOF 5
ENDMDL
MODEL 7
REMARK VINA RESULT:      -5.8      2.942      4.603
REMARK  Name = 
REMARK  5 active torsions:
REMARK  status: ('A' for Active; 'I' for Inactive)
REMARK    1  A    between atoms: C_2  and  C_3
REMARK    2  A    between atoms: C_3  and  S_4
REMARK    3  A    between atoms: S_4  and  C_5
REMARK    4  A    between atoms: N_11  and  C_12
REMARK    5  A    between atoms: C_12  and  O_14
REMARK                            x       y       z     vdW  Elec       q    Type
REMARK                         _______ _______ _______ _____ _____    ______ ____
ROOT
ATOM      1  C   UNL     1       5.808   5.635  -9.726  0.00  0.00    +0.027 A 
ATOM      2  C   UNL     1       5.137   5.341 -10.898  0.00  0.00    +0.027 A 
ATOM      3  C   UNL     1       5.791   5.463 -12.112  0.00  0.00    +0.102 A 
ATOM      4  C   UNL     1       7.174   5.342 -12.068  0.00  0.00    +0.102 A 
ATOM      5  N   UNL     1       7.535   5.249 -13.372  0.00  0.00    -0.211 NA
ATOM      6  C   UNL     1       6.484   5.648 -14.127  0.00  0.00    +0.246 A 
ATOM      7  N   UNL     1       6.466   5.960 -15.386  0.00  0.00    -0.106 NA
ATOM      8  C   UNL     1       7.851   5.533 -10.877  0.00  0.00    +0.021 A 
ATOM      9  N   UNL     1       5.432   5.949 -13.325  0.00  0.00    -0.211 NA
ATOM     10  C   UNL     1       7.162   5.949  -9.745  0.00  0.00    +0.008 A 
ENDROOT
BRANCH   7  11
ATOM     11  C   UNL     1       5.888   7.184 -15.859  0.00  0.00    +0.428 C 
ATOM     12  O   UNL     1       6.568   8.251 -15.891  0.00  0.00    -0.224 OA
BRANCH  11  13
ATOM     13  O   UNL     1       4.769   7.101 -16.680  0.00  0.00    -0.429 OA
ATOM     14  C   UNL     1       3.722   8.067 -16.650  0.00  0.00    +0.257 C 
ENDBRANCH  11  13
ENDBRANCH   7  11
BRANCH   1  15
ATOM     15  S   UNL     1       4.965   5.248  -8.186  0.00  0.00    -0.114 S 
BRANCH  15  16
ATOM     16  C   UNL     1       3.181   5.287  -8.568  0.00  0.00    +0.062 C 
BRANCH  16  18
ATOM     17  C   UNL     1       2.181   3.903  -6.721  0.00  0.00    +0.001 C 
ATOM     18  C   UNL     1       2.638   3.919  -8.175  0.00  0.00    +0.012 C 
ENDBRANCH  16  18
ENDBRANCH  15  16
ENDBRANCH   1  15
TORSDOF 5
ENDMDL
MODEL 8
REMARK VINA RESULT:      -5.7      7.942     10.053
REMARK  Name = 
REMARK  5 active torsions:
REMARK  status: ('A' for Active; 'I' for Inactive)
REMARK    1  A    between atoms: C_2  and  C_3
REMARK    2  A    between atoms: C_3  and  S_4
REMARK    3  A    between atoms: S_4  and  C_5
REMARK    4  A    between atoms: N_11  and  C_12
REMARK    5  A    between atoms: C_12  and  O_14
REMARK                            x       y       z     vdW  Elec       q    Type
REMARK                         _______ _______ _______ _____ _____    ______ ____
ROOT
ATOM      1  C   UNL     1      -0.910   5.746  -5.998  0.00  0.00    +0.027 A 
ATOM      2  C   UNL     1      -0.158   5.549  -4.855  0.00  0.00    +0.027 A 
ATOM      3  C   UNL     1      -0.765   5.623  -3.613  0.00  0.00    +0.102 A 
ATOM      4  C   UNL     1      -2.128   5.353  -3.590  0.00  0.00    +0.102 A 
ATOM      5  N   UNL     1      -2.417   5.246  -2.270  0.00  0.00    -0.211 NA
ATOM      6  C   UNL     1      -1.382   5.771  -1.571  0.00  0.00    +0.246 A 
ATOM      7  N   UNL     1      -1.341   6.107  -0.319  0.00  0.00    -0.106 NA
ATOM      8  C   UNL     1      -2.875   5.446  -4.750  0.00  0.00    +0.021 A 
ATOM      9  N   UNL     1      -0.407   6.169  -2.426  0.00  0.00    -0.211 NA
ATOM     10  C   UNL     1      -2.288   5.912  -5.920  0.00  0.00    +0.008 A 
ENDROOT
BRANCH   7  11
ATOM     11  C   UNL     1      -0.879   7.395   0.109  0.00  0.00    +0.428 C 
ATOM     12  O   UNL     1      -1.616   8.418  -0.007  0.00  0.00    -0.224 OA
BRANCH  11  13
ATOM     13  O   UNL     1       0.157   7.441   1.036  0.00  0.00    -0.429 OA
ATOM     14  C   UNL     1       0.827   8.651   1.377  0.00  0.00    +0.257 C 
ENDBRANCH  11  13
ENDBRANCH   7  11
BRANCH   1  15
ATOM     15  S   UNL     1      -0.100   5.422  -7.571  0.00  0.00    -0.114 S 
BRANCH  15  16
ATOM     16  C   UNL     1       1.660   5.144  -7.180  0.00  0.00    +0.062 C 
BRANCH  16  18
ATOM     17  C   UNL     1       2.042   7.591  -7.615  0.00  0.00    +0.001 C 
ATOM     18  C   UNL     1       2.438   6.169  -7.994  0.00  0.00    +0.012 C 
ENDBRANCH  16  18
ENDBRANCH  15  16
ENDBRANCH   1  15
TORSDOF 5
ENDMDL
MODEL 9
REMARK VINA RESULT:      -5.6      2.675      3.940
REMARK  Name = 
REMARK  5 active torsions:
REMARK  status: ('A' for Active; 'I' for Inactive)
REMARK    1  A    between atoms: C_2  and  C_3
REMARK    2  A    between atoms: C_3  and  S_4
REMARK    3  A    between atoms: S_4  and  C_5
REMARK    4  A    between atoms: N_11  and  C_12
REMARK    5  A    between atoms: C_12  and  O_14
REMARK                            x       y       z     vdW  Elec       q    Type
REMARK                         _______ _______ _______ _____ _____    ______ ____
ROOT
ATOM      1  C   UNL     1       1.544   6.080  -5.577  0.00  0.00    +0.027 A 
ATOM      2  C   UNL     1       1.606   5.445  -6.803  0.00  0.00    +0.027 A 
ATOM      3  C   UNL     1       2.788   5.461  -7.524  0.00  0.00    +0.102 A 
ATOM      4  C   UNL     1       3.949   5.622  -6.778  0.00  0.00    +0.102 A 
ATOM      5  N   UNL     1       4.943   5.356  -7.661  0.00  0.00    -0.211 NA
ATOM      6  C   UNL     1       4.417   5.394  -8.908  0.00  0.00    +0.246 A 
ATOM      7  N   UNL     1       5.038   5.453 -10.045  0.00  0.00    -0.106 NA
ATOM      8  C   UNL     1       3.888   6.162  -5.506  0.00  0.00    +0.021 A 
ATOM      9  N   UNL     1       3.084   5.631  -8.836  0.00  0.00    -0.211 NA
ATOM     10  C   UNL     1       2.683   6.642  -5.011  0.00  0.00    +0.008 A 
ENDROOT
BRANCH   7  11
ATOM     11  C   UNL     1       4.710   6.430 -11.042  0.00  0.00    +0.428 C 
ATOM     12  O   UNL     1       5.292   7.554 -11.064  0.00  0.00    -0.224 OA
BRANCH  11  13
ATOM     13  O   UNL     1       4.107   5.987 -12.214  0.00  0.00    -0.429 OA
ATOM     14  C   UNL     1       4.786   5.173 -13.166  0.00  0.00    +0.257 C 
ENDBRANCH  11  13
ENDBRANCH   7  11
BRANCH   1  15
ATOM     15  S   UNL     1       0.049   5.834  -4.608  0.00  0.00    -0.114 S 
BRANCH  15  16
ATOM     16  C   UNL     1      -0.919   7.370  -4.782  0.00  0.00    +0.062 C 
BRANCH  16  18
ATOM     17  C   UNL     1      -2.156   5.708  -6.207  0.00  0.00    +0.001 C 
ATOM     18  C   UNL     1      -2.276   6.951  -5.333  0.00  0.00    +0.012 C 
ENDBRANCH  16  18
ENDBRANCH  15  16
ENDBRANCH   1  15
TORSDOF 5
ENDMDL
