MODEL 1
REMARK VINA RESULT:      -4.6      0.000      0.000
REMARK  Name = 
REMARK  4 active torsions:
REMARK  status: ('A' for Active; 'I' for Inactive)
REMARK    1  A    between atoms: C_2  and  O_4
REMARK    2  A    between atoms: O_4  and  C_5
REMARK    3  A    between atoms: C_5  and  C_7
REMARK    4  A    between atoms: C_7  and  N_8
REMARK                            x       y       z     vdW  Elec       q    Type
REMARK                         _______ _______ _______ _____ _____    ______ ____
ROOT
ATOM      1  C   UNL     1       5.970   6.390 -11.433  0.00  0.00    +0.223 C 
ATOM      2  C   UNL     1       6.421   7.966 -11.290  0.00  0.00    +0.054 C 
ENDROOT
BRANCH   1   3
ATOM      3  O   UNL     1       7.360   5.894 -11.000  0.00  0.00    -0.446 OA
BRANCH   3   5
ATOM      4  C   UNL     1       9.217   5.866 -12.288  0.00  0.00    +0.121 C 
ATOM      5  C   UNL     1       8.130   5.340 -12.028  0.00  0.00    +0.318 C 
ATOM      6  O   UNL     1       7.479   4.621 -12.846  0.00  0.00    -0.250 OA
ENDBRANCH   3   5
ENDBRANCH   1   3
BRANCH   1   7
ATOM      7  C   UNL     1       5.416   6.345  -9.884  0.00  0.00    +0.153 C 
BRANCH   7   8
ATOM      8  N   UNL     1       4.093   5.786  -9.980  0.00  0.00    +0.313 N 
ATOM      9  C   UNL     1       3.185   6.750  -9.362  0.00  0.00    +0.171 C 
ATOM     10  C   UNL     1       4.020   4.528  -9.279  0.00  0.00    +0.171 C 
ATOM     11  C   UNL     1       3.651   5.618 -11.343  0.00  0.00    +0.171 C 
ENDBRANCH   7   8
ENDBRANCH   1   7
TORSDOF 4
ENDMDL
MODEL 2
REMARK VINA RESULT:      -4.4      8.173     10.506
REMARK  Name = 
REMARK  4 active torsions:
REMARK  status: ('A' for Active; 'I' for Inactive)
REMARK    1  A    between atoms: C_2  and  O_4
REMARK    2  A    between atoms: O_4  and  C_5
REMARK    3  A    between atoms: C_5  and  C_7
REMARK    4  A    between atoms: C_7  and  N_8
REMARK                            x       y       z     vdW  Elec       q    Type
REMARK                         _______ _______ _______ _____ _____    ______ ____
ROOT
ATOM      1  C   UNL     1      -1.057   6.539  -4.091  0.00  0.00    +0.223 C 
ATOM      2  C   UNL     1      -1.501   7.981  -4.748  0.00  0.00    +0.054 C 
ENDROOT
BRANCH   1   3
ATOM      3  O   UNL     1      -2.463   5.949  -4.295  0.00  0.00    -0.446 OA
BRANCH   3   5
ATOM      4  C   UNL     1      -3.874   6.446  -2.601  0.00  0.00    +0.121 C 
ATOM      5  C   UNL     1      -3.129   5.605  -3.114  0.00  0.00    +0.318 C 
ATOM      6  O   UNL     1      -2.609   4.639  -2.477  0.00  0.00    -0.250 OA
ENDBRANCH   3   5
ENDBRANCH   1   3
BRANCH   1   7
ATOM      7  C   UNL     1      -0.548   5.963  -5.547  0.00  0.00    +0.153 C 
BRANCH   7   8
ATOM      8  N   UNL     1       0.815   5.556  -5.328  0.00  0.00    +0.313 N 
ATOM      9  C   UNL     1       0.959   5.330  -3.892  0.00  0.00    +0.171 C 
ATOM     10  C   UNL     1       1.728   6.588  -5.753  0.00  0.00    +0.171 C 
ATOM     11  C   UNL     1       1.140   4.310  -5.977  0.00  0.00    +0.171 C 
ENDBRANCH   7   8
ENDBRANCH   1   7
TORSDOF 4
ENDMDL
MODEL 3
REMARK VINA RESULT:      -4.3      7.790      9.957
REMARK  Name = 
REMARK  4 active torsions:
REMARK  status: ('A' for Active; 'I' for Inactive)
REMARK    1  A    between atoms: C_2  and  O_4
REMARK    2  A    between atoms: O_4  and  C_5
REMARK    3  A    between atoms: C_5  and  C_7
REMARK    4  A    between atoms: C_7  and  N_8
REMARK                            x       y       z     vdW  Elec       q    Type
REMARK                         _______ _______ _______ _____ _____    ______ ____
ROOT
ATOM      1  C   UNL     1      -1.143   6.635  -4.795  0.00  0.00    +0.223 C 
ATOM      2  C   UNL     1      -2.574   7.338  -5.201  0.00  0.00    +0.054 C 
ENDROOT
BRANCH   1   3
ATOM      3  O   UNL     1      -1.851   5.501  -4.034  0.00  0.00    -0.446 OA
BRANCH   3   5
ATOM      4  C   UNL     1      -0.358   5.424  -2.340  0.00  0.00    +0.121 C 
ATOM      5  C   UNL     1      -1.548   5.433  -2.670  0.00  0.00    +0.318 C 
ATOM      6  O   UNL     1      -2.487   4.987  -1.943  0.00  0.00    -0.250 OA
ENDBRANCH   3   5
ENDBRANCH   1   3
BRANCH   1   7
ATOM      7  C   UNL     1      -1.112   5.753  -6.184  0.00  0.00    +0.153 C 
BRANCH   7   8
ATOM      8  N   UNL     1       0.284   5.635  -6.517  0.00  0.00    +0.313 N 
ATOM      9  C   UNL     1       0.960   6.767  -5.887  0.00  0.00    +0.171 C 
ATOM     10  C   UNL     1       0.472   5.689  -7.946  0.00  0.00    +0.171 C 
ATOM     11  C   UNL     1       0.891   4.441  -5.983  0.00  0.00    +0.171 C 
ENDBRANCH   7   8
ENDBRANCH   1   7
TORSDOF 4
ENDMDL
MODEL 4
REMARK VINA RESULT:      -4.2      5.756      6.634
REMARK  Name = 
REMARK  4 active torsions:
REMARK  status: ('A' for Active; 'I' for Inactive)
REMARK    1  A    between atoms: C_2  and  O_4
REMARK    2  A    between atoms: O_4  and  C_5
REMARK    3  A    between atoms: C_5  and  C_7
REMARK    4  A    between atoms: C_7  and  N_8
REMARK                            x       y       z     vdW  Elec       q    Type
REMARK                         _______ _______ _______ _____ _____    ______ ____
ROOT
ATOM      1  C   UNL     1       2.691   6.434  -6.783  0.00  0.00    +0.223 C 
ATOM      2  C   UNL     1       2.372   7.556  -7.943  0.00  0.00    +0.054 C 
ENDROOT
BRANCH   1   3
ATOM      3  O   UNL     1       3.412   7.467  -5.901  0.00  0.00    -0.446 OA
BRANCH   3   5
ATOM      4  C   UNL     1       4.960   7.698  -4.271  0.00  0.00    +0.121 C 
ATOM      5  C   UNL     1       4.285   6.921  -4.954  0.00  0.00    +0.318 C 
ATOM      6  O   UNL     1       4.594   5.708  -5.159  0.00  0.00    -0.250 OA
ENDBRANCH   3   5
ENDBRANCH   1   3
BRANCH   1   7
ATOM      7  C   UNL     1       1.255   6.716  -6.028  0.00  0.00    +0.153 C 
BRANCH   7   8
ATOM      8  N   UNL     1       0.785   5.415  -5.628  0.00  0.00    +0.313 N 
ATOM      9  C   UNL     1      -0.588   5.300  -6.112  0.00  0.00    +0.171 C 
ATOM     10  C   UNL     1       0.809   5.286  -4.193  0.00  0.00    +0.171 C 
ATOM     11  C   UNL     1       1.529   4.338  -6.234  0.00  0.00    +0.171 C 
ENDBRANCH   7   8
ENDBRANCH   1   7
TORSDOF 4
ENDMDL
MODEL 5
REMARK VINA RESULT:      -4.2      4.421      5.599
REMARK  Name = 
REMARK  4 active torsions:
REMARK  status: ('A' for Active; 'I' for Inactive)
REMARK    1  A    between atoms: C_2  and  O_4
REMARK    2  A    between atoms: O_4  and  C_5
REMARK    3  A    between atoms: C_5  and  C_7
REMARK    4  A    between atoms: C_7  and  N_8
REMARK                            x       y       z     vdW  Elec       q    Type
REMARK                         _______ _______ _______ _____ _____    ______ ____
ROOT
ATOM      1  C   UNL     1       2.291   5.198  -8.582  0.00  0.00    +0.223 C 
ATOM      2  C   UNL     1       3.584   4.232  -8.905  0.00  0.00    +0.054 C 
ENDROOT
BRANCH   1   3
ATOM      3  O   UNL     1       3.187   6.437  -8.418  0.00  0.00    -0.446 OA
BRANCH   3   5
ATOM      4  C   UNL     1       2.666   6.962  -6.282  0.00  0.00    +0.121 C 
ATOM      5  C   UNL     1       2.751   7.351  -7.451  0.00  0.00    +0.318 C 
ATOM      6  O   UNL     1       2.112   8.344  -7.915  0.00  0.00    -0.250 OA
ENDBRANCH   3   5
ENDBRANCH   1   3
BRANCH   1   7
ATOM      7  C   UNL     1       2.053   5.518 -10.178  0.00  0.00    +0.153 C 
BRANCH   7   8
ATOM      8  N   UNL     1       0.625   5.618 -10.327  0.00  0.00    +0.313 N 
ATOM      9  C   UNL     1       0.053   5.445  -8.993  0.00  0.00    +0.171 C 
ATOM     10  C   UNL     1       0.132   4.587 -11.206  0.00  0.00    +0.171 C 
ATOM     11  C   UNL     1       0.198   6.913 -10.796  0.00  0.00    +0.171 C 
ENDBRANCH   7   8
ENDBRANCH   1   7
TORSDOF 4
ENDMDL
MODEL 6
REMARK VINA RESULT:      -4.1      1.437      2.204
REMARK  Name = 
REMARK  4 active torsions:
REMARK  status: ('A' for Active; 'I' for Inactive)
REMARK    1  A    between atoms: C_2  and  O_4
REMARK    2  A    between atoms: O_4  and  C_5
REMARK    3  A    between atoms: C_5  and  C_7
REMARK    4  A    between atoms: C_7  and  N_8
REMARK                            x       y       z     vdW  Elec       q    Type
REMARK                         _______ _______ _______ _____ _____    ______ ____
ROOT
ATOM      1  C   UNL     1       5.590   6.370 -10.902  0.00  0.00    +0.223 C 
ATOM      2  C   UNL     1       6.942   7.296 -10.760  0.00  0.00    +0.054 C 
ENDROOT
BRANCH   1   3
ATOM      3  O   UNL     1       6.374   5.228 -11.572  0.00  0.00    -0.446 OA
BRANCH   3   5
ATOM      4  C   UNL     1       5.413   5.471 -13.603  0.00  0.00    +0.121 C 
ATOM      5  C   UNL     1       6.460   5.317 -12.966  0.00  0.00    +0.318 C 
ATOM      6  O   UNL     1       7.525   4.837 -13.460  0.00  0.00    -0.250 OA
ENDBRANCH   3   5
ENDBRANCH   1   3
BRANCH   1   7
ATOM      7  C   UNL     1       5.810   5.713  -9.409  0.00  0.00    +0.153 C 
BRANCH   7   8
ATOM      8  N   UNL     1       4.493   5.660  -8.830  0.00  0.00    +0.313 N 
ATOM      9  C   UNL     1       3.910   4.383  -9.235  0.00  0.00    +0.171 C 
ATOM     10  C   UNL     1       3.679   6.744  -9.319  0.00  0.00    +0.171 C 
ATOM     11  C   UNL     1       4.512   5.667  -7.388  0.00  0.00    +0.171 C 
ENDBRANCH   7   8
ENDBRANCH   1   7
TORSDOF 4
ENDMDL
MODEL 7
REMARK VINA RESULT:      -4.1      1.389      1.984
REMARK  Name = 
REMARK  4 active torsions:
REMARK  status: ('A' for Active; 'I' for Inactive)
REMARK    1  A    between atoms: C_2  and  O_4
REMARK    2  A    between atoms: O_4  and  C_5
REMARK    3  A    between atoms: C_5  and  C_7
REMARK    4  A    between atoms: C_7  and  N_8
REMARK                            x       y       z     vdW  Elec       q    Type
REMARK                         _______ _______ _______ _____ _____    ______ ____
ROOT
ATOM      1  C   UNL     1       4.884   5.180 -11.942  0.00  0.00    +0.223 C 
ATOM      2  C   UNL     1       4.278   5.440 -13.449  0.00  0.00    +0.054 C 
ENDROOT
BRANCH   1   3
ATOM      3  O   UNL     1       6.106   6.073 -12.217  0.00  0.00    -0.446 OA
BRANCH   3   5
ATOM      4  C   UNL     1       8.157   6.014 -11.271  0.00  0.00    +0.121 C 
ATOM      5  C   UNL     1       7.343   5.453 -12.011  0.00  0.00    +0.318 C 
ATOM      6  O   UNL     1       7.661   4.603 -12.897  0.00  0.00    -0.250 OA
ENDBRANCH   3   5
ENDBRANCH   1   3
BRANCH   1   7
ATOM      7  C   UNL     1       4.037   6.444 -11.315  0.00  0.00    +0.153 C 
BRANCH   7   8
ATOM      8  N   UNL     1       3.423   5.923 -10.122  0.00  0.00    +0.313 N 
ATOM      9  C   UNL     1       2.078   5.494 -10.497  0.00  0.00    +0.171 C 
ATOM     10  C   UNL     1       3.344   6.942  -9.105  0.00  0.00    +0.171 C 
ATOM     11  C   UNL     1       4.099   4.760  -9.604  0.00  0.00    +0.171 C 
ENDBRANCH   7   8
ENDBRANCH   1   7
TORSDOF 4
ENDMDL
MODEL 8
REMARK VINA RESULT:      -4.0      2.342      3.098
REMARK  Name = 
REMARK  4 active torsions:
REMARK  status: ('A' for Active; 'I' for Inactive)
REMARK    1  A    between atoms: C_2  and  O_4
REMARK    2  A    between atoms: O_4  and  C_5
REMARK    3  A    between atoms: C_5  and  C_7
REMARK    4  A    between atoms: C_7  and  N_8
REMARK                            x       y       z     vdW  Elec       q    Type
REMARK                         _______ _______ _______ _____ _____    ______ ____
ROOT
ATOM      1  C   UNL     1       7.419   6.592 -12.640  0.00  0.00    +0.223 C 
ATOM      2  C   UNL     1       8.829   5.793 -12.350  0.00  0.00    +0.054 C 
ENDROOT
BRANCH   1   3
ATOM      3  O   UNL     1       7.242   5.900 -14.002  0.00  0.00    -0.446 OA
BRANCH   3   5
ATOM      4  C   UNL     1       7.069   6.497 -16.175  0.00  0.00    +0.121 C 
ATOM      5  C   UNL     1       6.721   6.718 -15.011  0.00  0.00    +0.318 C 
ATOM      6  O   UNL     1       6.274   7.834 -14.606  0.00  0.00    -0.250 OA
ENDBRANCH   3   5
ENDBRANCH   1   3
BRANCH   1   7
ATOM      7  C   UNL     1       6.534   5.432 -11.878  0.00  0.00    +0.153 C 
BRANCH   7   8
ATOM      8  N   UNL     1       5.437   6.140 -11.272  0.00  0.00    +0.313 N 
ATOM      9  C   UNL     1       5.251   5.564  -9.943  0.00  0.00    +0.171 C 
ATOM     10  C   UNL     1       4.234   5.975 -12.049  0.00  0.00    +0.171 C 
ATOM     11  C   UNL     1       5.713   7.543 -11.079  0.00  0.00    +0.171 C 
ENDBRANCH   7   8
ENDBRANCH   1   7
TORSDOF 4
ENDMDL
MODEL 9
REMARK VINA RESULT:      -4.0      2.050      2.854
REMARK  Name = 
REMARK  4 active torsions:
REMARK  status: ('A' for Active; 'I' for Inactive)
REMARK    1  A    between atoms: C_2  and  O_4
REMARK    2  A    between atoms: O_4  and  C_5
REMARK    3  A    between atoms: C_5  and  C_7
REMARK    4  A    between atoms: C_7  and  N_8
REMARK                            x       y       z     vdW  Elec       q    Type
REMARK                         _______ _______ _______ _____ _____    ______ ____
ROOT
ATOM      1  C   UNL     1       4.864   5.803 -10.662  0.00  0.00    +0.223 C 
ATOM      2  C   UNL     1       4.007   5.745 -12.066  0.00  0.00    +0.054 C 
ENDROOT
BRANCH   1   3
ATOM      3  O   UNL     1       5.103   7.316 -10.805  0.00  0.00    -0.446 OA
BRANCH   3   5
ATOM      4  C   UNL     1       7.342   7.080 -10.612  0.00  0.00    +0.121 C 
ATOM      5  C   UNL     1       6.408   7.671 -11.163  0.00  0.00    +0.318 C 
ATOM      6  O   UNL     1       6.514   8.815 -11.702  0.00  0.00    -0.250 OA
ENDBRANCH   3   5
ENDBRANCH   1   3
BRANCH   1   7
ATOM      7  C   UNL     1       3.503   6.051  -9.770  0.00  0.00    +0.153 C 
BRANCH   7   8
ATOM      8  N   UNL     1       3.730   5.334  -8.542  0.00  0.00    +0.313 N 
ATOM      9  C   UNL     1       3.059   4.044  -8.682  0.00  0.00    +0.171 C 
ATOM     10  C   UNL     1       3.174   6.054  -7.424  0.00  0.00    +0.171 C 
ATOM     11  C   UNL     1       5.124   5.053  -8.305  0.00  0.00    +0.171 C 
ENDBRANCH   7   8
ENDBRANCH   1   7
TORSDOF 4
ENDMDL
