MODEL 1
REMARK VINA RESULT:      -9.6      0.000      0.000
REMARK  Name = 
REMARK  2 active torsions:
REMARK  status: ('A' for Active; 'I' for Inactive)
REMARK    1  A    between atoms: C_23  and  C_25
REMARK    2  A    between atoms: C_25  and  C_27
REMARK                            x       y       z     vdW  Elec       q    Type
REMARK                         _______ _______ _______ _____ _____    ______ ____
ROOT
ATOM      1  C   UNL     1       4.367   4.675  -8.802  0.00  0.00    +0.003 C 
ATOM      2  C   UNL     1       3.354   5.900  -9.179  0.00  0.00    +0.035 C 
ATOM      3  C   UNL     1       2.052   5.219  -8.482  0.00  0.00    +0.178 C 
ATOM      4  O   UNL     1       2.103   3.872  -8.638  0.00  0.00    -0.218 OA
ATOM      5  C   UNL     1       1.938   5.805  -7.169  0.00  0.00    +0.035 C 
ATOM      6  C   UNL     1       3.494   5.628  -6.798  0.00  0.00    +0.004 C 
ATOM      7  C   UNL     1       3.218   6.694  -5.512  0.00  0.00    +0.017 C 
ATOM      8  C   UNL     1       2.853   5.466  -4.548  0.00  0.00    +0.102 C 
ATOM      9  C   UNL     1       1.215   5.327  -4.680  0.00  0.00    +0.166 C 
ATOM     10  O   UNL     1       1.007   6.831  -4.531  0.00  0.00    -0.222 OA
ATOM     11 CL   UNL     1       3.574   3.976  -4.928  0.00  0.00    -0.113 Cl
ATOM     12  C   UNL     1       3.100   5.877  -3.153  0.00  0.00    +0.049 C 
ATOM     13  C   UNL     1       3.559   7.296  -2.992  0.00  0.00    -0.037 C 
ATOM     14  C   UNL     1       3.550   7.668  -1.705  0.00  0.00    +0.034 C 
ATOM     15  C   UNL     1       3.600   6.659  -0.630  0.00  0.00    +0.195 C 
ATOM     16  C   UNL     1       4.165   5.381  -1.094  0.00  0.00    +0.038 C 
ATOM     17  O   UNL     1       3.401   6.935   0.572  0.00  0.00    -0.287 OA
ATOM     18  C   UNL     1       4.629   7.765  -3.933  0.00  0.00    +0.022 C 
ATOM     19  C   UNL     1       1.837   5.725  -2.308  0.00  0.00    +0.010 C 
ATOM     20  C   UNL     1       4.140   5.112  -2.406  0.00  0.00    -0.018 C 
ATOM     21  C   UNL     1       4.767   6.722  -5.044  0.00  0.00    +0.006 C 
ATOM     22  C   UNL     1       1.680   7.296  -7.412  0.00  0.00    +0.003 C 
ATOM     23  C   UNL     1       1.025   5.354  -6.295  0.00  0.00    +0.037 C 
ATOM     24  C   UNL     1       3.854   6.766  -7.884  0.00  0.00    +0.003 C 
ENDROOT
BRANCH   3  25
ATOM     25  C   UNL     1       0.888   5.667  -9.324  0.00  0.00    +0.194 C 
ATOM     26  O   UNL     1      -0.214   5.177  -9.219  0.00  0.00    -0.292 OA
BRANCH  25  27
ATOM     27  C   UNL     1       1.169   6.474 -10.539  0.00  0.00    +0.161 C 
ATOM     28 CL   UNL     1      -0.280   7.251 -11.192  0.00  0.00    -0.105 Cl
ENDBRANCH  25  27
ENDBRANCH   3  25
TORSDOF 2
ENDMDL
MODEL 2
REMARK VINA RESULT:      -9.2      2.693      7.939
REMARK  Name = 
REMARK  2 active torsions:
REMARK  status: ('A' for Active; 'I' for Inactive)
REMARK    1  A    between atoms: C_23  and  C_25
REMARK    2  A    between atoms: C_25  and  C_27
REMARK                            x       y       z     vdW  Elec       q    Type
REMARK                         _______ _______ _______ _____ _____    ______ ____
ROOT
ATOM      1  C   UNL     1       0.361   4.739  -6.250  0.00  0.00    +0.003 C 
ATOM      2  C   UNL     1       1.203   6.112  -5.976  0.00  0.00    +0.035 C 
ATOM      3  C   UNL     1       2.587   5.555  -6.623  0.00  0.00    +0.178 C 
ATOM      4  O   UNL     1       2.711   4.229  -6.361  0.00  0.00    -0.218 OA
ATOM      5  C   UNL     1       2.631   6.044  -7.979  0.00  0.00    +0.035 C 
ATOM      6  C   UNL     1       1.113   5.636  -8.328  0.00  0.00    +0.004 C 
ATOM      7  C   UNL     1       1.255   6.625  -9.695  0.00  0.00    +0.017 C 
ATOM      8  C   UNL     1       1.783   5.382 -10.561  0.00  0.00    +0.102 C 
ATOM      9  C   UNL     1       3.423   5.469 -10.425  0.00  0.00    +0.166 C 
ATOM     10  O   UNL     1       3.434   6.971 -10.694  0.00  0.00    -0.222 OA
ATOM     11 CL   UNL     1       1.260   3.845 -10.060  0.00  0.00    -0.113 Cl
ATOM     12  C   UNL     1       1.492   5.645 -11.982  0.00  0.00    +0.049 C 
ATOM     13  C   UNL     1       0.852   6.975 -12.253  0.00  0.00    -0.037 C 
ATOM     14  C   UNL     1       0.819   7.241 -13.566  0.00  0.00    +0.034 C 
ATOM     15  C   UNL     1       0.908   6.153 -14.557  0.00  0.00    +0.195 C 
ATOM     16  C   UNL     1       0.512   4.853 -13.990  0.00  0.00    +0.038 C 
ATOM     17  O   UNL     1       1.076   6.356 -15.778  0.00  0.00    -0.287 OA
ATOM     18  C   UNL     1      -0.275   7.373 -11.348  0.00  0.00    +0.022 C 
ATOM     19  C   UNL     1       2.768   5.593 -12.819  0.00  0.00    +0.010 C 
ATOM     20  C   UNL     1       0.565   4.694 -12.661  0.00  0.00    -0.018 C 
ATOM     21  C   UNL     1      -0.282   6.412 -10.157  0.00  0.00    +0.006 C 
ATOM     22  C   UNL     1       2.690   7.570  -7.856  0.00  0.00    +0.003 C 
ATOM     23  C   UNL     1       3.599   5.649  -8.819  0.00  0.00    +0.037 C 
ATOM     24  C   UNL     1       0.601   6.801  -7.333  0.00  0.00    +0.003 C 
ENDROOT
BRANCH   3  25
ATOM     25  C   UNL     1       3.678   6.216  -5.825  0.00  0.00    +0.194 C 
ATOM     26  O   UNL     1       4.835   5.873  -5.902  0.00  0.00    -0.292 OA
BRANCH  25  27
ATOM     27  C   UNL     1       3.286   7.065  -4.670  0.00  0.00    +0.161 C 
ATOM     28 CL   UNL     1       4.667   7.893  -3.935  0.00  0.00    -0.105 Cl
ENDBRANCH  25  27
ENDBRANCH   3  25
TORSDOF 2
ENDMDL
MODEL 3
REMARK VINA RESULT:      -9.2      1.932      6.805
REMARK  Name = 
REMARK  2 active torsions:
REMARK  status: ('A' for Active; 'I' for Inactive)
REMARK    1  A    between atoms: C_23  and  C_25
REMARK    2  A    between atoms: C_25  and  C_27
REMARK                            x       y       z     vdW  Elec       q    Type
REMARK                         _______ _______ _______ _____ _____    ______ ____
ROOT
ATOM      1  C   UNL     1       5.079   7.826  -4.395  0.00  0.00    +0.003 C 
ATOM      2  C   UNL     1       4.954   6.357  -3.691  0.00  0.00    +0.035 C 
ATOM      3  C   UNL     1       3.358   6.477  -3.406  0.00  0.00    +0.178 C 
ATOM      4  O   UNL     1       3.043   7.764  -3.111  0.00  0.00    -0.218 OA
ATOM      5  C   UNL     1       2.696   5.786  -4.485  0.00  0.00    +0.035 C 
ATOM      6  C   UNL     1       3.571   6.470  -5.650  0.00  0.00    +0.004 C 
ATOM      7  C   UNL     1       2.964   5.276  -6.686  0.00  0.00    +0.017 C 
ATOM      8  C   UNL     1       1.724   6.216  -7.072  0.00  0.00    +0.102 C 
ATOM      9  C   UNL     1       0.545   5.780  -6.007  0.00  0.00    +0.166 C 
ATOM     10  O   UNL     1       0.799   4.292  -6.230  0.00  0.00    -0.222 OA
ATOM     11 CL   UNL     1       1.990   7.890  -6.959  0.00  0.00    -0.113 Cl
ATOM     12  C   UNL     1       1.225   5.809  -8.399  0.00  0.00    +0.049 C 
ATOM     13  C   UNL     1       1.937   4.634  -9.001  0.00  0.00    -0.037 C 
ATOM     14  C   UNL     1       1.299   4.182 -10.089  0.00  0.00    +0.034 C 
ATOM     15  C   UNL     1       0.372   5.054 -10.835  0.00  0.00    +0.195 C 
ATOM     16  C   UNL     1       0.642   6.482 -10.596  0.00  0.00    +0.038 C 
ATOM     17  O   UNL     1      -0.388   4.631 -11.730  0.00  0.00    -0.287 OA
ATOM     18  C   UNL     1       3.435   4.648  -8.926  0.00  0.00    +0.022 C 
ATOM     19  C   UNL     1      -0.255   5.438  -8.334  0.00  0.00    +0.010 C 
ATOM     20  C   UNL     1       1.304   6.829  -9.484  0.00  0.00    -0.018 C 
ATOM     21  C   UNL     1       3.846   5.758  -7.955  0.00  0.00    +0.006 C 
ATOM     22  C   UNL     1       3.139   4.325  -4.362  0.00  0.00    +0.003 C 
ATOM     23  C   UNL     1       1.360   5.816  -4.600  0.00  0.00    +0.037 C 
ATOM     24  C   UNL     1       4.850   5.622  -5.149  0.00  0.00    +0.003 C 
ENDROOT
BRANCH   3  25
ATOM     25  C   UNL     1       3.137   5.717  -2.126  0.00  0.00    +0.194 C 
ATOM     26  O   UNL     1       2.051   5.633  -1.601  0.00  0.00    -0.292 OA
BRANCH  25  27
ATOM     27  C   UNL     1       4.326   5.357  -1.310  0.00  0.00    +0.161 C 
ATOM     28 CL   UNL     1       4.723   6.590  -0.105  0.00  0.00    -0.105 Cl
ENDBRANCH  25  27
ENDBRANCH   3  25
TORSDOF 2
ENDMDL
MODEL 4
REMARK VINA RESULT:      -8.2      2.289      6.820
REMARK  Name = 
REMARK  2 active torsions:
REMARK  status: ('A' for Active; 'I' for Inactive)
REMARK    1  A    between atoms: C_23  and  C_25
REMARK    2  A    between atoms: C_25  and  C_27
REMARK                            x       y       z     vdW  Elec       q    Type
REMARK                         _______ _______ _______ _____ _____    ______ ____
ROOT
ATOM      1  C   UNL     1       0.516   4.944  -2.042  0.00  0.00    +0.003 C 
ATOM      2  C   UNL     1       1.319   6.284  -1.562  0.00  0.00    +0.035 C 
ATOM      3  C   UNL     1       2.796   5.628  -1.737  0.00  0.00    +0.178 C 
ATOM      4  O   UNL     1       2.752   4.311  -1.412  0.00  0.00    -0.218 OA
ATOM      5  C   UNL     1       3.281   6.052  -3.028  0.00  0.00    +0.035 C 
ATOM      6  C   UNL     1       1.920   5.706  -3.813  0.00  0.00    +0.004 C 
ATOM      7  C   UNL     1       2.533   6.622  -5.099  0.00  0.00    +0.017 C 
ATOM      8  C   UNL     1       3.221   5.315  -5.725  0.00  0.00    +0.102 C 
ATOM      9  C   UNL     1       4.744   5.325  -5.096  0.00  0.00    +0.166 C 
ATOM     10  O   UNL     1       4.930   6.811  -5.391  0.00  0.00    -0.222 OA
ATOM     11 CL   UNL     1       2.475   3.831  -5.365  0.00  0.00    -0.113 Cl
ATOM     12  C   UNL     1       3.393   5.527  -7.174  0.00  0.00    +0.049 C 
ATOM     13  C   UNL     1       2.951   6.874  -7.666  0.00  0.00    -0.037 C 
ATOM     14  C   UNL     1       3.336   7.081  -8.932  0.00  0.00    +0.034 C 
ATOM     15  C   UNL     1       3.655   5.945  -9.817  0.00  0.00    +0.195 C 
ATOM     16  C   UNL     1       3.025   4.694  -9.363  0.00  0.00    +0.038 C 
ATOM     17  O   UNL     1       4.199   6.083 -10.933  0.00  0.00    -0.287 OA
ATOM     18  C   UNL     1       1.628   7.370  -7.162  0.00  0.00    +0.022 C 
ATOM     19  C   UNL     1       4.858   5.372  -7.577  0.00  0.00    +0.010 C 
ATOM     20  C   UNL     1       2.660   4.594  -8.077  0.00  0.00    -0.018 C 
ATOM     21  C   UNL     1       1.199   6.466  -6.003  0.00  0.00    +0.006 C 
ATOM     22  C   UNL     1       3.395   7.577  -2.936  0.00  0.00    +0.003 C 
ATOM     23  C   UNL     1       4.433   5.570  -3.518  0.00  0.00    +0.037 C 
ATOM     24  C   UNL     1       1.203   6.939  -3.057  0.00  0.00    +0.003 C 
ENDROOT
BRANCH   3  25
ATOM     25  C   UNL     1       3.631   6.269  -0.662  0.00  0.00    +0.194 C 
ATOM     26  O   UNL     1       4.666   5.782  -0.269  0.00  0.00    -0.292 OA
BRANCH  25  27
ATOM     27  C   UNL     1       3.007   7.328   0.173  0.00  0.00    +0.161 C 
ATOM     28 CL   UNL     1       4.036   8.758   0.340  0.00  0.00    -0.105 Cl
ENDBRANCH  25  27
ENDBRANCH   3  25
TORSDOF 2
ENDMDL
MODEL 5
REMARK VINA RESULT:      -8.1      2.456      4.603
REMARK  Name = 
REMARK  2 active torsions:
REMARK  status: ('A' for Active; 'I' for Inactive)
REMARK    1  A    between atoms: C_23  and  C_25
REMARK    2  A    between atoms: C_25  and  C_27
REMARK                            x       y       z     vdW  Elec       q    Type
REMARK                         _______ _______ _______ _____ _____    ______ ____
ROOT
ATOM      1  C   UNL     1      -0.475   7.514 -11.173  0.00  0.00    +0.003 C 
ATOM      2  C   UNL     1      -0.323   5.978 -11.710  0.00  0.00    +0.035 C 
ATOM      3  C   UNL     1       1.286   6.067 -11.926  0.00  0.00    +0.178 C 
ATOM      4  O   UNL     1       1.621   7.316 -12.340  0.00  0.00    -0.218 OA
ATOM      5  C   UNL     1       1.889   5.495 -10.748  0.00  0.00    +0.035 C 
ATOM      6  C   UNL     1       0.961   6.298  -9.707  0.00  0.00    +0.004 C 
ATOM      7  C   UNL     1       1.509   5.221  -8.522  0.00  0.00    +0.017 C 
ATOM      8  C   UNL     1       2.734   6.196  -8.176  0.00  0.00    +0.102 C 
ATOM      9  C   UNL     1       3.962   5.649  -9.129  0.00  0.00    +0.166 C 
ATOM     10  O   UNL     1       3.689   4.194  -8.763  0.00  0.00    -0.222 OA
ATOM     11 CL   UNL     1       2.483   7.849  -8.479  0.00  0.00    -0.113 Cl
ATOM     12  C   UNL     1       3.165   5.932  -6.790  0.00  0.00    +0.049 C 
ATOM     13  C   UNL     1       2.417   4.828  -6.103  0.00  0.00    -0.037 C 
ATOM     14  C   UNL     1       2.998   4.493  -4.943  0.00  0.00    +0.034 C 
ATOM     15  C   UNL     1       3.891   5.440  -4.249  0.00  0.00    +0.195 C 
ATOM     16  C   UNL     1       3.641   6.835  -4.651  0.00  0.00    +0.038 C 
ATOM     17  O   UNL     1       4.604   5.114  -3.277  0.00  0.00    -0.287 OA
ATOM     18  C   UNL     1       0.924   4.835  -6.254  0.00  0.00    +0.022 C 
ATOM     19  C   UNL     1       4.644   5.557  -6.742  0.00  0.00    +0.010 C 
ATOM     20  C   UNL     1       3.037   7.062  -5.825  0.00  0.00    -0.018 C 
ATOM     21  C   UNL     1       0.569   5.836  -7.356  0.00  0.00    +0.006 C 
ATOM     22  C   UNL     1       1.444   4.029 -10.738  0.00  0.00    +0.003 C 
ATOM     23  C   UNL     1       3.218   5.536 -10.570  0.00  0.00    +0.037 C 
ATOM     24  C   UNL     1      -0.296   5.402 -10.179  0.00  0.00    +0.003 C 
ENDROOT
BRANCH   3  25
ATOM     25  C   UNL     1       1.565   5.176 -13.105  0.00  0.00    +0.194 C 
ATOM     26  O   UNL     1       2.645   5.140 -13.649  0.00  0.00    -0.292 OA
BRANCH  25  27
ATOM     27  C   UNL     1       0.408   4.589 -13.832  0.00  0.00    +0.161 C 
ATOM     28 CL   UNL     1       0.706   2.925 -14.355  0.00  0.00    -0.105 Cl
ENDBRANCH  25  27
ENDBRANCH   3  25
TORSDOF 2
ENDMDL
MODEL 6
REMARK VINA RESULT:      -7.8      2.939      6.365
REMARK  Name = 
REMARK  2 active torsions:
REMARK  status: ('A' for Active; 'I' for Inactive)
REMARK    1  A    between atoms: C_23  and  C_25
REMARK    2  A    between atoms: C_25  and  C_27
REMARK                            x       y       z     vdW  Elec       q    Type
REMARK                         _______ _______ _______ _____ _____    ______ ____
ROOT
ATOM      1  C   UNL     1      -2.807   4.584  -5.092  0.00  0.00    +0.003 C 
ATOM      2  C   UNL     1      -2.765   6.172  -4.709  0.00  0.00    +0.035 C 
ATOM      3  C   UNL     1      -1.453   6.049  -3.757  0.00  0.00    +0.178 C 
ATOM      4  O   UNL     1      -1.472   4.857  -3.107  0.00  0.00    -0.218 OA
ATOM      5  C   UNL     1      -0.322   6.427  -4.567  0.00  0.00    +0.035 C 
ATOM      6  C   UNL     1      -0.744   5.526  -5.832  0.00  0.00    +0.004 C 
ATOM      7  C   UNL     1       0.392   6.405  -6.727  0.00  0.00    +0.017 C 
ATOM      8  C   UNL     1       1.534   5.342  -6.356  0.00  0.00    +0.102 C 
ATOM      9  C   UNL     1       2.236   5.966  -5.001  0.00  0.00    +0.166 C 
ATOM     10  O   UNL     1       2.309   7.367  -5.602  0.00  0.00    -0.222 OA
ATOM     11 CL   UNL     1       1.007   3.759  -6.036  0.00  0.00    -0.113 Cl
ATOM     12  C   UNL     1       2.577   5.394  -7.397  0.00  0.00    +0.049 C 
ATOM     13  C   UNL     1       2.343   6.422  -8.466  0.00  0.00    -0.037 C 
ATOM     14  C   UNL     1       3.422   6.568  -9.245  0.00  0.00    +0.034 C 
ATOM     15  C   UNL     1       4.434   5.499  -9.339  0.00  0.00    +0.195 C 
ATOM     16  C   UNL     1       3.889   4.185  -8.958  0.00  0.00    +0.038 C 
ATOM     17  O   UNL     1       5.543   5.657  -9.892  0.00  0.00    -0.287 OA
ATOM     18  C   UNL     1       0.956   6.496  -9.031  0.00  0.00    +0.022 C 
ATOM     19  C   UNL     1       3.943   5.699  -6.787  0.00  0.00    +0.010 C 
ATOM     20  C   UNL     1       2.794   4.148  -8.187  0.00  0.00    -0.018 C 
ATOM     21  C   UNL     1       0.035   5.673  -8.126  0.00  0.00    +0.006 C 
ATOM     22  C   UNL     1      -0.563   7.895  -4.937  0.00  0.00    +0.003 C 
ATOM     23  C   UNL     1       0.928   6.308  -4.097  0.00  0.00    +0.037 C 
ATOM     24  C   UNL     1      -1.980   6.529  -6.099  0.00  0.00    +0.003 C 
ENDROOT
BRANCH   3  25
ATOM     25  C   UNL     1      -1.658   7.083  -2.683  0.00  0.00    +0.194 C 
ATOM     26  O   UNL     1      -2.082   8.190  -2.923  0.00  0.00    -0.292 OA
BRANCH  25  27
ATOM     27  C   UNL     1      -1.008   6.865  -1.365  0.00  0.00    +0.161 C 
ATOM     28 CL   UNL     1      -1.617   7.960  -0.116  0.00  0.00    -0.105 Cl
ENDBRANCH  25  27
ENDBRANCH   3  25
TORSDOF 2
ENDMDL
MODEL 7
REMARK VINA RESULT:      -7.7      1.558      1.809
REMARK  Name = 
REMARK  2 active torsions:
REMARK  status: ('A' for Active; 'I' for Inactive)
REMARK    1  A    between atoms: C_23  and  C_25
REMARK    2  A    between atoms: C_25  and  C_27
REMARK                            x       y       z     vdW  Elec       q    Type
REMARK                         _______ _______ _______ _____ _____    ______ ____
ROOT
ATOM      1  C   UNL     1       3.991   5.317  -7.773  0.00  0.00    +0.003 C 
ATOM      2  C   UNL     1       2.650   6.227  -7.978  0.00  0.00    +0.035 C 
ATOM      3  C   UNL     1       1.680   5.236  -7.129  0.00  0.00    +0.178 C 
ATOM      4  O   UNL     1       2.062   3.948  -7.325  0.00  0.00    -0.218 OA
ATOM      5  C   UNL     1       1.597   5.785  -5.799  0.00  0.00    +0.035 C 
ATOM      6  C   UNL     1       3.181   6.029  -5.645  0.00  0.00    +0.004 C 
ATOM      7  C   UNL     1       2.813   6.999  -4.308  0.00  0.00    +0.017 C 
ATOM      8  C   UNL     1       2.919   5.729  -3.334  0.00  0.00    +0.102 C 
ATOM      9  C   UNL     1       1.374   5.162  -3.248  0.00  0.00    +0.166 C 
ATOM     10  O   UNL     1       0.801   6.560  -3.034  0.00  0.00    -0.222 OA
ATOM     11 CL   UNL     1       3.948   4.477  -3.846  0.00  0.00    -0.113 Cl
ATOM     12  C   UNL     1       3.239   6.206  -1.976  0.00  0.00    +0.049 C 
ATOM     13  C   UNL     1       3.326   7.698  -1.842  0.00  0.00    -0.037 C 
ATOM     14  C   UNL     1       3.397   8.069  -0.557  0.00  0.00    +0.034 C 
ATOM     15  C   UNL     1       3.856   7.121   0.476  0.00  0.00    +0.195 C 
ATOM     16  C   UNL     1       4.668   6.032  -0.093  0.00  0.00    +0.038 C 
ATOM     17  O   UNL     1       3.758   7.348   1.700  0.00  0.00    -0.287 OA
ATOM     18  C   UNL     1       4.097   8.422  -2.907  0.00  0.00    +0.022 C 
ATOM     19  C   UNL     1       2.188   5.737  -0.972  0.00  0.00    +0.010 C 
ATOM     20  C   UNL     1       4.535   5.751  -1.396  0.00  0.00    -0.018 C 
ATOM     21  C   UNL     1       4.350   7.439  -4.053  0.00  0.00    +0.006 C 
ATOM     22  C   UNL     1       0.927   7.153  -5.967  0.00  0.00    +0.003 C 
ATOM     23  C   UNL     1       0.964   5.120  -4.821  0.00  0.00    +0.037 C 
ATOM     24  C   UNL     1       3.077   7.209  -6.742  0.00  0.00    +0.003 C 
ENDROOT
BRANCH   3  25
ATOM     25  C   UNL     1       0.336   5.351  -7.794  0.00  0.00    +0.194 C 
ATOM     26  O   UNL     1       0.106   6.170  -8.654  0.00  0.00    -0.292 OA
BRANCH  25  27
ATOM     27  C   UNL     1      -0.826   4.686  -7.148  0.00  0.00    +0.161 C 
ATOM     28 CL   UNL     1      -2.116   5.823  -6.731  0.00  0.00    -0.105 Cl
ENDBRANCH  25  27
ENDBRANCH   3  25
TORSDOF 2
ENDMDL
MODEL 8
REMARK VINA RESULT:      -7.7      2.552      6.562
REMARK  Name = 
REMARK  2 active torsions:
REMARK  status: ('A' for Active; 'I' for Inactive)
REMARK    1  A    between atoms: C_23  and  C_25
REMARK    2  A    between atoms: C_25  and  C_27
REMARK                            x       y       z     vdW  Elec       q    Type
REMARK                         _______ _______ _______ _____ _____    ______ ____
ROOT
ATOM      1  C   UNL     1       2.147   7.252  -4.061  0.00  0.00    +0.003 C 
ATOM      2  C   UNL     1       1.382   5.809  -4.083  0.00  0.00    +0.035 C 
ATOM      3  C   UNL     1       0.307   6.241  -5.223  0.00  0.00    +0.178 C 
ATOM      4  O   UNL     1      -0.019   7.550  -5.069  0.00  0.00    -0.218 OA
ATOM      5  C   UNL     1       0.822   5.753  -6.478  0.00  0.00    +0.035 C 
ATOM      6  C   UNL     1       2.318   6.296  -6.240  0.00  0.00    +0.004 C 
ATOM      7  C   UNL     1       2.789   5.302  -7.527  0.00  0.00    +0.017 C 
ATOM      8  C   UNL     1       2.528   6.494  -8.567  0.00  0.00    +0.102 C 
ATOM      9  C   UNL     1       0.972   6.261  -9.060  0.00  0.00    +0.166 C 
ATOM     10  O   UNL     1       1.190   4.764  -9.264  0.00  0.00    -0.222 OA
ATOM     11 CL   UNL     1       2.691   8.071  -7.954  0.00  0.00    -0.113 Cl
ATOM     12  C   UNL     1       3.358   6.262  -9.763  0.00  0.00    +0.049 C 
ATOM     13  C   UNL     1       4.161   4.994  -9.730  0.00  0.00    -0.037 C 
ATOM     14  C   UNL     1       4.712   4.735 -10.923  0.00  0.00    +0.034 C 
ATOM     15  C   UNL     1       4.915   5.813 -11.908  0.00  0.00    +0.195 C 
ATOM     16  C   UNL     1       4.957   7.142 -11.275  0.00  0.00    +0.038 C 
ATOM     17  O   UNL     1       5.242   5.599 -13.094  0.00  0.00    -0.287 OA
ATOM     18  C   UNL     1       4.889   4.697  -8.452  0.00  0.00    +0.022 C 
ATOM     19  C   UNL     1       2.495   6.201 -11.021  0.00  0.00    +0.010 C 
ATOM     20  C   UNL     1       4.390   7.293 -10.071  0.00  0.00    -0.018 C 
ATOM     21  C   UNL     1       4.363   5.652  -7.379  0.00  0.00    +0.006 C 
ATOM     22  C   UNL     1       0.848   4.228  -6.338  0.00  0.00    +0.003 C 
ATOM     23  C   UNL     1       0.215   6.062  -7.634  0.00  0.00    +0.037 C 
ATOM     24  C   UNL     1       2.509   5.180  -5.088  0.00  0.00    +0.003 C 
ENDROOT
BRANCH   3  25
ATOM     25  C   UNL     1      -0.947   5.484  -4.876  0.00  0.00    +0.194 C 
ATOM     26  O   UNL     1      -1.850   5.330  -5.666  0.00  0.00    -0.292 OA
BRANCH  25  27
ATOM     27  C   UNL     1      -1.233   5.219  -3.442  0.00  0.00    +0.161 C 
ATOM     28 CL   UNL     1      -2.965   5.210  -3.084  0.00  0.00    -0.105 Cl
ENDBRANCH  25  27
ENDBRANCH   3  25
TORSDOF 2
ENDMDL
MODEL 9
REMARK VINA RESULT:      -7.6      2.872      4.652
REMARK  Name = 
REMARK  2 active torsions:
REMARK  status: ('A' for Active; 'I' for Inactive)
REMARK    1  A    between atoms: C_23  and  C_25
REMARK    2  A    between atoms: C_25  and  C_27
REMARK                            x       y       z     vdW  Elec       q    Type
REMARK                         _______ _______ _______ _____ _____    ______ ____
ROOT
ATOM      1  C   UNL     1       1.535   6.872 -10.159  0.00  0.00    +0.003 C 
ATOM      2  C   UNL     1       2.061   5.343  -9.929  0.00  0.00    +0.035 C 
ATOM      3  C   UNL     1       3.037   5.720  -8.685  0.00  0.00    +0.178 C 
ATOM      4  O   UNL     1       3.576   6.950  -8.885  0.00  0.00    -0.218 OA
ATOM      5  C   UNL     1       2.299   5.426  -7.481  0.00  0.00    +0.035 C 
ATOM      6  C   UNL     1       0.946   6.152  -7.963  0.00  0.00    +0.004 C 
ATOM      7  C   UNL     1       0.169   5.357  -6.686  0.00  0.00    +0.017 C 
ATOM      8  C   UNL     1       0.476   6.590  -5.708  0.00  0.00    +0.102 C 
ATOM      9  C   UNL     1       1.903   6.184  -4.989  0.00  0.00    +0.166 C 
ATOM     10  O   UNL     1       1.434   4.758  -4.710  0.00  0.00    -0.222 OA
ATOM     11 CL   UNL     1       0.635   8.111  -6.448  0.00  0.00    -0.113 Cl
ATOM     12  C   UNL     1      -0.524   6.588  -4.624  0.00  0.00    +0.049 C 
ATOM     13  C   UNL     1      -1.501   5.450  -4.678  0.00  0.00    -0.037 C 
ATOM     14  C   UNL     1      -2.232   5.381  -3.558  0.00  0.00    +0.034 C 
ATOM     15  C   UNL     1      -2.391   6.563  -2.689  0.00  0.00    +0.195 C 
ATOM     16  C   UNL     1      -2.148   7.821  -3.415  0.00  0.00    +0.038 C 
ATOM     17  O   UNL     1      -2.893   6.506  -1.547  0.00  0.00    -0.287 OA
ATOM     18  C   UNL     1      -2.099   5.144  -6.020  0.00  0.00    +0.022 C 
ATOM     19  C   UNL     1       0.153   6.520  -3.257  0.00  0.00    +0.010 C 
ATOM     20  C   UNL     1      -1.417   7.779  -4.537  0.00  0.00    -0.018 C 
ATOM     21  C   UNL     1      -1.301   5.912  -7.076  0.00  0.00    +0.006 C 
ATOM     22  C   UNL     1       2.057   3.914  -7.515  0.00  0.00    +0.003 C 
ATOM     23  C   UNL     1       2.794   5.750  -6.278  0.00  0.00    +0.037 C 
ATOM     24  C   UNL     1       0.733   4.975  -9.047  0.00  0.00    +0.003 C 
ENDROOT
BRANCH   3  25
ATOM     25  C   UNL     1       4.193   4.764  -8.799  0.00  0.00    +0.194 C 
ATOM     26  O   UNL     1       4.047   3.604  -9.111  0.00  0.00    -0.292 OA
BRANCH  25  27
ATOM     27  C   UNL     1       5.490   5.154  -8.186  0.00  0.00    +0.161 C 
ATOM     28 CL   UNL     1       6.694   5.637  -9.390  0.00  0.00    -0.105 Cl
ENDBRANCH  25  27
ENDBRANCH   3  25
TORSDOF 2
ENDMDL
