MODEL 1
REMARK VINA RESULT:      -8.2      0.000      0.000
REMARK  Name = 
REMARK  5 active torsions:
REMARK  status: ('A' for Active; 'I' for Inactive)
REMARK    1  A    between atoms: C_2  and  C_12
REMARK    2  A    between atoms: C_3  and  C_4
REMARK    3  A    between atoms: C_5  and  C_6
REMARK    4  A    between atoms: C_8  and  C_9
REMARK    5  A    between atoms: C_13  and  C_14
REMARK                            x       y       z     vdW  Elec       q    Type
REMARK                         _______ _______ _______ _____ _____    ______ ____
ROOT
ATOM      1  C   UNL     1       3.794   4.351  -9.081  0.00  0.00    +0.031 C 
ATOM      2  C   UNL     1       3.775   5.831  -9.301  0.00  0.00    -0.022 C 
ATOM      3  C   UNL     1       4.869   6.357  -9.843  0.00  0.00    -0.004 C 
ENDROOT
BRANCH   2   4
ATOM      4  C   UNL     1       2.523   6.519  -9.642  0.00  0.00    -0.005 C 
ATOM      5  C   UNL     1       1.881   7.058  -8.606  0.00  0.00    -0.005 C 
BRANCH   5   6
ATOM      6  C   UNL     1       1.596   6.135  -7.499  0.00  0.00    -0.031 C 
ATOM      7  C   UNL     1       2.114   6.417  -6.124  0.00  0.00    +0.018 C 
ATOM      8  C   UNL     1       1.060   7.230  -5.384  0.00  0.00    +0.004 C 
ATOM      9  C   UNL     1       3.408   7.177  -6.141  0.00  0.00    +0.004 C 
ATOM     10  C   UNL     1       2.220   5.081  -5.428  0.00  0.00    +0.004 C 
ATOM     11  C   UNL     1       0.804   4.583  -5.205  0.00  0.00    +0.005 C 
ATOM     12  C   UNL     1      -0.170   5.125  -6.211  0.00  0.00    +0.022 C 
ATOM     13  C   UNL     1       0.473   5.414  -7.531  0.00  0.00    -0.048 C 
ATOM     14  C   UNL     1      -0.389   5.462  -8.745  0.00  0.00    +0.026 C 
ENDBRANCH   5   6
ENDBRANCH   2   4
BRANCH   3  15
ATOM     15  C   UNL     1       6.179   5.714  -9.756  0.00  0.00    -0.001 C 
ATOM     16  C   UNL     1       7.219   6.479 -10.089  0.00  0.00    -0.004 C 
BRANCH  16  17
ATOM     17  C   UNL     1       7.036   7.285 -11.302  0.00  0.00    -0.015 C 
ATOM     18  C   UNL     1       7.284   6.700 -12.454  0.00  0.00    +0.082 C 
ATOM     19  C   UNL     1       6.581   8.708 -11.241  0.00  0.00    +0.031 C 
BRANCH  18  20
ATOM     20  C   UNL     1       8.234   5.603 -12.460  0.00  0.00    +0.388 C 
ATOM     21  O   UNL     1       9.572   5.863 -12.241  0.00  0.00    -0.241 OA
ATOM     22  O   UNL     1       7.828   4.451 -12.800  0.00  0.00    -0.241 OA
ENDBRANCH  18  20
ENDBRANCH  16  17
ENDBRANCH   3  15
TORSDOF 5
ENDMDL
MODEL 2
REMARK VINA RESULT:      -7.8      5.055      8.598
REMARK  Name = 
REMARK  5 active torsions:
REMARK  status: ('A' for Active; 'I' for Inactive)
REMARK    1  A    between atoms: C_2  and  C_12
REMARK    2  A    between atoms: C_3  and  C_4
REMARK    3  A    between atoms: C_5  and  C_6
REMARK    4  A    between atoms: C_8  and  C_9
REMARK    5  A    between atoms: C_13  and  C_14
REMARK                            x       y       z     vdW  Elec       q    Type
REMARK                         _______ _______ _______ _____ _____    ______ ____
ROOT
ATOM      1  C   UNL     1       1.003   4.990  -4.498  0.00  0.00    +0.031 C 
ATOM      2  C   UNL     1       1.045   6.136  -5.459  0.00  0.00    -0.022 C 
ATOM      3  C   UNL     1      -0.130   6.651  -5.809  0.00  0.00    -0.004 C 
ENDROOT
BRANCH   2   4
ATOM      4  C   UNL     1       2.157   7.094  -5.430  0.00  0.00    -0.005 C 
ATOM      5  C   UNL     1       2.670   7.392  -6.624  0.00  0.00    -0.005 C 
BRANCH   5   6
ATOM      6  C   UNL     1       3.096   6.236  -7.425  0.00  0.00    -0.031 C 
ATOM      7  C   UNL     1       2.730   6.141  -8.874  0.00  0.00    +0.018 C 
ATOM      8  C   UNL     1       3.843   6.793  -9.683  0.00  0.00    +0.004 C 
ATOM      9  C   UNL     1       1.426   6.817  -9.183  0.00  0.00    +0.004 C 
ATOM     10  C   UNL     1       2.732   4.670  -9.215  0.00  0.00    +0.004 C 
ATOM     11  C   UNL     1       4.174   4.202  -9.157  0.00  0.00    +0.005 C 
ATOM     12  C   UNL     1       5.017   5.024  -8.227  0.00  0.00    +0.022 C 
ATOM     13  C   UNL     1       4.224   5.602  -7.097  0.00  0.00    -0.048 C 
ATOM     14  C   UNL     1       4.943   5.994  -5.852  0.00  0.00    +0.026 C 
ENDBRANCH   5   6
ENDBRANCH   2   4
BRANCH   3  15
ATOM     15  C   UNL     1      -1.378   5.893  -5.731  0.00  0.00    -0.001 C 
ATOM     16  C   UNL     1      -2.449   6.585  -5.342  0.00  0.00    -0.004 C 
BRANCH  16  17
ATOM     17  C   UNL     1      -2.230   7.481  -4.200  0.00  0.00    -0.015 C 
ATOM     18  C   UNL     1      -2.217   6.935  -3.004  0.00  0.00    +0.082 C 
ATOM     19  C   UNL     1      -2.024   8.951  -4.380  0.00  0.00    +0.031 C 
BRANCH  18  20
ATOM     20  C   UNL     1      -2.967   5.707  -2.816  0.00  0.00    +0.388 C 
ATOM     21  O   UNL     1      -4.346   5.742  -2.859  0.00  0.00    -0.241 OA
ATOM     22  O   UNL     1      -2.338   4.657  -2.485  0.00  0.00    -0.241 OA
ENDBRANCH  18  20
ENDBRANCH  16  17
ENDBRANCH   3  15
TORSDOF 5
ENDMDL
MODEL 3
REMARK VINA RESULT:      -7.6      3.282      5.179
REMARK  Name = 
REMARK  5 active torsions:
REMARK  status: ('A' for Active; 'I' for Inactive)
REMARK    1  A    between atoms: C_2  and  C_12
REMARK    2  A    between atoms: C_3  and  C_4
REMARK    3  A    between atoms: C_5  and  C_6
REMARK    4  A    between atoms: C_8  and  C_9
REMARK    5  A    between atoms: C_13  and  C_14
REMARK                            x       y       z     vdW  Elec       q    Type
REMARK                         _______ _______ _______ _____ _____    ______ ____
ROOT
ATOM      1  C   UNL     1       3.305   7.107  -4.882  0.00  0.00    +0.031 C 
ATOM      2  C   UNL     1       2.181   6.308  -5.463  0.00  0.00    -0.022 C 
ATOM      3  C   UNL     1       2.032   6.378  -6.782  0.00  0.00    -0.004 C 
ENDROOT
BRANCH   2   4
ATOM      4  C   UNL     1       1.788   5.027  -4.863  0.00  0.00    -0.005 C 
ATOM      5  C   UNL     1       0.474   4.799  -4.840  0.00  0.00    -0.005 C 
BRANCH   5   6
ATOM      6  C   UNL     1      -0.331   5.854  -4.210  0.00  0.00    -0.031 C 
ATOM      7  C   UNL     1      -1.608   6.313  -4.841  0.00  0.00    +0.018 C 
ATOM      8  C   UNL     1      -2.740   5.464  -4.281  0.00  0.00    +0.004 C 
ATOM      9  C   UNL     1      -1.586   6.192  -6.337  0.00  0.00    +0.004 C 
ATOM     10  C   UNL     1      -1.832   7.729  -4.364  0.00  0.00    +0.004 C 
ATOM     11  C   UNL     1      -2.148   7.653  -2.882  0.00  0.00    +0.005 C 
ATOM     12  C   UNL     1      -1.551   6.445  -2.220  0.00  0.00    +0.022 C 
ATOM     13  C   UNL     1      -0.288   5.994  -2.883  0.00  0.00    -0.048 C 
ATOM     14  C   UNL     1       0.674   5.173  -2.095  0.00  0.00    +0.026 C 
ENDBRANCH   5   6
ENDBRANCH   2   4
BRANCH   3  15
ATOM     15  C   UNL     1       2.525   7.505  -7.573  0.00  0.00    -0.001 C 
ATOM     16  C   UNL     1       2.870   7.221  -8.829  0.00  0.00    -0.004 C 
BRANCH  16  17
ATOM     17  C   UNL     1       3.656   5.993  -8.996  0.00  0.00    -0.015 C 
ATOM     18  C   UNL     1       3.337   5.210 -10.003  0.00  0.00    +0.082 C 
ATOM     19  C   UNL     1       4.779   5.644  -8.072  0.00  0.00    +0.031 C 
BRANCH  18  20
ATOM     20  C   UNL     1       1.967   5.253 -10.481  0.00  0.00    +0.388 C 
ATOM     21  O   UNL     1       0.975   4.627  -9.754  0.00  0.00    -0.241 OA
ATOM     22  O   UNL     1       1.740   5.751 -11.624  0.00  0.00    -0.241 OA
ENDBRANCH  18  20
ENDBRANCH  16  17
ENDBRANCH   3  15
TORSDOF 5
ENDMDL
MODEL 4
REMARK VINA RESULT:      -7.3      5.710      8.685
REMARK  Name = 
REMARK  5 active torsions:
REMARK  status: ('A' for Active; 'I' for Inactive)
REMARK    1  A    between atoms: C_2  and  C_12
REMARK    2  A    between atoms: C_3  and  C_4
REMARK    3  A    between atoms: C_5  and  C_6
REMARK    4  A    between atoms: C_8  and  C_9
REMARK    5  A    between atoms: C_13  and  C_14
REMARK                            x       y       z     vdW  Elec       q    Type
REMARK                         _______ _______ _______ _____ _____    ______ ____
ROOT
ATOM      1  C   UNL     1       0.633   6.640  -7.334  0.00  0.00    +0.031 C 
ATOM      2  C   UNL     1       0.994   6.192  -5.953  0.00  0.00    -0.022 C 
ATOM      3  C   UNL     1       0.113   6.470  -4.998  0.00  0.00    -0.004 C 
ENDROOT
BRANCH   2   4
ATOM      4  C   UNL     1       1.762   4.958  -5.745  0.00  0.00    -0.005 C 
ATOM      5  C   UNL     1       2.335   4.851  -4.546  0.00  0.00    -0.005 C 
BRANCH   5   6
ATOM      6  C   UNL     1       3.191   5.981  -4.160  0.00  0.00    -0.031 C 
ATOM      7  C   UNL     1       3.210   6.469  -2.745  0.00  0.00    +0.018 C 
ATOM      8  C   UNL     1       4.303   5.714  -2.003  0.00  0.00    +0.004 C 
ATOM      9  C   UNL     1       1.897   6.261  -2.047  0.00  0.00    +0.004 C 
ATOM     10  C   UNL     1       3.627   7.920  -2.803  0.00  0.00    +0.004 C 
ATOM     11  C   UNL     1       5.082   7.946  -3.233  0.00  0.00    +0.005 C 
ATOM     12  C   UNL     1       5.470   6.749  -4.050  0.00  0.00    +0.022 C 
ATOM     13  C   UNL     1       4.322   6.195  -4.834  0.00  0.00    -0.048 C 
ATOM     14  C   UNL     1       4.618   5.371  -6.040  0.00  0.00    +0.026 C 
ENDBRANCH   5   6
ENDBRANCH   2   4
BRANCH   3  15
ATOM     15  C   UNL     1      -0.857   7.559  -5.112  0.00  0.00    -0.001 C 
ATOM     16  C   UNL     1      -2.045   7.334  -4.550  0.00  0.00    -0.004 C 
BRANCH  16  17
ATOM     17  C   UNL     1      -2.615   6.007  -4.809  0.00  0.00    -0.015 C 
ATOM     18  C   UNL     1      -3.074   5.339  -3.772  0.00  0.00    +0.082 C 
ATOM     19  C   UNL     1      -2.682   5.433  -6.188  0.00  0.00    +0.031 C 
BRANCH  18  20
ATOM     20  C   UNL     1      -2.491   5.627  -2.475  0.00  0.00    +0.388 C 
ATOM     21  O   UNL     1      -1.382   4.920  -2.058  0.00  0.00    -0.241 OA
ATOM     22  O   UNL     1      -3.097   6.429  -1.703  0.00  0.00    -0.241 OA
ENDBRANCH  18  20
ENDBRANCH  16  17
ENDBRANCH   3  15
TORSDOF 5
ENDMDL
MODEL 5
REMARK VINA RESULT:      -7.3      1.632      2.721
REMARK  Name = 
REMARK  5 active torsions:
REMARK  status: ('A' for Active; 'I' for Inactive)
REMARK    1  A    between atoms: C_2  and  C_12
REMARK    2  A    between atoms: C_3  and  C_4
REMARK    3  A    between atoms: C_5  and  C_6
REMARK    4  A    between atoms: C_8  and  C_9
REMARK    5  A    between atoms: C_13  and  C_14
REMARK                            x       y       z     vdW  Elec       q    Type
REMARK                         _______ _______ _______ _____ _____    ______ ____
ROOT
ATOM      1  C   UNL     1       5.509   6.020  -8.073  0.00  0.00    +0.031 C 
ATOM      2  C   UNL     1       4.532   5.587  -9.120  0.00  0.00    -0.022 C 
ATOM      3  C   UNL     1       4.765   6.023 -10.354  0.00  0.00    -0.004 C 
ENDROOT
BRANCH   2   4
ATOM      4  C   UNL     1       3.886   4.271  -9.041  0.00  0.00    -0.005 C 
ATOM      5  C   UNL     1       2.553   4.303  -9.012  0.00  0.00    -0.005 C 
BRANCH   5   6
ATOM      6  C   UNL     1       1.973   5.150  -7.962  0.00  0.00    -0.031 C 
ATOM      7  C   UNL     1       0.986   6.220  -8.310  0.00  0.00    +0.018 C 
ATOM      8  C   UNL     1      -0.409   5.613  -8.241  0.00  0.00    +0.004 C 
ATOM      9  C   UNL     1       1.215   6.790  -9.680  0.00  0.00    +0.004 C 
ATOM     10  C   UNL     1       1.079   7.256  -7.214  0.00  0.00    +0.004 C 
ATOM     11  C   UNL     1       0.520   6.620  -5.955  0.00  0.00    +0.005 C 
ATOM     12  C   UNL     1       0.653   5.125  -5.947  0.00  0.00    +0.022 C 
ATOM     13  C   UNL     1       1.838   4.653  -6.730  0.00  0.00    -0.048 C 
ATOM     14  C   UNL     1       2.402   3.309  -6.422  0.00  0.00    +0.026 C 
ENDBRANCH   5   6
ENDBRANCH   2   4
BRANCH   3  15
ATOM     15  C   UNL     1       5.548   7.227 -10.631  0.00  0.00    -0.001 C 
ATOM     16  C   UNL     1       6.390   7.143 -11.661  0.00  0.00    -0.004 C 
BRANCH  16  17
ATOM     17  C   UNL     1       7.172   5.902 -11.725  0.00  0.00    -0.015 C 
ATOM     18  C   UNL     1       7.166   5.250 -12.868  0.00  0.00    +0.082 C 
ATOM     19  C   UNL     1       7.950   5.399 -10.552  0.00  0.00    +0.031 C 
BRANCH  18  20
ATOM     20  C   UNL     1       6.011   5.413 -13.730  0.00  0.00    +0.388 C 
ATOM     21  O   UNL     1       4.887   4.643 -13.512  0.00  0.00    -0.241 OA
ATOM     22  O   UNL     1       6.115   6.166 -14.746  0.00  0.00    -0.241 OA
ENDBRANCH  18  20
ENDBRANCH  16  17
ENDBRANCH   3  15
TORSDOF 5
ENDMDL
MODEL 6
REMARK VINA RESULT:      -7.2      3.840      5.399
REMARK  Name = 
REMARK  5 active torsions:
REMARK  status: ('A' for Active; 'I' for Inactive)
REMARK    1  A    between atoms: C_2  and  C_12
REMARK    2  A    between atoms: C_3  and  C_4
REMARK    3  A    between atoms: C_5  and  C_6
REMARK    4  A    between atoms: C_8  and  C_9
REMARK    5  A    between atoms: C_13  and  C_14
REMARK                            x       y       z     vdW  Elec       q    Type
REMARK                         _______ _______ _______ _____ _____    ______ ____
ROOT
ATOM      1  C   UNL     1       2.119   7.420  -6.907  0.00  0.00    +0.031 C 
ATOM      2  C   UNL     1       1.306   6.200  -7.206  0.00  0.00    -0.022 C 
ATOM      3  C   UNL     1       1.139   5.908  -8.492  0.00  0.00    -0.004 C 
ENDROOT
BRANCH   2   4
ATOM      4  C   UNL     1       1.344   5.039  -6.308  0.00  0.00    -0.005 C 
ATOM      5  C   UNL     1       0.172   4.719  -5.757  0.00  0.00    -0.005 C 
BRANCH   5   6
ATOM      6  C   UNL     1      -0.501   5.814  -5.045  0.00  0.00    -0.031 C 
ATOM      7  C   UNL     1      -1.948   6.104  -5.294  0.00  0.00    +0.018 C 
ATOM      8  C   UNL     1      -2.767   5.290  -4.301  0.00  0.00    +0.004 C 
ATOM      9  C   UNL     1      -2.372   5.757  -6.691  0.00  0.00    +0.004 C 
ATOM     10  C   UNL     1      -2.153   7.561  -4.956  0.00  0.00    +0.004 C 
ATOM     11  C   UNL     1      -1.993   7.695  -3.453  0.00  0.00    +0.005 C 
ATOM     12  C   UNL     1      -1.108   6.636  -2.864  0.00  0.00    +0.022 C 
ATOM     13  C   UNL     1      -0.069   6.157  -3.830  0.00  0.00    -0.048 C 
ATOM     14  C   UNL     1       1.163   5.517  -3.288  0.00  0.00    +0.026 C 
ENDBRANCH   5   6
ENDBRANCH   2   4
BRANCH   3  15
ATOM     15  C   UNL     1       1.244   6.914  -9.549  0.00  0.00    -0.001 C 
ATOM     16  C   UNL     1       0.499   6.692 -10.632  0.00  0.00    -0.004 C 
BRANCH  16  17
ATOM     17  C   UNL     1       0.515   5.310 -11.127  0.00  0.00    -0.015 C 
ATOM     18  C   UNL     1       1.346   5.036 -12.109  0.00  0.00    +0.082 C 
ATOM     19  C   UNL     1      -0.365   4.253 -10.542  0.00  0.00    +0.031 C 
BRANCH  18  20
ATOM     20  C   UNL     1       1.717   6.120 -13.000  0.00  0.00    +0.388 C 
ATOM     21  O   UNL     1       0.782   6.624 -13.879  0.00  0.00    -0.241 OA
ATOM     22  O   UNL     1       2.931   6.484 -13.038  0.00  0.00    -0.241 OA
ENDBRANCH  18  20
ENDBRANCH  16  17
ENDBRANCH   3  15
TORSDOF 5
ENDMDL
MODEL 7
REMARK VINA RESULT:      -7.1      5.570      6.638
REMARK  Name = 
REMARK  5 active torsions:
REMARK  status: ('A' for Active; 'I' for Inactive)
REMARK    1  A    between atoms: C_2  and  C_12
REMARK    2  A    between atoms: C_3  and  C_4
REMARK    3  A    between atoms: C_5  and  C_6
REMARK    4  A    between atoms: C_8  and  C_9
REMARK    5  A    between atoms: C_13  and  C_14
REMARK                            x       y       z     vdW  Elec       q    Type
REMARK                         _______ _______ _______ _____ _____    ______ ____
ROOT
ATOM      1  C   UNL     1       2.496   3.618  -6.193  0.00  0.00    +0.031 C 
ATOM      2  C   UNL     1       2.595   5.104  -6.053  0.00  0.00    -0.022 C 
ATOM      3  C   UNL     1       3.665   5.562  -5.412  0.00  0.00    -0.004 C 
ENDROOT
BRANCH   2   4
ATOM      4  C   UNL     1       2.077   5.990  -7.104  0.00  0.00    -0.005 C 
ATOM      5  C   UNL     1       1.116   6.825  -6.709  0.00  0.00    -0.005 C 
BRANCH   5   6
ATOM      6  C   UNL     1      -0.034   6.188  -6.053  0.00  0.00    -0.031 C 
ATOM      7  C   UNL     1      -0.487   6.645  -4.702  0.00  0.00    +0.018 C 
ATOM      8  C   UNL     1      -1.527   7.740  -4.902  0.00  0.00    +0.004 C 
ATOM      9  C   UNL     1       0.641   7.176  -3.867  0.00  0.00    +0.004 C 
ATOM     10  C   UNL     1      -1.191   5.468  -4.070  0.00  0.00    +0.004 C 
ATOM     11  C   UNL     1      -2.476   5.250  -4.847  0.00  0.00    +0.005 C 
ATOM     12  C   UNL     1      -2.389   5.733  -6.265  0.00  0.00    +0.022 C 
ATOM     13  C   UNL     1      -0.998   5.660  -6.811  0.00  0.00    -0.048 C 
ATOM     14  C   UNL     1      -0.817   5.608  -8.289  0.00  0.00    +0.026 C 
ENDBRANCH   5   6
ENDBRANCH   2   4
BRANCH   3  15
ATOM     15  C   UNL     1       4.419   4.752  -4.456  0.00  0.00    -0.001 C 
ATOM     16  C   UNL     1       4.449   5.216  -3.206  0.00  0.00    -0.004 C 
BRANCH  16  17
ATOM     17  C   UNL     1       4.696   6.657  -3.082  0.00  0.00    -0.015 C 
ATOM     18  C   UNL     1       4.606   7.179  -1.878  0.00  0.00    +0.082 C 
ATOM     19  C   UNL     1       5.044   7.502  -4.266  0.00  0.00    +0.031 C 
BRANCH  18  20
ATOM     20  C   UNL     1       3.739   6.517  -0.921  0.00  0.00    +0.388 C 
ATOM     21  O   UNL     1       2.383   6.770  -0.946  0.00  0.00    -0.241 OA
ATOM     22  O   UNL     1       4.270   5.825  -0.001  0.00  0.00    -0.241 OA
ENDBRANCH  18  20
ENDBRANCH  16  17
ENDBRANCH   3  15
TORSDOF 5
ENDMDL
MODEL 8
REMARK VINA RESULT:      -6.9      2.609      5.084
REMARK  Name = 
REMARK  5 active torsions:
REMARK  status: ('A' for Active; 'I' for Inactive)
REMARK    1  A    between atoms: C_2  and  C_12
REMARK    2  A    between atoms: C_3  and  C_4
REMARK    3  A    between atoms: C_5  and  C_6
REMARK    4  A    between atoms: C_8  and  C_9
REMARK    5  A    between atoms: C_13  and  C_14
REMARK                            x       y       z     vdW  Elec       q    Type
REMARK                         _______ _______ _______ _____ _____    ______ ____
ROOT
ATOM      1  C   UNL     1       3.311   7.463  -3.820  0.00  0.00    +0.031 C 
ATOM      2  C   UNL     1       2.531   6.328  -4.407  0.00  0.00    -0.022 C 
ATOM      3  C   UNL     1       2.890   5.938  -5.626  0.00  0.00    -0.004 C 
ENDROOT
BRANCH   2   4
ATOM      4  C   UNL     1       2.004   5.261  -3.546  0.00  0.00    -0.005 C 
ATOM      5  C   UNL     1       0.722   4.957  -3.755  0.00  0.00    -0.005 C 
BRANCH   5   6
ATOM      6  C   UNL     1      -0.209   6.091  -3.684  0.00  0.00    -0.031 C 
ATOM      7  C   UNL     1      -1.151   6.371  -4.812  0.00  0.00    +0.018 C 
ATOM      8  C   UNL     1      -2.445   5.617  -4.541  0.00  0.00    +0.004 C 
ATOM      9  C   UNL     1      -0.597   5.950  -6.142  0.00  0.00    +0.004 C 
ATOM     10  C   UNL     1      -1.469   7.846  -4.743  0.00  0.00    +0.004 C 
ATOM     11  C   UNL     1      -2.301   8.062  -3.492  0.00  0.00    +0.005 C 
ATOM     12  C   UNL     1      -2.036   7.034  -2.431  0.00  0.00    +0.022 C 
ATOM     13  C   UNL     1      -0.640   6.499  -2.488  0.00  0.00    -0.048 C 
ATOM     14  C   UNL     1      -0.063   5.886  -1.259  0.00  0.00    +0.026 C 
ENDBRANCH   5   6
ENDBRANCH   2   4
BRANCH   3  15
ATOM     15  C   UNL     1       3.590   6.818  -6.561  0.00  0.00    -0.001 C 
ATOM     16  C   UNL     1       3.339   6.602  -7.852  0.00  0.00    -0.004 C 
BRANCH  16  17
ATOM     17  C   UNL     1       3.335   5.192  -8.259  0.00  0.00    -0.015 C 
ATOM     18  C   UNL     1       4.448   4.712  -8.769  0.00  0.00    +0.082 C 
ATOM     19  C   UNL     1       2.125   4.329  -8.097  0.00  0.00    +0.031 C 
BRANCH  18  20
ATOM     20  C   UNL     1       5.342   5.645  -9.431  0.00  0.00    +0.388 C 
ATOM     21  O   UNL     1       4.913   6.309 -10.562  0.00  0.00    -0.241 OA
ATOM     22  O   UNL     1       6.542   5.725  -9.028  0.00  0.00    -0.241 OA
ENDBRANCH  18  20
ENDBRANCH  16  17
ENDBRANCH   3  15
TORSDOF 5
ENDMDL
MODEL 9
REMARK VINA RESULT:      -6.9      1.756      2.565
REMARK  Name = 
REMARK  5 active torsions:
REMARK  status: ('A' for Active; 'I' for Inactive)
REMARK    1  A    between atoms: C_2  and  C_12
REMARK    2  A    between atoms: C_3  and  C_4
REMARK    3  A    between atoms: C_5  and  C_6
REMARK    4  A    between atoms: C_8  and  C_9
REMARK    5  A    between atoms: C_13  and  C_14
REMARK                            x       y       z     vdW  Elec       q    Type
REMARK                         _______ _______ _______ _____ _____    ______ ____
ROOT
ATOM      1  C   UNL     1       2.942   3.985  -8.110  0.00  0.00    +0.031 C 
ATOM      2  C   UNL     1       3.303   5.350  -7.613  0.00  0.00    -0.022 C 
ATOM      3  C   UNL     1       4.441   5.859  -8.076  0.00  0.00    -0.004 C 
ENDROOT
BRANCH   2   4
ATOM      4  C   UNL     1       2.258   6.338  -7.317  0.00  0.00    -0.005 C 
ATOM      5  C   UNL     1       2.472   7.066  -6.220  0.00  0.00    -0.005 C 
BRANCH   5   6
ATOM      6  C   UNL     1       2.718   6.293  -4.996  0.00  0.00    -0.031 C 
ATOM      7  C   UNL     1       3.885   6.616  -4.116  0.00  0.00    +0.018 C 
ATOM      8  C   UNL     1       3.424   7.634  -3.081  0.00  0.00    +0.004 C 
ATOM      9  C   UNL     1       5.046   7.177  -4.884  0.00  0.00    +0.004 C 
ATOM     10  C   UNL     1       4.222   5.344  -3.375  0.00  0.00    +0.004 C 
ATOM     11  C   UNL     1       3.082   5.077  -2.410  0.00  0.00    +0.005 C 
ATOM     12  C   UNL     1       1.779   5.664  -2.869  0.00  0.00    +0.022 C 
ATOM     13  C   UNL     1       1.681   5.742  -4.360  0.00  0.00    -0.048 C 
ATOM     14  C   UNL     1       0.328   5.809  -4.980  0.00  0.00    +0.026 C 
ENDBRANCH   5   6
ENDBRANCH   2   4
BRANCH   3  15
ATOM     15  C   UNL     1       5.530   5.026  -8.584  0.00  0.00    -0.001 C 
ATOM     16  C   UNL     1       6.287   5.581  -9.530  0.00  0.00    -0.004 C 
BRANCH  16  17
ATOM     17  C   UNL     1       5.549   6.293 -10.580  0.00  0.00    -0.015 C 
ATOM     18  C   UNL     1       5.947   6.109 -11.821  0.00  0.00    +0.082 C 
ATOM     19  C   UNL     1       4.391   7.184 -10.265  0.00  0.00    +0.031 C 
BRANCH  18  20
ATOM     20  C   UNL     1       7.338   5.756 -12.037  0.00  0.00    +0.388 C 
ATOM     21  O   UNL     1       7.654   4.498 -12.507  0.00  0.00    -0.241 OA
ATOM     22  O   UNL     1       8.234   6.570 -11.660  0.00  0.00    -0.241 OA
ENDBRANCH  18  20
ENDBRANCH  16  17
ENDBRANCH   3  15
TORSDOF 5
ENDMDL
