MODEL 1
REMARK VINA RESULT:      -7.2      0.000      0.000
REMARK  Name = 
REMARK  3 active torsions:
REMARK  status: ('A' for Active; 'I' for Inactive)
REMARK    1  A    between atoms: C_2  and  C_3
REMARK    2  A    between atoms: C_2  and  N_12
REMARK    3  A    between atoms: C_3  and  N_4
REMARK                            x       y       z     vdW  Elec       q    Type
REMARK                         _______ _______ _______ _____ _____    ______ ____
ROOT
ATOM      1  C   UNL     1       3.634   4.666  -9.755  0.00  0.00    +0.019 C 
ATOM      2  C   UNL     1       5.090   5.301  -9.276  0.00  0.00    +0.074 C 
ENDROOT
BRANCH   2   3
ATOM      3  N   UNL     1       4.401   6.285  -8.237  0.00  0.00    -0.257 NA
ATOM      4  C   UNL     1       4.540   5.490  -7.022  0.00  0.00    +0.161 C 
ATOM      5  C   UNL     1       3.377   5.637  -6.109  0.00  0.00    +0.264 C 
ATOM      6  O   UNL     1       3.111   4.706  -5.301  0.00  0.00    -0.271 OA
ATOM      7  N   UNL     1       2.527   6.777  -6.288  0.00  0.00    -0.142 NA
ATOM      8  C   UNL     1       2.393   7.253  -7.634  0.00  0.00    +0.264 C 
ATOM      9  O   UNL     1       2.139   8.441  -7.924  0.00  0.00    -0.271 OA
ATOM     10  C   UNL     1       3.010   6.358  -8.659  0.00  0.00    +0.161 C 
ENDBRANCH   2   3
BRANCH   2  11
ATOM     11  C   UNL     1       5.024   6.447 -10.463  0.00  0.00    +0.089 C 
BRANCH  11  12
ATOM     12  N   UNL     1       6.307   6.590 -11.018  0.00  0.00    -0.256 NA
ATOM     13  C   UNL     1       7.301   5.633 -10.698  0.00  0.00    +0.161 C 
ATOM     14  C   UNL     1       8.156   5.345 -11.900  0.00  0.00    +0.264 C 
ATOM     15  O   UNL     1       9.228   5.988 -12.115  0.00  0.00    -0.271 OA
ATOM     16  N   UNL     1       7.352   4.802 -12.966  0.00  0.00    -0.142 NA
ATOM     17  C   UNL     1       6.033   5.383 -13.011  0.00  0.00    +0.264 C 
ATOM     18  O   UNL     1       4.980   4.721 -13.073  0.00  0.00    -0.271 OA
ATOM     19  C   UNL     1       6.097   6.777 -12.455  0.00  0.00    +0.161 C 
ENDBRANCH  11  12
ENDBRANCH   2  11
TORSDOF 3
ENDMDL
MODEL 2
REMARK VINA RESULT:      -7.1      4.922      9.214
REMARK  Name = 
REMARK  3 active torsions:
REMARK  status: ('A' for Active; 'I' for Inactive)
REMARK    1  A    between atoms: C_2  and  C_3
REMARK    2  A    between atoms: C_2  and  N_12
REMARK    3  A    between atoms: C_3  and  N_4
REMARK                            x       y       z     vdW  Elec       q    Type
REMARK                         _______ _______ _______ _____ _____    ______ ____
ROOT
ATOM      1  C   UNL     1       1.573   4.682  -5.580  0.00  0.00    +0.019 C 
ATOM      2  C   UNL     1      -0.030   5.103  -5.663  0.00  0.00    +0.074 C 
ENDROOT
BRANCH   2   3
ATOM      3  N   UNL     1       0.229   6.145  -6.831  0.00  0.00    -0.257 NA
ATOM      4  C   UNL     1      -0.338   5.401  -7.951  0.00  0.00    +0.161 C 
ATOM      5  C   UNL     1       0.412   5.614  -9.215  0.00  0.00    +0.264 C 
ATOM      6  O   UNL     1       0.371   4.725 -10.109  0.00  0.00    -0.271 OA
ATOM      7  N   UNL     1       1.264   6.763  -9.302  0.00  0.00    -0.142 NA
ATOM      8  C   UNL     1       1.877   7.183  -8.075  0.00  0.00    +0.264 C 
ATOM      9  O   UNL     1       2.213   8.362  -7.839  0.00  0.00    -0.271 OA
ATOM     10  C   UNL     1       1.678   6.231  -6.940  0.00  0.00    +0.161 C 
ENDBRANCH   2   3
BRANCH   2  11
ATOM     11  C   UNL     1       0.180   6.275  -4.518  0.00  0.00    +0.089 C 
BRANCH  11  12
ATOM     12  N   UNL     1      -1.072   6.579  -3.955  0.00  0.00    -0.256 NA
ATOM     13  C   UNL     1      -2.173   5.734  -4.239  0.00  0.00    +0.161 C 
ATOM     14  C   UNL     1      -3.040   5.578  -3.022  0.00  0.00    +0.264 C 
ATOM     15  O   UNL     1      -4.029   6.346  -2.816  0.00  0.00    -0.271 OA
ATOM     16  N   UNL     1      -2.290   4.976  -1.949  0.00  0.00    -0.142 NA
ATOM     17  C   UNL     1      -0.913   5.402  -1.932  0.00  0.00    +0.264 C 
ATOM     18  O   UNL     1       0.058   4.626  -1.862  0.00  0.00    -0.271 OA
ATOM     19  C   UNL     1      -0.824   6.779  -2.527  0.00  0.00    +0.161 C 
ENDBRANCH  11  12
ENDBRANCH   2  11
TORSDOF 3
ENDMDL
MODEL 3
REMARK VINA RESULT:      -7.0      4.340      6.953
REMARK  Name = 
REMARK  3 active torsions:
REMARK  status: ('A' for Active; 'I' for Inactive)
REMARK    1  A    between atoms: C_2  and  C_3
REMARK    2  A    between atoms: C_2  and  N_12
REMARK    3  A    between atoms: C_3  and  N_4
REMARK                            x       y       z     vdW  Elec       q    Type
REMARK                         _______ _______ _______ _____ _____    ______ ____
ROOT
ATOM      1  C   UNL     1      -0.910   7.741  -4.903  0.00  0.00    +0.019 C 
ATOM      2  C   UNL     1      -0.577   6.331  -5.711  0.00  0.00    +0.074 C 
ENDROOT
BRANCH   2   3
ATOM      3  N   UNL     1      -0.887   5.441  -4.433  0.00  0.00    -0.257 NA
ATOM      4  C   UNL     1      -2.342   5.549  -4.409  0.00  0.00    +0.161 C 
ATOM      5  C   UNL     1      -2.887   5.594  -3.028  0.00  0.00    +0.264 C 
ATOM      6  O   UNL     1      -4.000   6.150  -2.826  0.00  0.00    -0.271 OA
ATOM      7  N   UNL     1      -2.051   5.121  -1.964  0.00  0.00    -0.142 NA
ATOM      8  C   UNL     1      -0.642   5.320  -2.140  0.00  0.00    +0.264 C 
ATOM      9  O   UNL     1       0.229   4.587  -1.624  0.00  0.00    -0.271 OA
ATOM     10  C   UNL     1      -0.290   6.164  -3.321  0.00  0.00    +0.161 C 
ENDBRANCH   2   3
BRANCH   2  11
ATOM     11  C   UNL     1       1.020   6.429  -5.303  0.00  0.00    +0.089 C 
BRANCH  11  12
ATOM     12  N   UNL     1       1.752   5.584  -6.155  0.00  0.00    -0.256 NA
ATOM     13  C   UNL     1       1.090   4.980  -7.252  0.00  0.00    +0.161 C 
ATOM     14  C   UNL     1       1.997   4.934  -8.449  0.00  0.00    +0.264 C 
ATOM     15  O   UNL     1       2.729   3.923  -8.682  0.00  0.00    -0.271 OA
ATOM     16  N   UNL     1       2.372   6.268  -8.843  0.00  0.00    -0.142 NA
ATOM     17  C   UNL     1       2.539   7.150  -7.715  0.00  0.00    +0.264 C 
ATOM     18  O   UNL     1       2.015   8.276  -7.624  0.00  0.00    -0.271 OA
ATOM     19  C   UNL     1       2.953   6.337  -6.521  0.00  0.00    +0.161 C 
ENDBRANCH  11  12
ENDBRANCH   2  11
TORSDOF 3
ENDMDL
MODEL 4
REMARK VINA RESULT:      -6.9      3.884      8.557
REMARK  Name = 
REMARK  3 active torsions:
REMARK  status: ('A' for Active; 'I' for Inactive)
REMARK    1  A    between atoms: C_2  and  C_3
REMARK    2  A    between atoms: C_2  and  N_12
REMARK    3  A    between atoms: C_3  and  N_4
REMARK                            x       y       z     vdW  Elec       q    Type
REMARK                         _______ _______ _______ _____ _____    ______ ____
ROOT
ATOM      1  C   UNL     1       2.919   5.021  -5.031  0.00  0.00    +0.019 C 
ATOM      2  C   UNL     1       1.428   4.579  -5.609  0.00  0.00    +0.074 C 
ENDROOT
BRANCH   2   3
ATOM      3  N   UNL     1       1.591   5.467  -6.915  0.00  0.00    -0.257 NA
ATOM      4  C   UNL     1       2.213   4.488  -7.799  0.00  0.00    +0.161 C 
ATOM      5  C   UNL     1       3.216   5.098  -8.710  0.00  0.00    +0.264 C 
ATOM      6  O   UNL     1       4.148   4.381  -9.164  0.00  0.00    -0.271 OA
ATOM      7  N   UNL     1       3.154   6.515  -8.918  0.00  0.00    -0.142 NA
ATOM      8  C   UNL     1       2.692   7.292  -7.805  0.00  0.00    +0.264 C 
ATOM      9  O   UNL     1       2.117   8.395  -7.924  0.00  0.00    -0.271 OA
ATOM     10  C   UNL     1       2.534   6.510  -6.542  0.00  0.00    +0.161 C 
ENDBRANCH   2   3
BRANCH   2  11
ATOM     11  C   UNL     1       0.704   5.826  -4.804  0.00  0.00    +0.089 C 
BRANCH  11  12
ATOM     12  N   UNL     1      -0.435   5.330  -4.145  0.00  0.00    -0.256 NA
ATOM     13  C   UNL     1      -0.556   5.528  -2.748  0.00  0.00    +0.161 C 
ATOM     14  C   UNL     1      -1.985   5.817  -2.383  0.00  0.00    +0.264 C 
ATOM     15  O   UNL     1      -2.780   4.887  -2.048  0.00  0.00    -0.271 OA
ATOM     16  N   UNL     1      -2.433   7.021  -3.037  0.00  0.00    -0.142 NA
ATOM     17  C   UNL     1      -1.871   7.173  -4.356  0.00  0.00    +0.264 C 
ATOM     18  O   UNL     1      -1.320   8.212  -4.765  0.00  0.00    -0.271 OA
ATOM     19  C   UNL     1      -1.580   5.811  -4.920  0.00  0.00    +0.161 C 
ENDBRANCH  11  12
ENDBRANCH   2  11
TORSDOF 3
ENDMDL
MODEL 5
REMARK VINA RESULT:      -6.8      4.376      6.970
REMARK  Name = 
REMARK  3 active torsions:
REMARK  status: ('A' for Active; 'I' for Inactive)
REMARK    1  A    between atoms: C_2  and  C_3
REMARK    2  A    between atoms: C_2  and  N_12
REMARK    3  A    between atoms: C_3  and  N_4
REMARK                            x       y       z     vdW  Elec       q    Type
REMARK                         _______ _______ _______ _____ _____    ______ ____
ROOT
ATOM      1  C   UNL     1      -1.145   7.746  -4.915  0.00  0.00    +0.019 C 
ATOM      2  C   UNL     1      -0.950   6.311  -5.726  0.00  0.00    +0.074 C 
ENDROOT
BRANCH   2   3
ATOM      3  N   UNL     1      -1.187   5.453  -4.411  0.00  0.00    -0.257 NA
ATOM      4  C   UNL     1      -2.630   5.615  -4.273  0.00  0.00    +0.161 C 
ATOM      5  C   UNL     1      -3.061   5.700  -2.854  0.00  0.00    +0.264 C 
ATOM      6  O   UNL     1      -4.134   6.300  -2.574  0.00  0.00    -0.271 OA
ATOM      7  N   UNL     1      -2.158   5.213  -1.851  0.00  0.00    -0.142 NA
ATOM      8  C   UNL     1      -0.762   5.357  -2.143  0.00  0.00    +0.264 C 
ATOM      9  O   UNL     1       0.121   4.601  -1.686  0.00  0.00    -0.271 OA
ATOM     10  C   UNL     1      -0.477   6.170  -3.364  0.00  0.00    +0.161 C 
ENDBRANCH   2   3
BRANCH   2  11
ATOM     11  C   UNL     1       0.680   6.339  -5.460  0.00  0.00    +0.089 C 
BRANCH  11  12
ATOM     12  N   UNL     1       1.327   6.601  -6.680  0.00  0.00    -0.256 NA
ATOM     13  C   UNL     1       2.700   6.947  -6.665  0.00  0.00    +0.161 C 
ATOM     14  C   UNL     1       3.408   6.325  -7.836  0.00  0.00    +0.264 C 
ATOM     15  O   UNL     1       3.541   6.949  -8.933  0.00  0.00    -0.271 OA
ATOM     16  N   UNL     1       3.318   4.889  -7.768  0.00  0.00    -0.142 NA
ATOM     17  C   UNL     1       2.055   4.441  -7.234  0.00  0.00    +0.264 C 
ATOM     18  O   UNL     1       1.940   3.606  -6.317  0.00  0.00    -0.271 OA
ATOM     19  C   UNL     1       1.004   5.468  -7.548  0.00  0.00    +0.161 C 
ENDBRANCH  11  12
ENDBRANCH   2  11
TORSDOF 3
ENDMDL
MODEL 6
REMARK VINA RESULT:      -6.8      4.183      6.048
REMARK  Name = 
REMARK  3 active torsions:
REMARK  status: ('A' for Active; 'I' for Inactive)
REMARK    1  A    between atoms: C_2  and  C_3
REMARK    2  A    between atoms: C_2  and  N_12
REMARK    3  A    between atoms: C_3  and  N_4
REMARK                            x       y       z     vdW  Elec       q    Type
REMARK                         _______ _______ _______ _____ _____    ______ ____
ROOT
ATOM      1  C   UNL     1      -1.319   5.273  -6.596  0.00  0.00    +0.019 C 
ATOM      2  C   UNL     1       0.104   5.192  -5.747  0.00  0.00    +0.074 C 
ENDROOT
BRANCH   2   3
ATOM      3  N   UNL     1      -0.397   6.240  -4.665  0.00  0.00    -0.257 NA
ATOM      4  C   UNL     1      -0.671   5.332  -3.556  0.00  0.00    +0.161 C 
ATOM      5  C   UNL     1      -1.851   5.748  -2.756  0.00  0.00    +0.264 C 
ATOM      6  O   UNL     1      -2.491   4.876  -2.109  0.00  0.00    -0.271 OA
ATOM      7  N   UNL     1      -2.290   7.108  -2.871  0.00  0.00    -0.142 NA
ATOM      8  C   UNL     1      -2.090   7.725  -4.150  0.00  0.00    +0.264 C 
ATOM      9  O   UNL     1      -1.936   8.955  -4.307  0.00  0.00    -0.271 OA
ATOM     10  C   UNL     1      -1.631   6.782  -5.214  0.00  0.00    +0.161 C 
ENDBRANCH   2   3
BRANCH   2  11
ATOM     11  C   UNL     1       0.763   6.397  -6.664  0.00  0.00    +0.089 C 
BRANCH  11  12
ATOM     12  N   UNL     1       1.908   5.894  -7.307  0.00  0.00    -0.256 NA
ATOM     13  C   UNL     1       2.055   4.492  -7.443  0.00  0.00    +0.161 C 
ATOM     14  C   UNL     1       2.667   4.158  -8.774  0.00  0.00    +0.264 C 
ATOM     15  O   UNL     1       3.922   4.030  -8.909  0.00  0.00    -0.271 OA
ATOM     16  N   UNL     1       1.816   4.616  -9.844  0.00  0.00    -0.142 NA
ATOM     17  C   UNL     1       1.154   5.857  -9.528  0.00  0.00    +0.264 C 
ATOM     18  O   UNL     1      -0.068   6.051  -9.661  0.00  0.00    -0.271 OA
ATOM     19  C   UNL     1       2.010   6.633  -8.566  0.00  0.00    +0.161 C 
ENDBRANCH  11  12
ENDBRANCH   2  11
TORSDOF 3
ENDMDL
MODEL 7
REMARK VINA RESULT:      -6.6      1.964      6.416
REMARK  Name = 
REMARK  3 active torsions:
REMARK  status: ('A' for Active; 'I' for Inactive)
REMARK    1  A    between atoms: C_2  and  C_3
REMARK    2  A    between atoms: C_2  and  N_12
REMARK    3  A    between atoms: C_3  and  N_4
REMARK                            x       y       z     vdW  Elec       q    Type
REMARK                         _______ _______ _______ _____ _____    ______ ____
ROOT
ATOM      1  C   UNL     1       5.429   5.345  -9.082  0.00  0.00    +0.019 C 
ATOM      2  C   UNL     1       4.091   5.438 -10.060  0.00  0.00    +0.074 C 
ENDROOT
BRANCH   2   3
ATOM      3  N   UNL     1       4.865   6.284 -11.159  0.00  0.00    -0.257 NA
ATOM      4  C   UNL     1       5.386   5.197 -11.980  0.00  0.00    +0.161 C 
ATOM      5  C   UNL     1       6.735   5.493 -12.527  0.00  0.00    +0.264 C 
ATOM      6  O   UNL     1       7.499   4.535 -12.825  0.00  0.00    -0.271 OA
ATOM      7  N   UNL     1       7.158   6.862 -12.559  0.00  0.00    -0.142 NA
ATOM      8  C   UNL     1       6.660   7.696 -11.504  0.00  0.00    +0.264 C 
ATOM      9  O   UNL     1       6.495   8.929 -11.618  0.00  0.00    -0.271 OA
ATOM     10  C   UNL     1       5.934   6.951 -10.431  0.00  0.00    +0.161 C 
ENDBRANCH   2   3
BRANCH   2  11
ATOM     11  C   UNL     1       3.585   6.815  -9.301  0.00  0.00    +0.089 C 
BRANCH  11  12
ATOM     12  N   UNL     1       2.244   6.644  -8.914  0.00  0.00    -0.256 NA
ATOM     13  C   UNL     1       1.770   5.337  -8.650  0.00  0.00    +0.161 C 
ATOM     14  C   UNL     1       0.817   5.351  -7.488  0.00  0.00    +0.264 C 
ATOM     15  O   UNL     1      -0.433   5.478  -7.663  0.00  0.00    -0.271 OA
ATOM     16  N   UNL     1       1.485   5.823  -6.302  0.00  0.00    -0.142 NA
ATOM     17  C   UNL     1       2.454   6.852  -6.587  0.00  0.00    +0.264 C 
ATOM     18  O   UNL     1       3.628   6.841  -6.172  0.00  0.00    -0.271 OA
ATOM     19  C   UNL     1       2.026   7.594  -7.822  0.00  0.00    +0.161 C 
ENDBRANCH  11  12
ENDBRANCH   2  11
TORSDOF 3
ENDMDL
MODEL 8
REMARK VINA RESULT:      -6.6      3.978      6.293
REMARK  Name = 
REMARK  3 active torsions:
REMARK  status: ('A' for Active; 'I' for Inactive)
REMARK    1  A    between atoms: C_2  and  C_3
REMARK    2  A    between atoms: C_2  and  N_12
REMARK    3  A    between atoms: C_3  and  N_4
REMARK                            x       y       z     vdW  Elec       q    Type
REMARK                         _______ _______ _______ _____ _____    ______ ____
ROOT
ATOM      1  C   UNL     1      -1.415   5.365  -6.723  0.00  0.00    +0.019 C 
ATOM      2  C   UNL     1      -0.100   5.029  -5.768  0.00  0.00    +0.074 C 
ENDROOT
BRANCH   2   3
ATOM      3  N   UNL     1      -0.491   6.147  -4.711  0.00  0.00    -0.257 NA
ATOM      4  C   UNL     1      -0.701   5.308  -3.537  0.00  0.00    +0.161 C 
ATOM      5  C   UNL     1      -1.806   5.800  -2.674  0.00  0.00    +0.264 C 
ATOM      6  O   UNL     1      -2.417   4.982  -1.934  0.00  0.00    -0.271 OA
ATOM      7  N   UNL     1      -2.218   7.164  -2.831  0.00  0.00    -0.142 NA
ATOM      8  C   UNL     1      -2.101   7.706  -4.153  0.00  0.00    +0.264 C 
ATOM      9  O   UNL     1      -1.929   8.920  -4.389  0.00  0.00    -0.271 OA
ATOM     10  C   UNL     1      -1.749   6.695  -5.195  0.00  0.00    +0.161 C 
ENDBRANCH   2   3
BRANCH   2  11
ATOM     11  C   UNL     1       0.834   6.098  -6.612  0.00  0.00    +0.089 C 
BRANCH  11  12
ATOM     12  N   UNL     1       1.768   5.373  -7.372  0.00  0.00    -0.256 NA
ATOM     13  C   UNL     1       2.642   6.077  -8.235  0.00  0.00    +0.161 C 
ATOM     14  C   UNL     1       4.006   5.447  -8.225  0.00  0.00    +0.264 C 
ATOM     15  O   UNL     1       4.326   4.556  -9.070  0.00  0.00    -0.271 OA
ATOM     16  N   UNL     1       4.567   5.493  -6.899  0.00  0.00    -0.142 NA
ATOM     17  C   UNL     1       3.571   5.319  -5.872  0.00  0.00    +0.264 C 
ATOM     18  O   UNL     1       3.444   6.069  -4.886  0.00  0.00    -0.271 OA
ATOM     19  C   UNL     1       2.446   4.488  -6.423  0.00  0.00    +0.161 C 
ENDBRANCH  11  12
ENDBRANCH   2  11
TORSDOF 3
ENDMDL
MODEL 9
REMARK VINA RESULT:      -6.4      3.903      8.244
REMARK  Name = 
REMARK  3 active torsions:
REMARK  status: ('A' for Active; 'I' for Inactive)
REMARK    1  A    between atoms: C_2  and  C_3
REMARK    2  A    between atoms: C_2  and  N_12
REMARK    3  A    between atoms: C_3  and  N_4
REMARK                            x       y       z     vdW  Elec       q    Type
REMARK                         _______ _______ _______ _____ _____    ______ ____
ROOT
ATOM      1  C   UNL     1       4.397   5.192  -5.182  0.00  0.00    +0.019 C 
ATOM      2  C   UNL     1       2.798   4.998  -4.786  0.00  0.00    +0.074 C 
ENDROOT
BRANCH   2   3
ATOM      3  N   UNL     1       2.306   5.631  -6.156  0.00  0.00    -0.257 NA
ATOM      4  C   UNL     1       2.521   4.492  -7.041  0.00  0.00    +0.161 C 
ATOM      5  C   UNL     1       2.972   4.899  -8.397  0.00  0.00    +0.264 C 
ATOM      6  O   UNL     1       3.640   4.086  -9.091  0.00  0.00    -0.271 OA
ATOM      7  N   UNL     1       2.743   6.256  -8.797  0.00  0.00    -0.142 NA
ATOM      8  C   UNL     1       2.785   7.234  -7.749  0.00  0.00    +0.264 C 
ATOM      9  O   UNL     1       2.156   8.313  -7.785  0.00  0.00    -0.271 OA
ATOM     10  C   UNL     1       3.256   6.697  -6.436  0.00  0.00    +0.161 C 
ENDBRANCH   2   3
BRANCH   2  11
ATOM     11  C   UNL     1       2.762   6.474  -4.047  0.00  0.00    +0.089 C 
BRANCH  11  12
ATOM     12  N   UNL     1       1.773   6.450  -3.048  0.00  0.00    -0.256 NA
ATOM     13  C   UNL     1       0.935   5.313  -2.943  0.00  0.00    +0.161 C 
ATOM     14  C   UNL     1       0.658   4.999  -1.499  0.00  0.00    +0.264 C 
ATOM     15  O   UNL     1      -0.361   5.470  -0.908  0.00  0.00    -0.271 OA
ATOM     16  N   UNL     1       1.887   4.704  -0.808  0.00  0.00    -0.142 NA
ATOM     17  C   UNL     1       2.992   5.500  -1.282  0.00  0.00    +0.264 C 
ATOM     18  O   UNL     1       4.099   5.035  -1.611  0.00  0.00    -0.271 OA
ATOM     19  C   UNL     1       2.460   6.805  -1.805  0.00  0.00    +0.161 C 
ENDBRANCH  11  12
ENDBRANCH   2  11
TORSDOF 3
ENDMDL
