MODEL 1
REMARK VINA RESULT:      -7.2      0.000      0.000
REMARK  Name = 
REMARK  3 active torsions:
REMARK  status: ('A' for Active; 'I' for Inactive)
REMARK    1  A    between atoms: C_2  and  C_3
REMARK    2  A    between atoms: C_5  and  O_6
REMARK    3  A    between atoms: O_6  and  C_7
REMARK                            x       y       z     vdW  Elec       q    Type
REMARK                         _______ _______ _______ _____ _____    ______ ____
ROOT
ATOM      1  C   UNL     1       1.472   6.834  -6.711  0.00  0.00    +0.185 C 
ATOM      2  C   UNL     1       2.952   6.119  -6.323  0.00  0.00    +0.215 C 
ATOM      3  O   UNL     1       2.986   6.880  -5.014  0.00  0.00    -0.218 OA
ATOM      4  C   UNL     1       2.583   4.679  -5.514  0.00  0.00    +0.221 C 
ATOM      5  O   UNL     1       2.234   3.916  -6.778  0.00  0.00    -0.217 OA
ATOM      6  C   UNL     1       0.996   4.762  -4.945  0.00  0.00    +0.254 C 
ATOM      7  O   UNL     1       1.414   5.604  -3.765  0.00  0.00    -0.213 OA
ATOM      8  C   UNL     1       0.388   6.141  -5.719  0.00  0.00    +0.322 C 
ATOM      9  O   UNL     1       0.750   5.559  -7.091  0.00  0.00    -0.316 OA
ENDROOT
BRANCH   1  11
ATOM     10  O   UNL     1       2.168   8.446  -8.003  0.00  0.00    -0.218 OA
ATOM     11  C   UNL     1       1.842   7.186  -8.273  0.00  0.00    +0.214 C 
ENDBRANCH   1  11
BRANCH   8  12
ATOM     12  O   UNL     1      -1.044   5.611  -5.730  0.00  0.00    -0.450 OA
BRANCH  12  13
ATOM     13  C   UNL     1      -2.100   6.153  -5.115  0.00  0.00    +0.142 A 
ATOM     14  C   UNL     1      -2.773   5.473  -4.101  0.00  0.00    +0.040 A 
ATOM     15  C   UNL     1      -2.911   6.020  -2.828  0.00  0.00    +0.045 A 
ATOM     16  C   UNL     1      -2.213   7.180  -2.490  0.00  0.00    +0.196 A 
ATOM     17  O   UNL     1      -2.107   7.455  -1.167  0.00  0.00    -0.287 OA
ATOM     18  C   UNL     1      -2.110   8.051  -3.555  0.00  0.00    +0.045 A 
ATOM     19  C   UNL     1      -2.063   7.531  -4.848  0.00  0.00    +0.040 A 
ENDBRANCH  12  13
ENDBRANCH   8  12
TORSDOF 3
ENDMDL
MODEL 2
REMARK VINA RESULT:      -7.2      5.235      7.826
REMARK  Name = 
REMARK  3 active torsions:
REMARK  status: ('A' for Active; 'I' for Inactive)
REMARK    1  A    between atoms: C_2  and  C_3
REMARK    2  A    between atoms: C_5  and  O_6
REMARK    3  A    between atoms: O_6  and  C_7
REMARK                            x       y       z     vdW  Elec       q    Type
REMARK                         _______ _______ _______ _____ _____    ______ ____
ROOT
ATOM      1  C   UNL     1       5.188   6.295 -12.576  0.00  0.00    +0.185 C 
ATOM      2  C   UNL     1       6.605   6.728 -13.387  0.00  0.00    +0.215 C 
ATOM      3  O   UNL     1       6.613   8.067 -12.678  0.00  0.00    -0.218 OA
ATOM      4  C   UNL     1       7.885   6.176 -12.428  0.00  0.00    +0.221 C 
ATOM      5  O   UNL     1       7.751   4.730 -12.866  0.00  0.00    -0.217 OA
ATOM      6  C   UNL     1       7.320   5.912 -10.859  0.00  0.00    +0.254 C 
ATOM      7  O   UNL     1       7.391   7.384 -10.537  0.00  0.00    -0.213 OA
ATOM      8  C   UNL     1       5.639   6.028 -11.038  0.00  0.00    +0.322 C 
ATOM      9  O   UNL     1       5.655   4.933 -12.113  0.00  0.00    -0.316 OA
ENDROOT
BRANCH   1  11
ATOM     10  O   UNL     1       4.620   4.414 -13.518  0.00  0.00    -0.218 OA
ATOM     11  C   UNL     1       4.410   5.674 -13.883  0.00  0.00    +0.214 C 
ENDBRANCH   1  11
BRANCH   8  12
ATOM     12  O   UNL     1       5.362   5.068  -9.883  0.00  0.00    -0.450 OA
BRANCH  12  13
ATOM     13  C   UNL     1       4.258   5.025  -9.130  0.00  0.00    +0.142 A 
ATOM     14  C   UNL     1       4.267   5.470  -7.809  0.00  0.00    +0.040 A 
ATOM     15  C   UNL     1       3.412   6.481  -7.378  0.00  0.00    +0.045 A 
ATOM     16  C   UNL     1       2.659   7.198  -8.308  0.00  0.00    +0.196 A 
ATOM     17  O   UNL     1       2.133   8.373  -7.879  0.00  0.00    -0.287 OA
ATOM     18  C   UNL     1       2.239   6.406  -9.355  0.00  0.00    +0.045 A 
ATOM     19  C   UNL     1       3.034   5.330  -9.747  0.00  0.00    +0.040 A 
ENDBRANCH  12  13
ENDBRANCH   8  12
TORSDOF 3
ENDMDL
MODEL 3
REMARK VINA RESULT:      -7.1      1.244      2.851
REMARK  Name = 
REMARK  3 active torsions:
REMARK  status: ('A' for Active; 'I' for Inactive)
REMARK    1  A    between atoms: C_2  and  C_3
REMARK    2  A    between atoms: C_5  and  O_6
REMARK    3  A    between atoms: O_6  and  C_7
REMARK                            x       y       z     vdW  Elec       q    Type
REMARK                         _______ _______ _______ _____ _____    ______ ____
ROOT
ATOM      1  C   UNL     1       1.764   5.410  -4.441  0.00  0.00    +0.185 C 
ATOM      2  C   UNL     1       3.175   5.152  -5.333  0.00  0.00    +0.215 C 
ATOM      3  O   UNL     1       2.485   4.059  -6.125  0.00  0.00    -0.218 OA
ATOM      4  C   UNL     1       3.096   6.204  -6.655  0.00  0.00    +0.221 C 
ATOM      5  O   UNL     1       3.499   7.431  -5.858  0.00  0.00    -0.217 OA
ATOM      6  C   UNL     1       1.494   6.687  -6.877  0.00  0.00    +0.254 C 
ATOM      7  O   UNL     1       1.153   5.393  -7.575  0.00  0.00    -0.213 OA
ATOM      8  C   UNL     1       0.734   6.132  -5.468  0.00  0.00    +0.322 C 
ATOM      9  O   UNL     1       1.726   6.914  -4.597  0.00  0.00    -0.316 OA
ENDROOT
BRANCH   1  11
ATOM     10  O   UNL     1       3.653   5.038  -3.420  0.00  0.00    -0.218 OA
ATOM     11  C   UNL     1       2.491   5.500  -2.970  0.00  0.00    +0.214 C 
ENDBRANCH   1  11
BRANCH   8  12
ATOM     12  O   UNL     1      -0.316   7.241  -5.493  0.00  0.00    -0.450 OA
BRANCH  12  13
ATOM     13  C   UNL     1      -1.575   7.157  -5.050  0.00  0.00    +0.142 A 
ATOM     14  C   UNL     1      -2.296   5.968  -5.144  0.00  0.00    +0.040 A 
ATOM     15  C   UNL     1      -2.830   5.353  -4.014  0.00  0.00    +0.045 A 
ATOM     16  C   UNL     1      -2.494   5.820  -2.744  0.00  0.00    +0.196 A 
ATOM     17  O   UNL     1      -2.751   4.983  -1.707  0.00  0.00    -0.287 OA
ATOM     18  C   UNL     1      -2.345   7.190  -2.718  0.00  0.00    +0.045 A 
ATOM     19  C   UNL     1      -1.897   7.841  -3.867  0.00  0.00    +0.040 A 
ENDBRANCH  12  13
ENDBRANCH   8  12
TORSDOF 3
ENDMDL
MODEL 4
REMARK VINA RESULT:      -7.1      1.757      5.544
REMARK  Name = 
REMARK  3 active torsions:
REMARK  status: ('A' for Active; 'I' for Inactive)
REMARK    1  A    between atoms: C_2  and  C_3
REMARK    2  A    between atoms: C_5  and  O_6
REMARK    3  A    between atoms: O_6  and  C_7
REMARK                            x       y       z     vdW  Elec       q    Type
REMARK                         _______ _______ _______ _____ _____    ______ ____
ROOT
ATOM      1  C   UNL     1      -0.511   6.375  -2.706  0.00  0.00    +0.185 C 
ATOM      2  C   UNL     1      -2.066   6.771  -2.179  0.00  0.00    +0.215 C 
ATOM      3  O   UNL     1      -2.016   8.062  -2.970  0.00  0.00    -0.218 OA
ATOM      4  C   UNL     1      -3.133   6.087  -3.300  0.00  0.00    +0.221 C 
ATOM      5  O   UNL     1      -3.006   4.681  -2.746  0.00  0.00    -0.217 OA
ATOM      6  C   UNL     1      -2.293   5.763  -4.728  0.00  0.00    +0.254 C 
ATOM      7  O   UNL     1      -2.379   7.207  -5.160  0.00  0.00    -0.213 OA
ATOM      8  C   UNL     1      -0.676   5.990  -4.276  0.00  0.00    +0.322 C 
ATOM      9  O   UNL     1      -0.824   4.962  -3.146  0.00  0.00    -0.316 OA
ENDROOT
BRANCH   1  11
ATOM     10  O   UNL     1       0.098   4.601  -1.598  0.00  0.00    -0.218 OA
ATOM     11  C   UNL     1       0.058   5.882  -1.246  0.00  0.00    +0.214 C 
ENDBRANCH   1  11
BRANCH   8  12
ATOM     12  O   UNL     1      -0.157   4.981  -5.298  0.00  0.00    -0.450 OA
BRANCH  12  13
ATOM     13  C   UNL     1       0.964   5.082  -6.020  0.00  0.00    +0.142 A 
ATOM     14  C   UNL     1       0.919   5.221  -7.407  0.00  0.00    +0.040 A 
ATOM     15  C   UNL     1       1.502   6.313  -8.045  0.00  0.00    +0.045 A 
ATOM     16  C   UNL     1       1.980   7.385  -7.291  0.00  0.00    +0.196 A 
ATOM     17  O   UNL     1       2.203   8.542  -7.964  0.00  0.00    -0.287 OA
ATOM     18  C   UNL     1       2.529   6.974  -6.095  0.00  0.00    +0.045 A 
ATOM     19  C   UNL     1       2.023   5.829  -5.480  0.00  0.00    +0.040 A 
ENDBRANCH  12  13
ENDBRANCH   8  12
TORSDOF 3
ENDMDL
MODEL 5
REMARK VINA RESULT:      -7.0      1.637      5.300
REMARK  Name = 
REMARK  3 active torsions:
REMARK  status: ('A' for Active; 'I' for Inactive)
REMARK    1  A    between atoms: C_2  and  C_3
REMARK    2  A    between atoms: C_5  and  O_6
REMARK    3  A    between atoms: O_6  and  C_7
REMARK                            x       y       z     vdW  Elec       q    Type
REMARK                         _______ _______ _______ _____ _____    ______ ____
ROOT
ATOM      1  C   UNL     1      -1.705   5.546  -4.567  0.00  0.00    +0.185 C 
ATOM      2  C   UNL     1      -2.964   5.984  -3.530  0.00  0.00    +0.215 C 
ATOM      3  O   UNL     1      -2.868   4.643  -2.832  0.00  0.00    -0.218 OA
ATOM      4  C   UNL     1      -2.241   6.759  -2.211  0.00  0.00    +0.221 C 
ATOM      5  O   UNL     1      -2.023   8.069  -2.944  0.00  0.00    -0.217 OA
ATOM      6  C   UNL     1      -0.606   6.341  -2.159  0.00  0.00    +0.254 C 
ATOM      7  O   UNL     1      -0.919   5.011  -1.519  0.00  0.00    -0.213 OA
ATOM      8  C   UNL     1      -0.365   5.572  -3.649  0.00  0.00    +0.322 C 
ATOM      9  O   UNL     1      -0.885   6.807  -4.397  0.00  0.00    -0.316 OA
ENDROOT
BRANCH   1  11
ATOM     10  O   UNL     1      -1.878   5.132  -6.700  0.00  0.00    -0.218 OA
ATOM     11  C   UNL     1      -2.408   6.093  -5.949  0.00  0.00    +0.214 C 
ENDBRANCH   1  11
BRANCH   8  12
ATOM     12  O   UNL     1       1.103   5.986  -3.725  0.00  0.00    -0.450 OA
BRANCH  12  13
ATOM     13  C   UNL     1       1.947   5.748  -4.734  0.00  0.00    +0.142 A 
ATOM     14  C   UNL     1       1.746   4.679  -5.607  0.00  0.00    +0.040 A 
ATOM     15  C   UNL     1       1.614   4.878  -6.979  0.00  0.00    +0.045 A 
ATOM     16  C   UNL     1       1.493   6.173  -7.485  0.00  0.00    +0.196 A 
ATOM     17  O   UNL     1       1.020   6.282  -8.752  0.00  0.00    -0.287 OA
ATOM     18  C   UNL     1       2.253   7.079  -6.776  0.00  0.00    +0.045 A 
ATOM     19  C   UNL     1       2.477   6.854  -5.418  0.00  0.00    +0.040 A 
ENDBRANCH  12  13
ENDBRANCH   8  12
TORSDOF 3
ENDMDL
MODEL 6
REMARK VINA RESULT:      -6.9      5.242      7.894
REMARK  Name = 
REMARK  3 active torsions:
REMARK  status: ('A' for Active; 'I' for Inactive)
REMARK    1  A    between atoms: C_2  and  C_3
REMARK    2  A    between atoms: C_5  and  O_6
REMARK    3  A    between atoms: O_6  and  C_7
REMARK                            x       y       z     vdW  Elec       q    Type
REMARK                         _______ _______ _______ _____ _____    ______ ____
ROOT
ATOM      1  C   UNL     1       6.738   5.891 -11.201  0.00  0.00    +0.185 C 
ATOM      2  C   UNL     1       7.630   6.059 -12.625  0.00  0.00    +0.215 C 
ATOM      3  O   UNL     1       7.493   4.575 -12.897  0.00  0.00    -0.218 OA
ATOM      4  C   UNL     1       6.512   6.418 -13.843  0.00  0.00    +0.221 C 
ATOM      5  O   UNL     1       6.360   7.874 -13.442  0.00  0.00    -0.217 OA
ATOM      6  C   UNL     1       4.972   5.958 -13.326  0.00  0.00    +0.254 C 
ATOM      7  O   UNL     1       5.242   4.512 -13.662  0.00  0.00    -0.213 OA
ATOM      8  C   UNL     1       5.210   5.624 -11.681  0.00  0.00    +0.322 C 
ATOM      9  O   UNL     1       5.777   7.032 -11.455  0.00  0.00    -0.316 OA
ENDROOT
BRANCH   1  11
ATOM     10  O   UNL     1       7.549   6.056  -9.184  0.00  0.00    -0.218 OA
ATOM     11  C   UNL     1       7.717   6.817 -10.260  0.00  0.00    +0.214 C 
ENDBRANCH   1  11
BRANCH   8  12
ATOM     12  O   UNL     1       3.778   6.003 -11.308  0.00  0.00    -0.450 OA
BRANCH  12  13
ATOM     13  C   UNL     1       3.100   5.592 -10.231  0.00  0.00    +0.142 A 
ATOM     14  C   UNL     1       3.759   5.084  -9.113  0.00  0.00    +0.040 A 
ATOM     15  C   UNL     1       3.601   5.660  -7.855  0.00  0.00    +0.045 A 
ATOM     16  C   UNL     1       2.924   6.873  -7.725  0.00  0.00    +0.196 A 
ATOM     17  O   UNL     1       3.109   7.544  -6.560  0.00  0.00    -0.287 OA
ATOM     18  C   UNL     1       1.876   6.979  -8.615  0.00  0.00    +0.045 A 
ATOM     19  C   UNL     1       1.972   6.335  -9.848  0.00  0.00    +0.040 A 
ENDBRANCH  12  13
ENDBRANCH   8  12
TORSDOF 3
ENDMDL
MODEL 7
REMARK VINA RESULT:      -6.9      2.218      5.674
REMARK  Name = 
REMARK  3 active torsions:
REMARK  status: ('A' for Active; 'I' for Inactive)
REMARK    1  A    between atoms: C_2  and  C_3
REMARK    2  A    between atoms: C_5  and  O_6
REMARK    3  A    between atoms: O_6  and  C_7
REMARK                            x       y       z     vdW  Elec       q    Type
REMARK                         _______ _______ _______ _____ _____    ______ ____
ROOT
ATOM      1  C   UNL     1      -1.567   5.567  -4.487  0.00  0.00    +0.185 C 
ATOM      2  C   UNL     1      -2.920   5.927  -3.543  0.00  0.00    +0.215 C 
ATOM      3  O   UNL     1      -2.801   4.587  -2.846  0.00  0.00    -0.218 OA
ATOM      4  C   UNL     1      -2.339   6.729  -2.172  0.00  0.00    +0.221 C 
ATOM      5  O   UNL     1      -2.142   8.055  -2.881  0.00  0.00    -0.217 OA
ATOM      6  C   UNL     1      -0.692   6.401  -2.002  0.00  0.00    +0.254 C 
ATOM      7  O   UNL     1      -0.977   5.051  -1.392  0.00  0.00    -0.213 OA
ATOM      8  C   UNL     1      -0.301   5.658  -3.474  0.00  0.00    +0.322 C 
ATOM      9  O   UNL     1      -0.833   6.869  -4.252  0.00  0.00    -0.316 OA
ENDROOT
BRANCH   1  11
ATOM     10  O   UNL     1      -1.581   5.145  -6.626  0.00  0.00    -0.218 OA
ATOM     11  C   UNL     1      -2.195   6.086  -5.915  0.00  0.00    +0.214 C 
ENDBRANCH   1  11
BRANCH   8  12
ATOM     12  O   UNL     1       1.143   6.154  -3.440  0.00  0.00    -0.450 OA
BRANCH  12  13
ATOM     13  C   UNL     1       2.122   5.816  -4.286  0.00  0.00    +0.142 A 
ATOM     14  C   UNL     1       2.555   6.695  -5.278  0.00  0.00    +0.040 A 
ATOM     15  C   UNL     1       3.883   7.105  -5.354  0.00  0.00    +0.045 A 
ATOM     16  C   UNL     1       4.768   6.790  -4.323  0.00  0.00    +0.196 A 
ATOM     17  O   UNL     1       5.922   7.502  -4.281  0.00  0.00    -0.287 OA
ATOM     18  C   UNL     1       4.511   5.548  -3.781  0.00  0.00    +0.045 A 
ATOM     19  C   UNL     1       3.199   5.074  -3.776  0.00  0.00    +0.040 A 
ENDBRANCH  12  13
ENDBRANCH   8  12
TORSDOF 3
ENDMDL
MODEL 8
REMARK VINA RESULT:      -6.9      4.007      7.995
REMARK  Name = 
REMARK  3 active torsions:
REMARK  status: ('A' for Active; 'I' for Inactive)
REMARK    1  A    between atoms: C_2  and  C_3
REMARK    2  A    between atoms: C_5  and  O_6
REMARK    3  A    between atoms: O_6  and  C_7
REMARK                            x       y       z     vdW  Elec       q    Type
REMARK                         _______ _______ _______ _____ _____    ______ ____
ROOT
ATOM      1  C   UNL     1       3.510   6.533  -6.577  0.00  0.00    +0.185 C 
ATOM      2  C   UNL     1       1.947   6.062  -6.145  0.00  0.00    +0.215 C 
ATOM      3  O   UNL     1       1.369   7.192  -6.972  0.00  0.00    -0.218 OA
ATOM      4  C   UNL     1       1.461   4.925  -7.300  0.00  0.00    +0.221 C 
ATOM      5  O   UNL     1       2.264   3.788  -6.696  0.00  0.00    -0.217 OA
ATOM      6  C   UNL     1       2.433   5.086  -8.670  0.00  0.00    +0.254 C 
ATOM      7  O   UNL     1       1.638   6.275  -9.151  0.00  0.00    -0.213 OA
ATOM      8  C   UNL     1       3.666   6.119  -8.140  0.00  0.00    +0.322 C 
ATOM      9  O   UNL     1       4.003   5.162  -6.988  0.00  0.00    -0.316 OA
ENDROOT
BRANCH   1  11
ATOM     10  O   UNL     1       4.221   7.720  -4.893  0.00  0.00    -0.218 OA
ATOM     11  C   UNL     1       4.162   6.405  -5.074  0.00  0.00    +0.214 C 
ENDBRANCH   1  11
BRANCH   8  12
ATOM     12  O   UNL     1       4.695   5.527  -9.101  0.00  0.00    -0.450 OA
BRANCH  12  13
ATOM     13  C   UNL     1       5.649   6.195  -9.757  0.00  0.00    +0.142 A 
ATOM     14  C   UNL     1       6.991   5.835  -9.644  0.00  0.00    +0.040 A 
ATOM     15  C   UNL     1       7.746   5.491 -10.763  0.00  0.00    +0.045 A 
ATOM     16  C   UNL     1       7.121   5.321 -11.998  0.00  0.00    +0.196 A 
ATOM     17  O   UNL     1       7.829   4.656 -12.945  0.00  0.00    -0.287 OA
ATOM     18  C   UNL     1       6.076   6.203 -12.176  0.00  0.00    +0.045 A 
ATOM     19  C   UNL     1       5.361   6.634 -11.060  0.00  0.00    +0.040 A 
ENDBRANCH  12  13
ENDBRANCH   8  12
TORSDOF 3
ENDMDL
MODEL 9
REMARK VINA RESULT:      -6.8      1.944      2.698
REMARK  Name = 
REMARK  3 active torsions:
REMARK  status: ('A' for Active; 'I' for Inactive)
REMARK    1  A    between atoms: C_2  and  C_3
REMARK    2  A    between atoms: C_5  and  O_6
REMARK    3  A    between atoms: O_6  and  C_7
REMARK                            x       y       z     vdW  Elec       q    Type
REMARK                         _______ _______ _______ _____ _____    ______ ____
ROOT
ATOM      1  C   UNL     1       1.270   6.286  -9.033  0.00  0.00    +0.185 C 
ATOM      2  C   UNL     1       2.713   5.714  -9.698  0.00  0.00    +0.215 C 
ATOM      3  O   UNL     1       3.425   6.978  -9.264  0.00  0.00    -0.218 OA
ATOM      4  C   UNL     1       3.476   4.826  -8.477  0.00  0.00    +0.221 C 
ATOM      5  O   UNL     1       2.593   3.603  -8.646  0.00  0.00    -0.217 OA
ATOM      6  C   UNL     1       2.826   5.276  -6.985  0.00  0.00    +0.254 C 
ATOM      7  O   UNL     1       3.671   6.525  -6.942  0.00  0.00    -0.213 OA
ATOM      8  C   UNL     1       1.475   6.200  -7.424  0.00  0.00    +0.322 C 
ATOM      9  O   UNL     1       0.921   5.035  -8.256  0.00  0.00    -0.316 OA
ENDROOT
BRANCH   1  11
ATOM     10  O   UNL     1       0.310   7.090 -10.817  0.00  0.00    -0.218 OA
ATOM     11  C   UNL     1       0.306   5.868 -10.297  0.00  0.00    +0.214 C 
ENDBRANCH   1  11
BRANCH   8  12
ATOM     12  O   UNL     1       0.703   5.831  -6.160  0.00  0.00    -0.450 OA
BRANCH  12  13
ATOM     13  C   UNL     1      -0.431   6.392  -5.726  0.00  0.00    +0.142 A 
ATOM     14  C   UNL     1      -1.673   5.836  -6.027  0.00  0.00    +0.040 A 
ATOM     15  C   UNL     1      -2.559   5.454  -5.023  0.00  0.00    +0.045 A 
ATOM     16  C   UNL     1      -2.142   5.448  -3.692  0.00  0.00    +0.196 A 
ATOM     17  O   UNL     1      -2.909   4.745  -2.823  0.00  0.00    -0.287 OA
ATOM     18  C   UNL     1      -1.269   6.481  -3.419  0.00  0.00    +0.045 A 
ATOM     19  C   UNL     1      -0.434   6.944  -4.435  0.00  0.00    +0.040 A 
ENDBRANCH  12  13
ENDBRANCH   8  12
TORSDOF 3
ENDMDL
