MODEL 1
REMARK VINA RESULT:      -4.1      0.000      0.000
REMARK  Name = 
REMARK  4 active torsions:
REMARK  status: ('A' for Active; 'I' for Inactive)
REMARK    1  A    between atoms: C_2  and  O_4
REMARK    2  A    between atoms: O_4  and  C_5
REMARK    3  A    between atoms: C_5  and  C_6
REMARK    4  A    between atoms: C_6  and  N_7
REMARK                            x       y       z     vdW  Elec       q    Type
REMARK                         _______ _______ _______ _____ _____    ______ ____
ROOT
ATOM      1  C   UNL     1       6.179   5.742 -10.354  0.00  0.00    +0.269 C 
ENDROOT
BRANCH   1   2
ATOM      2  O   UNL     1       7.577   5.519 -10.507  0.00  0.00    -0.442 OA
BRANCH   2   4
ATOM      3  C   UNL     1       9.312   5.930 -12.287  0.00  0.00    +0.121 C 
ATOM      4  C   UNL     1       8.079   5.285 -11.789  0.00  0.00    +0.318 C 
ATOM      5  O   UNL     1       7.284   4.676 -12.561  0.00  0.00    -0.250 OA
ENDBRANCH   2   4
ENDBRANCH   1   2
BRANCH   1   6
ATOM      6  C   UNL     1       5.835   5.344  -8.945  0.00  0.00    +0.157 C 
BRANCH   6   7
ATOM      7  N   UNL     1       4.427   5.422  -8.650  0.00  0.00    +0.313 N 
ATOM      8  C   UNL     1       3.688   4.245  -9.021  0.00  0.00    +0.171 C 
ATOM      9  C   UNL     1       3.893   6.515  -9.462  0.00  0.00    +0.171 C 
ATOM     10  C   UNL     1       4.180   5.792  -7.260  0.00  0.00    +0.171 C 
ENDBRANCH   6   7
ENDBRANCH   1   6
TORSDOF 4
ENDMDL
MODEL 2
REMARK VINA RESULT:      -4.1      1.996      2.753
REMARK  Name = 
REMARK  4 active torsions:
REMARK  status: ('A' for Active; 'I' for Inactive)
REMARK    1  A    between atoms: C_2  and  O_4
REMARK    2  A    between atoms: O_4  and  C_5
REMARK    3  A    between atoms: C_5  and  C_6
REMARK    4  A    between atoms: C_6  and  N_7
REMARK                            x       y       z     vdW  Elec       q    Type
REMARK                         _______ _______ _______ _____ _____    ______ ____
ROOT
ATOM      1  C   UNL     1       4.589   5.744 -12.744  0.00  0.00    +0.269 C 
ENDROOT
BRANCH   1   2
ATOM      2  O   UNL     1       5.542   4.897 -13.380  0.00  0.00    -0.442 OA
BRANCH   2   4
ATOM      3  C   UNL     1       7.115   6.452 -14.586  0.00  0.00    +0.121 C 
ATOM      4  C   UNL     1       6.831   5.389 -13.598  0.00  0.00    +0.318 C 
ATOM      5  O   UNL     1       7.751   4.704 -13.069  0.00  0.00    -0.250 OA
ENDBRANCH   2   4
ENDBRANCH   1   2
BRANCH   1   6
ATOM      6  C   UNL     1       4.504   5.289 -11.312  0.00  0.00    +0.157 C 
BRANCH   6   7
ATOM      7  N   UNL     1       4.895   6.299 -10.362  0.00  0.00    +0.313 N 
ATOM      8  C   UNL     1       5.421   7.495 -10.965  0.00  0.00    +0.171 C 
ATOM      9  C   UNL     1       5.984   5.725  -9.571  0.00  0.00    +0.171 C 
ATOM     10  C   UNL     1       3.826   6.603  -9.416  0.00  0.00    +0.171 C 
ENDBRANCH   6   7
ENDBRANCH   1   6
TORSDOF 4
ENDMDL
MODEL 3
REMARK VINA RESULT:      -4.0      8.059     10.152
REMARK  Name = 
REMARK  4 active torsions:
REMARK  status: ('A' for Active; 'I' for Inactive)
REMARK    1  A    between atoms: C_2  and  O_4
REMARK    2  A    between atoms: O_4  and  C_5
REMARK    3  A    between atoms: C_5  and  C_6
REMARK    4  A    between atoms: C_6  and  N_7
REMARK                            x       y       z     vdW  Elec       q    Type
REMARK                         _______ _______ _______ _____ _____    ______ ____
ROOT
ATOM      1  C   UNL     1      -1.546   6.647  -4.938  0.00  0.00    +0.269 C 
ENDROOT
BRANCH   1   2
ATOM      2  O   UNL     1      -2.728   5.968  -4.525  0.00  0.00    -0.442 OA
BRANCH   2   4
ATOM      3  C   UNL     1      -2.985   6.880  -2.190  0.00  0.00    +0.121 C 
ATOM      4  C   UNL     1      -2.937   5.764  -3.159  0.00  0.00    +0.318 C 
ATOM      5  O   UNL     1      -2.845   4.559  -2.788  0.00  0.00    -0.250 OA
ENDBRANCH   2   4
ENDBRANCH   1   2
BRANCH   1   6
ATOM      6  C   UNL     1      -0.766   5.672  -5.777  0.00  0.00    +0.157 C 
BRANCH   6   7
ATOM      7  N   UNL     1       0.571   5.438  -5.296  0.00  0.00    +0.313 N 
ATOM      8  C   UNL     1       0.665   5.322  -3.865  0.00  0.00    +0.171 C 
ATOM      9  C   UNL     1       1.356   6.616  -5.665  0.00  0.00    +0.171 C 
ATOM     10  C   UNL     1       1.203   4.305  -5.966  0.00  0.00    +0.171 C 
ENDBRANCH   6   7
ENDBRANCH   1   6
TORSDOF 4
ENDMDL
MODEL 4
REMARK VINA RESULT:      -4.0      1.311      1.505
REMARK  Name = 
REMARK  4 active torsions:
REMARK  status: ('A' for Active; 'I' for Inactive)
REMARK    1  A    between atoms: C_2  and  O_4
REMARK    2  A    between atoms: O_4  and  C_5
REMARK    3  A    between atoms: C_5  and  C_6
REMARK    4  A    between atoms: C_6  and  N_7
REMARK                            x       y       z     vdW  Elec       q    Type
REMARK                         _______ _______ _______ _____ _____    ______ ____
ROOT
ATOM      1  C   UNL     1       5.275   6.518 -11.267  0.00  0.00    +0.269 C 
ENDROOT
BRANCH   1   2
ATOM      2  O   UNL     1       5.988   6.094 -12.425  0.00  0.00    -0.442 OA
BRANCH   2   4
ATOM      3  C   UNL     1       8.224   5.972 -11.269  0.00  0.00    +0.121 C 
ATOM      4  C   UNL     1       7.235   5.487 -12.255  0.00  0.00    +0.318 C 
ATOM      5  O   UNL     1       7.541   4.655 -13.156  0.00  0.00    -0.250 OA
ENDBRANCH   2   4
ENDBRANCH   1   2
BRANCH   1   6
ATOM      6  C   UNL     1       4.482   5.329 -10.796  0.00  0.00    +0.157 C 
BRANCH   6   7
ATOM      7  N   UNL     1       4.297   5.287  -9.368  0.00  0.00    +0.313 N 
ATOM      8  C   UNL     1       3.471   4.198  -8.920  0.00  0.00    +0.171 C 
ATOM      9  C   UNL     1       3.591   6.515  -9.005  0.00  0.00    +0.171 C 
ATOM     10  C   UNL     1       5.568   5.324  -8.651  0.00  0.00    +0.171 C 
ENDBRANCH   6   7
ENDBRANCH   1   6
TORSDOF 4
ENDMDL
MODEL 5
REMARK VINA RESULT:      -4.0      1.649      2.158
REMARK  Name = 
REMARK  4 active torsions:
REMARK  status: ('A' for Active; 'I' for Inactive)
REMARK    1  A    between atoms: C_2  and  O_4
REMARK    2  A    between atoms: O_4  and  C_5
REMARK    3  A    between atoms: C_5  and  C_6
REMARK    4  A    between atoms: C_6  and  N_7
REMARK                            x       y       z     vdW  Elec       q    Type
REMARK                         _______ _______ _______ _____ _____    ______ ____
ROOT
ATOM      1  C   UNL     1       7.256   6.793 -10.849  0.00  0.00    +0.269 C 
ENDROOT
BRANCH   1   2
ATOM      2  O   UNL     1       7.746   6.803 -12.187  0.00  0.00    -0.442 OA
BRANCH   2   4
ATOM      3  C   UNL     1       6.846   5.729 -14.281  0.00  0.00    +0.121 C 
ATOM      4  C   UNL     1       7.544   5.670 -12.979  0.00  0.00    +0.318 C 
ATOM      5  O   UNL     1       7.787   4.574 -12.399  0.00  0.00    -0.250 OA
ENDBRANCH   2   4
ENDBRANCH   1   2
BRANCH   1   6
ATOM      6  C   UNL     1       5.796   7.145 -10.927  0.00  0.00    +0.157 C 
BRANCH   6   7
ATOM      7  N   UNL     1       4.946   6.248 -10.187  0.00  0.00    +0.313 N 
ATOM      8  C   UNL     1       5.645   5.457  -9.209  0.00  0.00    +0.171 C 
ATOM      9  C   UNL     1       4.393   5.305 -11.158  0.00  0.00    +0.171 C 
ATOM     10  C   UNL     1       3.803   6.939  -9.598  0.00  0.00    +0.171 C 
ENDBRANCH   6   7
ENDBRANCH   1   6
TORSDOF 4
ENDMDL
MODEL 6
REMARK VINA RESULT:      -3.9      1.474      1.758
REMARK  Name = 
REMARK  4 active torsions:
REMARK  status: ('A' for Active; 'I' for Inactive)
REMARK    1  A    between atoms: C_2  and  O_4
REMARK    2  A    between atoms: O_4  and  C_5
REMARK    3  A    between atoms: C_5  and  C_6
REMARK    4  A    between atoms: C_6  and  N_7
REMARK                            x       y       z     vdW  Elec       q    Type
REMARK                         _______ _______ _______ _____ _____    ______ ____
ROOT
ATOM      1  C   UNL     1       4.981   6.038 -11.098  0.00  0.00    +0.269 C 
ENDROOT
BRANCH   1   2
ATOM      2  O   UNL     1       5.734   5.225 -11.994  0.00  0.00    -0.442 OA
BRANCH   2   4
ATOM      3  C   UNL     1       7.819   6.478 -11.339  0.00  0.00    +0.121 C 
ATOM      4  C   UNL     1       7.124   5.356 -12.005  0.00  0.00    +0.318 C 
ATOM      5  O   UNL     1       7.717   4.587 -12.814  0.00  0.00    -0.250 OA
ENDBRANCH   2   4
ENDBRANCH   1   2
BRANCH   1   6
ATOM      6  C   UNL     1       4.663   5.177  -9.906  0.00  0.00    +0.157 C 
BRANCH   6   7
ATOM      7  N   UNL     1       3.289   5.264  -9.482  0.00  0.00    +0.313 N 
ATOM      8  C   UNL     1       2.372   5.592 -10.541  0.00  0.00    +0.171 C 
ATOM      9  C   UNL     1       3.220   6.366  -8.523  0.00  0.00    +0.171 C 
ATOM     10  C   UNL     1       2.864   4.070  -8.758  0.00  0.00    +0.171 C 
ENDBRANCH   6   7
ENDBRANCH   1   6
TORSDOF 4
ENDMDL
MODEL 7
REMARK VINA RESULT:      -3.9      8.024     10.166
REMARK  Name = 
REMARK  4 active torsions:
REMARK  status: ('A' for Active; 'I' for Inactive)
REMARK    1  A    between atoms: C_2  and  O_4
REMARK    2  A    between atoms: O_4  and  C_5
REMARK    3  A    between atoms: C_5  and  C_6
REMARK    4  A    between atoms: C_6  and  N_7
REMARK                            x       y       z     vdW  Elec       q    Type
REMARK                         _______ _______ _______ _____ _____    ______ ____
ROOT
ATOM      1  C   UNL     1       0.294   5.559  -2.428  0.00  0.00    +0.269 C 
ENDROOT
BRANCH   1   2
ATOM      2  O   UNL     1      -0.908   5.012  -1.893  0.00  0.00    -0.442 OA
BRANCH   2   4
ATOM      3  C   UNL     1      -2.551   6.911  -2.100  0.00  0.00    +0.121 C 
ATOM      4  C   UNL     1      -2.130   5.515  -2.347  0.00  0.00    +0.318 C 
ATOM      5  O   UNL     1      -2.935   4.637  -2.769  0.00  0.00    -0.250 OA
ENDBRANCH   2   4
ENDBRANCH   1   2
BRANCH   1   6
ATOM      6  C   UNL     1       0.345   5.142  -3.872  0.00  0.00    +0.157 C 
BRANCH   6   7
ATOM      7  N   UNL     1       1.123   6.027  -4.701  0.00  0.00    +0.313 N 
ATOM      8  C   UNL     1       0.330   6.911  -5.514  0.00  0.00    +0.171 C 
ATOM      9  C   UNL     1       1.870   5.177  -5.628  0.00  0.00    +0.171 C 
ATOM     10  C   UNL     1       2.121   6.761  -3.931  0.00  0.00    +0.171 C 
ENDBRANCH   6   7
ENDBRANCH   1   6
TORSDOF 4
ENDMDL
MODEL 8
REMARK VINA RESULT:      -3.8      6.046      7.699
REMARK  Name = 
REMARK  4 active torsions:
REMARK  status: ('A' for Active; 'I' for Inactive)
REMARK    1  A    between atoms: C_2  and  O_4
REMARK    2  A    between atoms: O_4  and  C_5
REMARK    3  A    between atoms: C_5  and  C_6
REMARK    4  A    between atoms: C_6  and  N_7
REMARK                            x       y       z     vdW  Elec       q    Type
REMARK                         _______ _______ _______ _____ _____    ______ ____
ROOT
ATOM      1  C   UNL     1       0.416   6.883  -5.266  0.00  0.00    +0.269 C 
ENDROOT
BRANCH   1   2
ATOM      2  O   UNL     1       0.890   6.735  -6.602  0.00  0.00    -0.442 OA
BRANCH   2   4
ATOM      3  C   UNL     1       3.360   6.965  -6.164  0.00  0.00    +0.121 C 
ATOM      4  C   UNL     1       2.135   7.276  -6.931  0.00  0.00    +0.318 C 
ATOM      5  O   UNL     1       2.093   8.220  -7.771  0.00  0.00    -0.250 OA
ENDBRANCH   2   4
ENDBRANCH   1   2
BRANCH   1   6
ATOM      6  C   UNL     1      -0.481   5.704  -5.000  0.00  0.00    +0.157 C 
BRANCH   6   7
ATOM      7  N   UNL     1      -1.884   6.029  -5.025  0.00  0.00    +0.313 N 
ATOM      8  C   UNL     1      -2.521   5.764  -6.288  0.00  0.00    +0.171 C 
ATOM      9  C   UNL     1      -1.979   7.473  -4.812  0.00  0.00    +0.171 C 
ATOM     10  C   UNL     1      -2.608   5.408  -3.921  0.00  0.00    +0.171 C 
ENDBRANCH   6   7
ENDBRANCH   1   6
TORSDOF 4
ENDMDL
MODEL 9
REMARK VINA RESULT:      -3.7      7.350      9.416
REMARK  Name = 
REMARK  4 active torsions:
REMARK  status: ('A' for Active; 'I' for Inactive)
REMARK    1  A    between atoms: C_2  and  O_4
REMARK    2  A    between atoms: O_4  and  C_5
REMARK    3  A    between atoms: C_5  and  C_6
REMARK    4  A    between atoms: C_6  and  N_7
REMARK                            x       y       z     vdW  Elec       q    Type
REMARK                         _______ _______ _______ _____ _____    ______ ____
ROOT
ATOM      1  C   UNL     1       0.503   5.337  -3.215  0.00  0.00    +0.269 C 
ENDROOT
BRANCH   1   2
ATOM      2  O   UNL     1      -0.743   5.942  -2.883  0.00  0.00    -0.442 OA
BRANCH   2   4
ATOM      3  C   UNL     1      -2.451   5.790  -4.730  0.00  0.00    +0.121 C 
ATOM      4  C   UNL     1      -1.913   5.391  -3.411  0.00  0.00    +0.318 C 
ATOM      5  O   UNL     1      -2.594   4.715  -2.588  0.00  0.00    -0.250 OA
ENDBRANCH   2   4
ENDBRANCH   1   2
BRANCH   1   6
ATOM      6  C   UNL     1       1.274   6.358  -4.007  0.00  0.00    +0.157 C 
BRANCH   6   7
ATOM      7  N   UNL     1       1.624   5.916  -5.332  0.00  0.00    +0.313 N 
ATOM      8  C   UNL     1       3.020   6.065  -5.647  0.00  0.00    +0.171 C 
ATOM      9  C   UNL     1       0.899   6.782  -6.262  0.00  0.00    +0.171 C 
ATOM     10  C   UNL     1       1.158   4.559  -5.597  0.00  0.00    +0.171 C 
ENDBRANCH   6   7
ENDBRANCH   1   6
TORSDOF 4
ENDMDL
