MODEL 1
REMARK VINA RESULT:      -5.4      0.000      0.000
REMARK  Name = 
REMARK  11 active torsions:
REMARK  status: ('A' for Active; 'I' for Inactive)
REMARK    1  A    between atoms: N_2  and  C_5
REMARK    2  A    between atoms: C_5  and  C_6
REMARK    3  A    between atoms: C_6  and  O_7
REMARK    4  A    between atoms: O_7  and  C_8
REMARK    5  A    between atoms: C_8  and  C_10
REMARK    6  A    between atoms: C_10  and  C_11
REMARK    7  A    between atoms: C_11  and  C_12
REMARK    8  A    between atoms: C_12  and  O_14
REMARK    9  A    between atoms: O_14  and  C_15
REMARK   10  A    between atoms: C_15  and  C_16
REMARK   11  A    between atoms: C_16  and  N_17
REMARK                            x       y       z     vdW  Elec       q    Type
REMARK                         _______ _______ _______ _____ _____    ______ ____
ROOT
ATOM      1  C   UNL     1      -2.646   6.903  -4.569  0.00  0.00    +0.121 C 
ENDROOT
BRANCH   1   2
ATOM      2  C   UNL     1      -1.926   6.228  -5.677  0.00  0.00    +0.318 C 
ATOM      3  O   UNL     1      -2.573   5.338  -6.306  0.00  0.00    -0.250 OA
BRANCH   2   4
ATOM      4  O   UNL     1      -0.530   6.259  -5.723  0.00  0.00    -0.442 OA
BRANCH   4   5
ATOM      5  C   UNL     1       0.091   5.060  -6.182  0.00  0.00    +0.269 C 
BRANCH   5   6
ATOM      6  C   UNL     1       0.843   5.355  -7.453  0.00  0.00    +0.157 C 
BRANCH   6   8
ATOM      7  C   UNL     1       3.141   5.789  -7.206  0.00  0.00    +0.171 C 
ATOM      8  N   UNL     1       2.162   4.738  -7.349  0.00  0.00    +0.313 N 
ATOM      9  C   UNL     1       2.247   3.825  -6.237  0.00  0.00    +0.171 C 
ATOM     10  C   UNL     1       2.460   4.054  -8.605  0.00  0.00    +0.171 C 
ENDBRANCH   6   8
ENDBRANCH   5   6
ENDBRANCH   4   5
ENDBRANCH   2   4
ENDBRANCH   1   2
BRANCH   1  11
ATOM     11  C   UNL     1      -1.766   6.813  -3.342  0.00  0.00    +0.121 C 
BRANCH  11  12
ATOM     12  C   UNL     1      -1.862   5.460  -2.712  0.00  0.00    +0.318 C 
ATOM     13  O   UNL     1      -2.949   4.807  -2.721  0.00  0.00    -0.250 OA
BRANCH  12  14
ATOM     14  O   UNL     1      -0.847   4.923  -1.930  0.00  0.00    -0.442 OA
BRANCH  14  15
ATOM     15  C   UNL     1       0.522   5.068  -2.286  0.00  0.00    +0.269 C 
BRANCH  15  16
ATOM     16  C   UNL     1       1.444   4.915  -1.108  0.00  0.00    +0.157 C 
BRANCH  16  17
ATOM     17  N   UNL     1       2.737   5.457  -1.511  0.00  0.00    +0.313 N 
ATOM     18  C   UNL     1       3.826   4.550  -1.159  0.00  0.00    +0.171 C 
ATOM     19  C   UNL     1       2.991   6.698  -0.784  0.00  0.00    +0.171 C 
ATOM     20  C   UNL     1       2.735   5.698  -2.942  0.00  0.00    +0.171 C 
ENDBRANCH  16  17
ENDBRANCH  15  16
ENDBRANCH  14  15
ENDBRANCH  12  14
ENDBRANCH  11  12
ENDBRANCH   1  11
TORSDOF 11
ENDMDL
MODEL 2
REMARK VINA RESULT:      -5.2      0.846      4.649
REMARK  Name = 
REMARK  11 active torsions:
REMARK  status: ('A' for Active; 'I' for Inactive)
REMARK    1  A    between atoms: N_2  and  C_5
REMARK    2  A    between atoms: C_5  and  C_6
REMARK    3  A    between atoms: C_6  and  O_7
REMARK    4  A    between atoms: O_7  and  C_8
REMARK    5  A    between atoms: C_8  and  C_10
REMARK    6  A    between atoms: C_10  and  C_11
REMARK    7  A    between atoms: C_11  and  C_12
REMARK    8  A    between atoms: C_12  and  O_14
REMARK    9  A    between atoms: O_14  and  C_15
REMARK   10  A    between atoms: C_15  and  C_16
REMARK   11  A    between atoms: C_16  and  N_17
REMARK                            x       y       z     vdW  Elec       q    Type
REMARK                         _______ _______ _______ _____ _____    ______ ____
ROOT
ATOM      1  C   UNL     1      -1.664   6.736  -3.361  0.00  0.00    +0.121 C 
ENDROOT
BRANCH   1   2
ATOM      2  C   UNL     1      -1.625   5.364  -2.799  0.00  0.00    +0.318 C 
ATOM      3  O   UNL     1      -2.737   4.872  -2.444  0.00  0.00    -0.250 OA
BRANCH   2   4
ATOM      4  O   UNL     1      -0.426   4.849  -2.298  0.00  0.00    -0.442 OA
BRANCH   4   5
ATOM      5  C   UNL     1       0.753   5.277  -2.979  0.00  0.00    +0.269 C 
BRANCH   5   6
ATOM      6  C   UNL     1       1.808   5.614  -1.959  0.00  0.00    +0.157 C 
BRANCH   6   8
ATOM      7  C   UNL     1       3.633   7.089  -1.803  0.00  0.00    +0.171 C 
ATOM      8  N   UNL     1       2.967   6.146  -2.670  0.00  0.00    +0.313 N 
ATOM      9  C   UNL     1       3.882   5.107  -3.070  0.00  0.00    +0.171 C 
ATOM     10  C   UNL     1       2.500   6.900  -3.830  0.00  0.00    +0.171 C 
ENDBRANCH   6   8
ENDBRANCH   5   6
ENDBRANCH   4   5
ENDBRANCH   2   4
ENDBRANCH   1   2
BRANCH   1  11
ATOM     11  C   UNL     1      -2.589   6.704  -4.558  0.00  0.00    +0.121 C 
BRANCH  11  12
ATOM     12  C   UNL     1      -1.921   6.067  -5.735  0.00  0.00    +0.318 C 
ATOM     13  O   UNL     1      -2.516   5.190  -6.431  0.00  0.00    -0.250 OA
BRANCH  12  14
ATOM     14  O   UNL     1      -0.575   6.251  -6.023  0.00  0.00    -0.442 OA
BRANCH  14  15
ATOM     15  C   UNL     1       0.068   5.530  -7.066  0.00  0.00    +0.269 C 
BRANCH  15  16
ATOM     16  C   UNL     1       1.448   6.047  -7.359  0.00  0.00    +0.157 C 
BRANCH  16  17
ATOM     17  N   UNL     1       2.343   4.895  -7.347  0.00  0.00    +0.313 N 
ATOM     18  C   UNL     1       1.983   3.954  -6.289  0.00  0.00    +0.171 C 
ATOM     19  C   UNL     1       3.703   5.338  -7.051  0.00  0.00    +0.171 C 
ATOM     20  C   UNL     1       2.295   4.233  -8.638  0.00  0.00    +0.171 C 
ENDBRANCH  16  17
ENDBRANCH  15  16
ENDBRANCH  14  15
ENDBRANCH  12  14
ENDBRANCH  11  12
ENDBRANCH   1  11
TORSDOF 11
ENDMDL
MODEL 3
REMARK VINA RESULT:      -5.2      5.787      8.935
REMARK  Name = 
REMARK  11 active torsions:
REMARK  status: ('A' for Active; 'I' for Inactive)
REMARK    1  A    between atoms: N_2  and  C_5
REMARK    2  A    between atoms: C_5  and  C_6
REMARK    3  A    between atoms: C_6  and  O_7
REMARK    4  A    between atoms: O_7  and  C_8
REMARK    5  A    between atoms: C_8  and  C_10
REMARK    6  A    between atoms: C_10  and  C_11
REMARK    7  A    between atoms: C_11  and  C_12
REMARK    8  A    between atoms: C_12  and  O_14
REMARK    9  A    between atoms: O_14  and  C_15
REMARK   10  A    between atoms: C_15  and  C_16
REMARK   11  A    between atoms: C_16  and  N_17
REMARK                            x       y       z     vdW  Elec       q    Type
REMARK                         _______ _______ _______ _____ _____    ______ ____
ROOT
ATOM      1  C   UNL     1       7.806   6.517 -11.952  0.00  0.00    +0.121 C 
ENDROOT
BRANCH   1   2
ATOM      2  C   UNL     1       6.890   5.701 -12.784  0.00  0.00    +0.318 C 
ATOM      3  O   UNL     1       7.402   4.694 -13.359  0.00  0.00    -0.250 OA
BRANCH   2   4
ATOM      4  O   UNL     1       5.690   6.250 -13.245  0.00  0.00    -0.442 OA
BRANCH   4   5
ATOM      5  C   UNL     1       4.549   5.402 -13.130  0.00  0.00    +0.269 C 
BRANCH   5   6
ATOM      6  C   UNL     1       3.547   5.788 -14.186  0.00  0.00    +0.157 C 
BRANCH   6   8
ATOM      7  C   UNL     1       1.465   6.869 -14.022  0.00  0.00    +0.171 C 
ATOM      8  N   UNL     1       2.216   5.714 -13.591  0.00  0.00    +0.313 N 
ATOM      9  C   UNL     1       1.523   4.505 -13.962  0.00  0.00    +0.171 C 
ATOM     10  C   UNL     1       2.343   5.812 -12.140  0.00  0.00    +0.171 C 
ENDBRANCH   6   8
ENDBRANCH   5   6
ENDBRANCH   4   5
ENDBRANCH   2   4
ENDBRANCH   1   2
BRANCH   1  11
ATOM     11  C   UNL     1       6.966   7.196 -10.893  0.00  0.00    +0.121 C 
BRANCH  11  12
ATOM     12  C   UNL     1       6.535   6.219  -9.845  0.00  0.00    +0.318 C 
ATOM     13  O   UNL     1       7.365   5.427  -9.304  0.00  0.00    -0.250 OA
BRANCH  12  14
ATOM     14  O   UNL     1       5.200   5.990  -9.538  0.00  0.00    -0.442 OA
BRANCH  14  15
ATOM     15  C   UNL     1       4.806   4.937  -8.669  0.00  0.00    +0.269 C 
BRANCH  15  16
ATOM     16  C   UNL     1       3.999   5.425  -7.498  0.00  0.00    +0.157 C 
BRANCH  16  17
ATOM     17  N   UNL     1       2.685   4.799  -7.601  0.00  0.00    +0.313 N 
ATOM     18  C   UNL     1       2.670   3.761  -8.628  0.00  0.00    +0.171 C 
ATOM     19  C   UNL     1       1.703   5.797  -8.017  0.00  0.00    +0.171 C 
ATOM     20  C   UNL     1       2.318   4.232  -6.316  0.00  0.00    +0.171 C 
ENDBRANCH  16  17
ENDBRANCH  15  16
ENDBRANCH  14  15
ENDBRANCH  12  14
ENDBRANCH  11  12
ENDBRANCH   1  11
TORSDOF 11
ENDMDL
MODEL 4
REMARK VINA RESULT:      -5.2      3.324      5.436
REMARK  Name = 
REMARK  11 active torsions:
REMARK  status: ('A' for Active; 'I' for Inactive)
REMARK    1  A    between atoms: N_2  and  C_5
REMARK    2  A    between atoms: C_5  and  C_6
REMARK    3  A    between atoms: C_6  and  O_7
REMARK    4  A    between atoms: O_7  and  C_8
REMARK    5  A    between atoms: C_8  and  C_10
REMARK    6  A    between atoms: C_10  and  C_11
REMARK    7  A    between atoms: C_11  and  C_12
REMARK    8  A    between atoms: C_12  and  O_14
REMARK    9  A    between atoms: O_14  and  C_15
REMARK   10  A    between atoms: C_15  and  C_16
REMARK   11  A    between atoms: C_16  and  N_17
REMARK                            x       y       z     vdW  Elec       q    Type
REMARK                         _______ _______ _______ _____ _____    ______ ____
ROOT
ATOM      1  C   UNL     1       3.281   6.875  -6.366  0.00  0.00    +0.121 C 
ENDROOT
BRANCH   1   2
ATOM      2  C   UNL     1       2.887   7.229  -7.751  0.00  0.00    +0.318 C 
ATOM      3  O   UNL     1       2.157   8.256  -7.881  0.00  0.00    -0.250 OA
BRANCH   2   4
ATOM      4  O   UNL     1       2.943   6.264  -8.761  0.00  0.00    -0.442 OA
BRANCH   4   5
ATOM      5  C   UNL     1       3.801   6.578  -9.856  0.00  0.00    +0.269 C 
BRANCH   5   6
ATOM      6  C   UNL     1       4.958   5.614  -9.860  0.00  0.00    +0.157 C 
BRANCH   6   8
ATOM      7  C   UNL     1       5.675   7.553 -10.981  0.00  0.00    +0.171 C 
ATOM      8  N   UNL     1       6.009   6.176 -10.703  0.00  0.00    +0.313 N 
ATOM      9  C   UNL     1       7.306   6.097 -10.077  0.00  0.00    +0.171 C 
ATOM     10  C   UNL     1       6.010   5.476 -11.984  0.00  0.00    +0.171 C 
ENDBRANCH   6   8
ENDBRANCH   5   6
ENDBRANCH   4   5
ENDBRANCH   2   4
ENDBRANCH   1   2
BRANCH   1  11
ATOM     11  C   UNL     1       3.633   5.404  -6.361  0.00  0.00    +0.121 C 
BRANCH  11  12
ATOM     12  C   UNL     1       2.478   4.579  -5.888  0.00  0.00    +0.318 C 
ATOM     13  O   UNL     1       2.113   3.539  -6.517  0.00  0.00    -0.250 OA
BRANCH  12  14
ATOM     14  O   UNL     1       1.632   4.989  -4.866  0.00  0.00    -0.442 OA
BRANCH  14  15
ATOM     15  C   UNL     1       0.244   5.202  -5.088  0.00  0.00    +0.269 C 
BRANCH  15  16
ATOM     16  C   UNL     1      -0.110   6.661  -5.168  0.00  0.00    +0.157 C 
BRANCH  16  17
ATOM     17  N   UNL     1      -1.376   6.827  -4.463  0.00  0.00    +0.313 N 
ATOM     18  C   UNL     1      -1.841   8.210  -4.525  0.00  0.00    +0.171 C 
ATOM     19  C   UNL     1      -1.186   6.525  -3.046  0.00  0.00    +0.171 C 
ATOM     20  C   UNL     1      -2.371   5.942  -5.041  0.00  0.00    +0.171 C 
ENDBRANCH  16  17
ENDBRANCH  15  16
ENDBRANCH  14  15
ENDBRANCH  12  14
ENDBRANCH  11  12
ENDBRANCH   1  11
TORSDOF 11
ENDMDL
MODEL 5
REMARK VINA RESULT:      -5.1      3.272      5.410
REMARK  Name = 
REMARK  11 active torsions:
REMARK  status: ('A' for Active; 'I' for Inactive)
REMARK    1  A    between atoms: N_2  and  C_5
REMARK    2  A    between atoms: C_5  and  C_6
REMARK    3  A    between atoms: C_6  and  O_7
REMARK    4  A    between atoms: O_7  and  C_8
REMARK    5  A    between atoms: C_8  and  C_10
REMARK    6  A    between atoms: C_10  and  C_11
REMARK    7  A    between atoms: C_11  and  C_12
REMARK    8  A    between atoms: C_12  and  O_14
REMARK    9  A    between atoms: O_14  and  C_15
REMARK   10  A    between atoms: C_15  and  C_16
REMARK   11  A    between atoms: C_16  and  N_17
REMARK                            x       y       z     vdW  Elec       q    Type
REMARK                         _______ _______ _______ _____ _____    ______ ____
ROOT
ATOM      1  C   UNL     1       3.298   6.696  -6.566  0.00  0.00    +0.121 C 
ENDROOT
BRANCH   1   2
ATOM      2  C   UNL     1       2.802   7.311  -7.821  0.00  0.00    +0.318 C 
ATOM      3  O   UNL     1       2.011   8.293  -7.689  0.00  0.00    -0.250 OA
BRANCH   2   4
ATOM      4  O   UNL     1       2.850   6.591  -9.017  0.00  0.00    -0.442 OA
BRANCH   4   5
ATOM      5  C   UNL     1       1.633   6.563  -9.761  0.00  0.00    +0.269 C 
BRANCH   5   6
ATOM      6  C   UNL     1       1.904   5.967 -11.117  0.00  0.00    +0.157 C 
BRANCH   6   8
ATOM      7  C   UNL     1      -0.100   4.756 -11.338  0.00  0.00    +0.171 C 
ATOM      8  N   UNL     1       0.636   5.893 -11.837  0.00  0.00    +0.313 N 
ATOM      9  C   UNL     1      -0.144   7.096 -11.686  0.00  0.00    +0.171 C 
ATOM     10  C   UNL     1       0.912   5.629 -13.247  0.00  0.00    +0.171 C 
ENDBRANCH   6   8
ENDBRANCH   5   6
ENDBRANCH   4   5
ENDBRANCH   2   4
ENDBRANCH   1   2
BRANCH   1  11
ATOM     11  C   UNL     1       3.269   5.196  -6.759  0.00  0.00    +0.121 C 
BRANCH  11  12
ATOM     12  C   UNL     1       2.267   4.559  -5.849  0.00  0.00    +0.318 C 
ATOM     13  O   UNL     1       1.660   3.496  -6.183  0.00  0.00    -0.250 OA
BRANCH  12  14
ATOM     14  O   UNL     1       1.807   5.174  -4.692  0.00  0.00    -0.442 OA
BRANCH  14  15
ATOM     15  C   UNL     1       0.418   5.339  -4.438  0.00  0.00    +0.269 C 
BRANCH  15  16
ATOM     16  C   UNL     1      -0.186   6.459  -5.238  0.00  0.00    +0.157 C 
BRANCH  16  17
ATOM     17  N   UNL     1      -1.631   6.379  -5.053  0.00  0.00    +0.313 N 
ATOM     18  C   UNL     1      -2.215   7.702  -4.851  0.00  0.00    +0.171 C 
ATOM     19  C   UNL     1      -1.924   5.616  -3.841  0.00  0.00    +0.171 C 
ATOM     20  C   UNL     1      -2.231   5.742  -6.210  0.00  0.00    +0.171 C 
ENDBRANCH  16  17
ENDBRANCH  15  16
ENDBRANCH  14  15
ENDBRANCH  12  14
ENDBRANCH  11  12
ENDBRANCH   1  11
TORSDOF 11
ENDMDL
MODEL 6
REMARK VINA RESULT:      -5.1      5.321      9.647
REMARK  Name = 
REMARK  11 active torsions:
REMARK  status: ('A' for Active; 'I' for Inactive)
REMARK    1  A    between atoms: N_2  and  C_5
REMARK    2  A    between atoms: C_5  and  C_6
REMARK    3  A    between atoms: C_6  and  O_7
REMARK    4  A    between atoms: O_7  and  C_8
REMARK    5  A    between atoms: C_8  and  C_10
REMARK    6  A    between atoms: C_10  and  C_11
REMARK    7  A    between atoms: C_11  and  C_12
REMARK    8  A    between atoms: C_12  and  O_14
REMARK    9  A    between atoms: O_14  and  C_15
REMARK   10  A    between atoms: C_15  and  C_16
REMARK   11  A    between atoms: C_16  and  N_17
REMARK                            x       y       z     vdW  Elec       q    Type
REMARK                         _______ _______ _______ _____ _____    ______ ____
ROOT
ATOM      1  C   UNL     1       6.209   5.736  -9.731  0.00  0.00    +0.121 C 
ENDROOT
BRANCH   1   2
ATOM      2  C   UNL     1       4.762   5.712  -9.405  0.00  0.00    +0.318 C 
ATOM      3  O   UNL     1       4.189   4.584  -9.484  0.00  0.00    -0.250 OA
BRANCH   2   4
ATOM      4  O   UNL     1       4.017   6.893  -9.448  0.00  0.00    -0.442 OA
BRANCH   4   5
ATOM      5  C   UNL     1       2.657   6.770  -9.036  0.00  0.00    +0.269 C 
BRANCH   5   6
ATOM      6  C   UNL     1       2.536   7.239  -7.610  0.00  0.00    +0.157 C 
BRANCH   6   8
ATOM      7  C   UNL     1       2.774   5.374  -6.197  0.00  0.00    +0.171 C 
ATOM      8  N   UNL     1       1.809   6.217  -6.861  0.00  0.00    +0.313 N 
ATOM      9  C   UNL     1       0.905   6.793  -5.897  0.00  0.00    +0.171 C 
ATOM     10  C   UNL     1       1.087   5.368  -7.805  0.00  0.00    +0.171 C 
ENDBRANCH   6   8
ENDBRANCH   5   6
ENDBRANCH   4   5
ENDBRANCH   2   4
ENDBRANCH   1   2
BRANCH   1  11
ATOM     11  C   UNL     1       6.346   6.314 -11.123  0.00  0.00    +0.121 C 
BRANCH  11  12
ATOM     12  C   UNL     1       6.500   5.229 -12.141  0.00  0.00    +0.318 C 
ATOM     13  O   UNL     1       7.637   4.730 -12.401  0.00  0.00    -0.250 OA
BRANCH  12  14
ATOM     14  O   UNL     1       5.466   4.836 -12.981  0.00  0.00    -0.442 OA
BRANCH  14  15
ATOM     15  C   UNL     1       4.201   5.485 -12.958  0.00  0.00    +0.269 C 
BRANCH  15  16
ATOM     16  C   UNL     1       3.339   5.112 -14.131  0.00  0.00    +0.157 C 
BRANCH  16  17
ATOM     17  N   UNL     1       1.984   5.553 -13.818  0.00  0.00    +0.313 N 
ATOM     18  C   UNL     1       1.588   6.685 -14.650  0.00  0.00    +0.171 C 
ATOM     19  C   UNL     1       1.936   6.028 -12.437  0.00  0.00    +0.171 C 
ATOM     20  C   UNL     1       1.061   4.449 -14.007  0.00  0.00    +0.171 C 
ENDBRANCH  16  17
ENDBRANCH  15  16
ENDBRANCH  14  15
ENDBRANCH  12  14
ENDBRANCH  11  12
ENDBRANCH   1  11
TORSDOF 11
ENDMDL
MODEL 7
REMARK VINA RESULT:      -5.0      4.090      7.895
REMARK  Name = 
REMARK  11 active torsions:
REMARK  status: ('A' for Active; 'I' for Inactive)
REMARK    1  A    between atoms: N_2  and  C_5
REMARK    2  A    between atoms: C_5  and  C_6
REMARK    3  A    between atoms: C_6  and  O_7
REMARK    4  A    between atoms: O_7  and  C_8
REMARK    5  A    between atoms: C_8  and  C_10
REMARK    6  A    between atoms: C_10  and  C_11
REMARK    7  A    between atoms: C_11  and  C_12
REMARK    8  A    between atoms: C_12  and  O_14
REMARK    9  A    between atoms: O_14  and  C_15
REMARK   10  A    between atoms: C_15  and  C_16
REMARK   11  A    between atoms: C_16  and  N_17
REMARK                            x       y       z     vdW  Elec       q    Type
REMARK                         _______ _______ _______ _____ _____    ______ ____
ROOT
ATOM      1  C   UNL     1       3.378   6.784  -6.645  0.00  0.00    +0.121 C 
ENDROOT
BRANCH   1   2
ATOM      2  C   UNL     1       2.110   7.186  -7.300  0.00  0.00    +0.318 C 
ATOM      3  O   UNL     1       2.110   8.315  -7.876  0.00  0.00    -0.250 OA
BRANCH   2   4
ATOM      4  O   UNL     1       0.909   6.578  -6.926  0.00  0.00    -0.442 OA
BRANCH   4   5
ATOM      5  C   UNL     1       0.437   6.910  -5.621  0.00  0.00    +0.269 C 
BRANCH   5   6
ATOM      6  C   UNL     1      -0.328   5.737  -5.067  0.00  0.00    +0.157 C 
BRANCH   6   8
ATOM      7  C   UNL     1      -2.408   5.810  -6.161  0.00  0.00    +0.171 C 
ATOM      8  N   UNL     1      -1.726   6.135  -4.931  0.00  0.00    +0.313 N 
ATOM      9  C   UNL     1      -2.369   5.484  -3.818  0.00  0.00    +0.171 C 
ATOM     10  C   UNL     1      -1.788   7.587  -4.787  0.00  0.00    +0.171 C 
ENDBRANCH   6   8
ENDBRANCH   5   6
ENDBRANCH   4   5
ENDBRANCH   2   4
ENDBRANCH   1   2
BRANCH   1  11
ATOM     11  C   UNL     1       3.559   5.302  -6.888  0.00  0.00    +0.121 C 
BRANCH  11  12
ATOM     12  C   UNL     1       4.092   5.045  -8.262  0.00  0.00    +0.318 C 
ATOM     13  O   UNL     1       3.615   4.122  -8.989  0.00  0.00    -0.250 OA
BRANCH  12  14
ATOM     14  O   UNL     1       5.241   5.658  -8.747  0.00  0.00    -0.442 OA
BRANCH  14  15
ATOM     15  C   UNL     1       5.269   6.278 -10.025  0.00  0.00    +0.269 C 
BRANCH  15  16
ATOM     16  C   UNL     1       6.195   5.582 -10.984  0.00  0.00    +0.157 C 
BRANCH  16  17
ATOM     17  N   UNL     1       6.608   6.576 -11.969  0.00  0.00    +0.313 N 
ATOM     18  C   UNL     1       5.830   6.461 -13.199  0.00  0.00    +0.171 C 
ATOM     19  C   UNL     1       8.000   6.337 -12.344  0.00  0.00    +0.171 C 
ATOM     20  C   UNL     1       6.456   7.905 -11.406  0.00  0.00    +0.171 C 
ENDBRANCH  16  17
ENDBRANCH  15  16
ENDBRANCH  14  15
ENDBRANCH  12  14
ENDBRANCH  11  12
ENDBRANCH   1  11
TORSDOF 11
ENDMDL
MODEL 8
REMARK VINA RESULT:      -5.0      3.070      7.238
REMARK  Name = 
REMARK  11 active torsions:
REMARK  status: ('A' for Active; 'I' for Inactive)
REMARK    1  A    between atoms: N_2  and  C_5
REMARK    2  A    between atoms: C_5  and  C_6
REMARK    3  A    between atoms: C_6  and  O_7
REMARK    4  A    between atoms: O_7  and  C_8
REMARK    5  A    between atoms: C_8  and  C_10
REMARK    6  A    between atoms: C_10  and  C_11
REMARK    7  A    between atoms: C_11  and  C_12
REMARK    8  A    between atoms: C_12  and  O_14
REMARK    9  A    between atoms: O_14  and  C_15
REMARK   10  A    between atoms: C_15  and  C_16
REMARK   11  A    between atoms: C_16  and  N_17
REMARK                            x       y       z     vdW  Elec       q    Type
REMARK                         _______ _______ _______ _____ _____    ______ ____
ROOT
ATOM      1  C   UNL     1       3.406   6.947  -5.613  0.00  0.00    +0.121 C 
ENDROOT
BRANCH   1   2
ATOM      2  C   UNL     1       2.755   6.184  -4.521  0.00  0.00    +0.318 C 
ATOM      3  O   UNL     1       3.148   4.990  -4.360  0.00  0.00    -0.250 OA
BRANCH   2   4
ATOM      4  O   UNL     1       1.518   6.600  -4.021  0.00  0.00    -0.442 OA
BRANCH   4   5
ATOM      5  C   UNL     1       0.478   5.625  -4.080  0.00  0.00    +0.269 C 
BRANCH   5   6
ATOM      6  C   UNL     1      -0.269   5.790  -5.377  0.00  0.00    +0.157 C 
BRANCH   6   8
ATOM      7  C   UNL     1      -2.045   5.506  -3.862  0.00  0.00    +0.171 C 
ATOM      8  N   UNL     1      -1.635   6.198  -5.060  0.00  0.00    +0.313 N 
ATOM      9  C   UNL     1      -1.745   7.623  -4.873  0.00  0.00    +0.171 C 
ATOM     10  C   UNL     1      -2.520   5.747  -6.130  0.00  0.00    +0.171 C 
ENDBRANCH   6   8
ENDBRANCH   5   6
ENDBRANCH   4   5
ENDBRANCH   2   4
ENDBRANCH   1   2
BRANCH   1  11
ATOM     11  C   UNL     1       3.061   6.254  -6.913  0.00  0.00    +0.121 C 
BRANCH  11  12
ATOM     12  C   UNL     1       2.879   7.246  -8.018  0.00  0.00    +0.318 C 
ATOM     13  O   UNL     1       2.125   8.256  -7.874  0.00  0.00    -0.250 OA
BRANCH  12  14
ATOM     14  O   UNL     1       3.361   7.034  -9.303  0.00  0.00    -0.442 OA
BRANCH  14  15
ATOM     15  C   UNL     1       3.059   5.847 -10.024  0.00  0.00    +0.269 C 
BRANCH  15  16
ATOM     16  C   UNL     1       2.374   6.125 -11.333  0.00  0.00    +0.157 C 
BRANCH  16  17
ATOM     17  N   UNL     1       1.016   5.606 -11.218  0.00  0.00    +0.313 N 
ATOM     18  C   UNL     1       0.072   6.662 -10.863  0.00  0.00    +0.171 C 
ATOM     19  C   UNL     1       0.959   4.629 -10.133  0.00  0.00    +0.171 C 
ATOM     20  C   UNL     1       0.626   4.992 -12.474  0.00  0.00    +0.171 C 
ENDBRANCH  16  17
ENDBRANCH  15  16
ENDBRANCH  14  15
ENDBRANCH  12  14
ENDBRANCH  11  12
ENDBRANCH   1  11
TORSDOF 11
ENDMDL
MODEL 9
REMARK VINA RESULT:      -5.0      3.516      7.270
REMARK  Name = 
REMARK  11 active torsions:
REMARK  status: ('A' for Active; 'I' for Inactive)
REMARK    1  A    between atoms: N_2  and  C_5
REMARK    2  A    between atoms: C_5  and  C_6
REMARK    3  A    between atoms: C_6  and  O_7
REMARK    4  A    between atoms: O_7  and  C_8
REMARK    5  A    between atoms: C_8  and  C_10
REMARK    6  A    between atoms: C_10  and  C_11
REMARK    7  A    between atoms: C_11  and  C_12
REMARK    8  A    between atoms: C_12  and  O_14
REMARK    9  A    between atoms: O_14  and  C_15
REMARK   10  A    between atoms: C_15  and  C_16
REMARK   11  A    between atoms: C_16  and  N_17
REMARK                            x       y       z     vdW  Elec       q    Type
REMARK                         _______ _______ _______ _____ _____    ______ ____
ROOT
ATOM      1  C   UNL     1       3.442   7.075  -5.655  0.00  0.00    +0.121 C 
ENDROOT
BRANCH   1   2
ATOM      2  C   UNL     1       2.939   6.142  -4.618  0.00  0.00    +0.318 C 
ATOM      3  O   UNL     1       3.374   4.953  -4.675  0.00  0.00    -0.250 OA
BRANCH   2   4
ATOM      4  O   UNL     1       1.760   6.436  -3.927  0.00  0.00    -0.442 OA
BRANCH   4   5
ATOM      5  C   UNL     1       0.697   5.503  -4.112  0.00  0.00    +0.269 C 
BRANCH   5   6
ATOM      6  C   UNL     1      -0.044   5.854  -5.375  0.00  0.00    +0.157 C 
BRANCH   6   8
ATOM      7  C   UNL     1      -1.445   7.642  -4.766  0.00  0.00    +0.171 C 
ATOM      8  N   UNL     1      -1.409   6.219  -5.009  0.00  0.00    +0.313 N 
ATOM      9  C   UNL     1      -2.359   5.867  -6.035  0.00  0.00    +0.171 C 
ATOM     10  C   UNL     1      -1.747   5.569  -3.746  0.00  0.00    +0.171 C 
ENDBRANCH   6   8
ENDBRANCH   5   6
ENDBRANCH   4   5
ENDBRANCH   2   4
ENDBRANCH   1   2
BRANCH   1  11
ATOM     11  C   UNL     1       3.485   6.312  -6.961  0.00  0.00    +0.121 C 
BRANCH  11  12
ATOM     12  C   UNL     1       2.940   7.139  -8.082  0.00  0.00    +0.318 C 
ATOM     13  O   UNL     1       2.219   8.158  -7.856  0.00  0.00    -0.250 OA
BRANCH  12  14
ATOM     14  O   UNL     1       3.026   6.749  -9.412  0.00  0.00    -0.442 OA
BRANCH  14  15
ATOM     15  C   UNL     1       4.201   6.974 -10.180  0.00  0.00    +0.269 C 
BRANCH  15  16
ATOM     16  C   UNL     1       5.024   5.729 -10.354  0.00  0.00    +0.157 C 
BRANCH  16  17
ATOM     17  N   UNL     1       6.344   6.156 -10.807  0.00  0.00    +0.313 N 
ATOM     18  C   UNL     1       7.346   5.983  -9.759  0.00  0.00    +0.171 C 
ATOM     19  C   UNL     1       6.315   7.584 -11.110  0.00  0.00    +0.171 C 
ATOM     20  C   UNL     1       6.719   5.395 -11.984  0.00  0.00    +0.171 C 
ENDBRANCH  16  17
ENDBRANCH  15  16
ENDBRANCH  14  15
ENDBRANCH  12  14
ENDBRANCH  11  12
ENDBRANCH   1  11
TORSDOF 11
ENDMDL
