MODEL 1
REMARK VINA RESULT:      -7.9      0.000      0.000
REMARK  Name = 
REMARK  2 active torsions:
REMARK  status: ('A' for Active; 'I' for Inactive)
REMARK    1  A    between atoms: C_2  and  O_4
REMARK    2  A    between atoms: O_4  and  C_5
REMARK                            x       y       z     vdW  Elec       q    Type
REMARK                         _______ _______ _______ _____ _____    ______ ____
ROOT
ATOM      1  C   UNL     1       2.006   6.426  -5.596  0.00  0.00    +0.197 C 
ATOM      2  C   UNL     1       2.809   6.669  -4.203  0.00  0.00    +0.032 A 
ATOM      3  C   UNL     1       2.772   6.045  -3.035  0.00  0.00    +0.059 A 
ATOM      4  C   UNL     1       3.767   6.426  -2.131  0.00  0.00    +0.015 A 
ATOM      5  C   UNL     1       4.743   7.358  -2.480  0.00  0.00    +0.001 A 
ATOM      6  C   UNL     1       4.820   7.832  -3.784  0.00  0.00    -0.000 A 
ATOM      7  N   UNL     1       1.540   6.040  -2.288  0.00  0.00    -0.220 N 
ATOM      8  C   UNL     1       1.590   5.594  -0.940  0.00  0.00    +0.350 C 
ATOM      9  O   UNL     1       0.978   6.250  -0.085  0.00  0.00    -0.248 OA
ATOM     10  N   UNL     1       2.061   4.255  -0.748  0.00  0.00    -0.069 NA
ATOM     11  C   UNL     1       0.184   6.175  -2.742  0.00  0.00    +0.056 A 
ATOM     12  C   UNL     1      -0.011   6.409  -4.107  0.00  0.00    -0.004 A 
ATOM     13  C   UNL     1      -1.230   6.824  -4.539  0.00  0.00    -0.003 A 
ATOM     14  C   UNL     1      -2.037   7.437  -3.586  0.00  0.00    -0.000 A 
ATOM     15  C   UNL     1      -1.867   7.129  -2.239  0.00  0.00    +0.001 A 
ATOM     16  C   UNL     1      -0.729   6.472  -1.780  0.00  0.00    +0.015 A 
ATOM     17  C   UNL     1       4.000   7.189  -4.703  0.00  0.00    +0.000 A 
ATOM     18  C   UNL     1       0.750   5.490  -5.013  0.00  0.00    +0.076 C 
ENDROOT
BRANCH   1  19
ATOM     19  O   UNL     1       2.866   5.149  -5.912  0.00  0.00    -0.447 OA
BRANCH  19  21
ATOM     20  C   UNL     1       2.992   5.780  -8.056  0.00  0.00    +0.121 C 
ATOM     21  C   UNL     1       3.002   4.910  -7.284  0.00  0.00    +0.318 C 
ATOM     22  O   UNL     1       2.427   3.844  -7.662  0.00  0.00    -0.250 OA
ENDBRANCH  19  21
ENDBRANCH   1  19
TORSDOF 2
ENDMDL
MODEL 2
REMARK VINA RESULT:      -7.8      5.518      9.636
REMARK  Name = 
REMARK  2 active torsions:
REMARK  status: ('A' for Active; 'I' for Inactive)
REMARK    1  A    between atoms: C_2  and  O_4
REMARK    2  A    between atoms: O_4  and  C_5
REMARK                            x       y       z     vdW  Elec       q    Type
REMARK                         _______ _______ _______ _____ _____    ______ ____
ROOT
ATOM      1  C   UNL     1       2.676   6.129  -9.505  0.00  0.00    +0.197 C 
ATOM      2  C   UNL     1       1.871   6.343 -10.903  0.00  0.00    +0.032 A 
ATOM      3  C   UNL     1       1.952   5.734 -12.077  0.00  0.00    +0.059 A 
ATOM      4  C   UNL     1       0.944   6.069 -12.984  0.00  0.00    +0.015 A 
ATOM      5  C   UNL     1      -0.085   6.943 -12.634  0.00  0.00    +0.001 A 
ATOM      6  C   UNL     1      -0.197   7.398 -11.326  0.00  0.00    -0.000 A 
ATOM      7  N   UNL     1       3.188   5.805 -12.813  0.00  0.00    -0.220 N 
ATOM      8  C   UNL     1       3.172   5.371 -14.166  0.00  0.00    +0.350 C 
ATOM      9  O   UNL     1       3.754   6.069 -15.009  0.00  0.00    -0.248 OA
ATOM     10  N   UNL     1       2.777   4.011 -14.376  0.00  0.00    -0.069 NA
ATOM     11  C   UNL     1       4.530   6.010 -12.347  0.00  0.00    +0.056 A 
ATOM     12  C   UNL     1       4.702   6.240 -10.978  0.00  0.00    -0.004 A 
ATOM     13  C   UNL     1       5.893   6.716 -10.532  0.00  0.00    -0.003 A 
ATOM     14  C   UNL     1       6.672   7.384 -11.472  0.00  0.00    -0.000 A 
ATOM     15  C   UNL     1       6.530   7.080 -12.823  0.00  0.00    +0.001 A 
ATOM     16  C   UNL     1       5.434   6.366 -13.299  0.00  0.00    +0.015 A 
ATOM     17  C   UNL     1       0.650   6.791 -10.407  0.00  0.00    +0.000 A 
ATOM     18  C   UNL     1       3.986   5.271 -10.087  0.00  0.00    +0.076 C 
ENDROOT
BRANCH   1  19
ATOM     19  O   UNL     1       1.885   4.804  -9.209  0.00  0.00    -0.447 OA
BRANCH  19  21
ATOM     20  C   UNL     1       1.571   5.438  -7.086  0.00  0.00    +0.121 C 
ATOM     21  C   UNL     1       1.715   4.565  -7.842  0.00  0.00    +0.318 C 
ATOM     22  O   UNL     1       2.408   3.591  -7.417  0.00  0.00    -0.250 OA
ENDBRANCH  19  21
ENDBRANCH   1  19
TORSDOF 2
ENDMDL
MODEL 3
REMARK VINA RESULT:      -7.7      2.017      5.813
REMARK  Name = 
REMARK  2 active torsions:
REMARK  status: ('A' for Active; 'I' for Inactive)
REMARK    1  A    between atoms: C_2  and  O_4
REMARK    2  A    between atoms: O_4  and  C_5
REMARK                            x       y       z     vdW  Elec       q    Type
REMARK                         _______ _______ _______ _____ _____    ______ ____
ROOT
ATOM      1  C   UNL     1       0.130   6.629  -2.849  0.00  0.00    +0.197 C 
ATOM      2  C   UNL     1      -0.132   6.240  -4.407  0.00  0.00    +0.032 A 
ATOM      3  C   UNL     1       0.400   5.316  -5.194  0.00  0.00    +0.059 A 
ATOM      4  C   UNL     1      -0.234   5.158  -6.428  0.00  0.00    +0.015 A 
ATOM      5  C   UNL     1      -1.371   5.895  -6.758  0.00  0.00    +0.001 A 
ATOM      6  C   UNL     1      -1.972   6.712  -5.808  0.00  0.00    -0.000 A 
ATOM      7  N   UNL     1       1.811   5.374  -5.478  0.00  0.00    -0.220 N 
ATOM      8  C   UNL     1       2.307   4.540  -6.515  0.00  0.00    +0.350 C 
ATOM      9  O   UNL     1       3.109   5.029  -7.324  0.00  0.00    -0.248 OA
ATOM     10  N   UNL     1       2.097   3.135  -6.334  0.00  0.00    -0.069 NA
ATOM     11  C   UNL     1       2.883   5.956  -4.720  0.00  0.00    +0.056 A 
ATOM     12  C   UNL     1       2.538   6.635  -3.546  0.00  0.00    -0.004 A 
ATOM     13  C   UNL     1       3.460   7.436  -2.951  0.00  0.00    -0.003 A 
ATOM     14  C   UNL     1       4.482   7.902  -3.773  0.00  0.00    -0.000 A 
ATOM     15  C   UNL     1       4.852   7.167  -4.895  0.00  0.00    +0.001 A 
ATOM     16  C   UNL     1       4.043   6.152  -5.400  0.00  0.00    +0.015 A 
ATOM     17  C   UNL     1      -1.475   6.591  -4.516  0.00  0.00    +0.000 A 
ATOM     18  C   UNL     1       1.611   5.884  -2.640  0.00  0.00    +0.076 C 
ENDROOT
BRANCH   1  19
ATOM     19  O   UNL     1      -0.632   5.345  -2.361  0.00  0.00    -0.447 OA
BRANCH  19  21
ATOM     20  C   UNL     1      -1.607   5.948  -0.439  0.00  0.00    +0.121 C 
ATOM     21  C   UNL     1      -1.735   5.640  -1.553  0.00  0.00    +0.318 C 
ATOM     22  O   UNL     1      -2.743   4.910  -1.800  0.00  0.00    -0.250 OA
ENDBRANCH  19  21
ENDBRANCH   1  19
TORSDOF 2
ENDMDL
MODEL 4
REMARK VINA RESULT:      -7.3      2.065      4.350
REMARK  Name = 
REMARK  2 active torsions:
REMARK  status: ('A' for Active; 'I' for Inactive)
REMARK    1  A    between atoms: C_2  and  O_4
REMARK    2  A    between atoms: O_4  and  C_5
REMARK                            x       y       z     vdW  Elec       q    Type
REMARK                         _______ _______ _______ _____ _____    ______ ____
ROOT
ATOM      1  C   UNL     1       1.631   6.033  -5.834  0.00  0.00    +0.197 C 
ATOM      2  C   UNL     1       0.031   5.879  -5.579  0.00  0.00    +0.032 A 
ATOM      3  C   UNL     1      -0.802   6.505  -4.761  0.00  0.00    +0.059 A 
ATOM      4  C   UNL     1      -2.155   6.230  -4.974  0.00  0.00    +0.015 A 
ATOM      5  C   UNL     1      -2.569   5.395  -6.012  0.00  0.00    +0.001 A 
ATOM      6  C   UNL     1      -1.645   4.921  -6.936  0.00  0.00    -0.000 A 
ATOM      7  N   UNL     1      -0.595   6.395  -3.339  0.00  0.00    -0.220 N 
ATOM      8  C   UNL     1      -1.635   6.853  -2.486  0.00  0.00    +0.350 C 
ATOM      9  O   UNL     1      -1.950   6.146  -1.518  0.00  0.00    -0.248 OA
ATOM     10  N   UNL     1      -1.991   8.232  -2.630  0.00  0.00    -0.069 NA
ATOM     11  C   UNL     1       0.605   6.124  -2.599  0.00  0.00    +0.056 A 
ATOM     12  C   UNL     1       1.764   5.862  -3.336  0.00  0.00    -0.004 A 
ATOM     13  C   UNL     1       2.842   5.327  -2.706  0.00  0.00    -0.003 A 
ATOM     14  C   UNL     1       2.578   4.644  -1.523  0.00  0.00    -0.000 A 
ATOM     15  C   UNL     1       1.454   4.978  -0.772  0.00  0.00    +0.001 A 
ATOM     16  C   UNL     1       0.423   5.746  -1.305  0.00  0.00    +0.015 A 
ATOM     17  C   UNL     1      -0.374   5.475  -6.847  0.00  0.00    +0.000 A 
ATOM     18  C   UNL     1       2.042   6.844  -4.433  0.00  0.00    +0.076 C 
ENDROOT
BRANCH   1  19
ATOM     19  O   UNL     1       1.415   7.385  -6.605  0.00  0.00    -0.447 OA
BRANCH  19  21
ATOM     20  C   UNL     1       3.104   6.767  -7.937  0.00  0.00    +0.121 C 
ATOM     21  C   UNL     1       2.218   7.495  -7.745  0.00  0.00    +0.318 C 
ATOM     22  O   UNL     1       2.420   8.698  -8.097  0.00  0.00    -0.250 OA
ENDBRANCH  19  21
ENDBRANCH   1  19
TORSDOF 2
ENDMDL
MODEL 5
REMARK VINA RESULT:      -7.1      2.229      4.950
REMARK  Name = 
REMARK  2 active torsions:
REMARK  status: ('A' for Active; 'I' for Inactive)
REMARK    1  A    between atoms: C_2  and  O_4
REMARK    2  A    between atoms: O_4  and  C_5
REMARK                            x       y       z     vdW  Elec       q    Type
REMARK                         _______ _______ _______ _____ _____    ______ ____
ROOT
ATOM      1  C   UNL     1      -0.138   6.054  -4.729  0.00  0.00    +0.197 C 
ATOM      2  C   UNL     1       0.956   5.785  -3.555  0.00  0.00    +0.032 A 
ATOM      3  C   UNL     1       2.100   6.381  -3.253  0.00  0.00    +0.059 A 
ATOM      4  C   UNL     1       2.666   5.988  -2.038  0.00  0.00    +0.015 A 
ATOM      5  C   UNL     1       2.025   5.073  -1.203  0.00  0.00    +0.001 A 
ATOM      6  C   UNL     1       0.743   4.631  -1.507  0.00  0.00    -0.000 A 
ATOM      7  N   UNL     1       3.172   6.357  -4.215  0.00  0.00    -0.220 N 
ATOM      8  C   UNL     1       4.458   6.771  -3.777  0.00  0.00    +0.350 C 
ATOM      9  O   UNL     1       5.437   6.089  -4.113  0.00  0.00    -0.248 OA
ATOM     10  N   UNL     1       4.539   8.109  -3.273  0.00  0.00    -0.069 NA
ATOM     11  C   UNL     1       3.128   6.220  -5.644  0.00  0.00    +0.056 A 
ATOM     12  C   UNL     1       1.872   6.016  -6.227  0.00  0.00    -0.004 A 
ATOM     13  C   UNL     1       1.802   5.600  -7.518  0.00  0.00    -0.003 A 
ATOM     14  C   UNL     1       2.932   4.956  -8.012  0.00  0.00    -0.000 A 
ATOM     15  C   UNL     1       4.179   5.235  -7.460  0.00  0.00    +0.001 A 
ATOM     16  C   UNL     1       4.305   5.891  -6.239  0.00  0.00    +0.015 A 
ATOM     17  C   UNL     1       0.119   5.289  -2.560  0.00  0.00    +0.000 A 
ATOM     18  C   UNL     1       0.808   6.963  -5.764  0.00  0.00    +0.076 C 
ENDROOT
BRANCH   1  19
ATOM     19  O   UNL     1      -0.657   7.346  -4.001  0.00  0.00    -0.447 OA
BRANCH  19  21
ATOM     20  C   UNL     1      -2.540   7.096  -5.185  0.00  0.00    +0.121 C 
ATOM     21  C   UNL     1      -1.941   7.722  -4.409  0.00  0.00    +0.318 C 
ATOM     22  O   UNL     1      -2.085   8.979  -4.502  0.00  0.00    -0.250 OA
ENDBRANCH  19  21
ENDBRANCH   1  19
TORSDOF 2
ENDMDL
MODEL 6
REMARK VINA RESULT:      -7.0      5.634      8.238
REMARK  Name = 
REMARK  2 active torsions:
REMARK  status: ('A' for Active; 'I' for Inactive)
REMARK    1  A    between atoms: C_2  and  O_4
REMARK    2  A    between atoms: O_4  and  C_5
REMARK                            x       y       z     vdW  Elec       q    Type
REMARK                         _______ _______ _______ _____ _____    ______ ____
ROOT
ATOM      1  C   UNL     1       4.924   6.008 -10.821  0.00  0.00    +0.197 C 
ATOM      2  C   UNL     1       3.667   5.680 -11.801  0.00  0.00    +0.032 A 
ATOM      3  C   UNL     1       2.445   6.185 -11.877  0.00  0.00    +0.059 A 
ATOM      4  C   UNL     1       1.709   5.780 -12.993  0.00  0.00    +0.015 A 
ATOM      5  C   UNL     1       2.265   4.947 -13.964  0.00  0.00    +0.001 A 
ATOM      6  C   UNL     1       3.611   4.607 -13.903  0.00  0.00    -0.000 A 
ATOM      7  N   UNL     1       1.562   6.043 -10.748  0.00  0.00    -0.220 N 
ATOM      8  C   UNL     1       0.190   6.358 -10.942  0.00  0.00    +0.350 C 
ATOM      9  O   UNL     1      -0.658   5.586 -10.473  0.00  0.00    -0.248 OA
ATOM     10  N   UNL     1      -0.083   7.698 -11.367  0.00  0.00    -0.069 NA
ATOM     11  C   UNL     1       1.864   5.869  -9.355  0.00  0.00    +0.056 A 
ATOM     12  C   UNL     1       3.214   5.757  -9.005  0.00  0.00    -0.004 A 
ATOM     13  C   UNL     1       3.540   5.313  -7.763  0.00  0.00    -0.003 A 
ATOM     14  C   UNL     1       2.567   4.561  -7.112  0.00  0.00    -0.000 A 
ATOM     15  C   UNL     1       1.225   4.748  -7.430  0.00  0.00    +0.001 A 
ATOM     16  C   UNL     1       0.837   5.426  -8.583  0.00  0.00    +0.015 A 
ATOM     17  C   UNL     1       4.355   5.286 -12.945  0.00  0.00    +0.000 A 
ATOM     18  C   UNL     1       4.103   6.804  -9.602  0.00  0.00    +0.076 C 
ENDROOT
BRANCH   1  19
ATOM     19  O   UNL     1       5.205   7.360 -11.572  0.00  0.00    -0.447 OA
BRANCH  19  21
ATOM     20  C   UNL     1       7.345   7.097 -10.974  0.00  0.00    +0.121 C 
ATOM     21  C   UNL     1       6.539   7.768 -11.477  0.00  0.00    +0.318 C 
ATOM     22  O   UNL     1       6.665   9.013 -11.269  0.00  0.00    -0.250 OA
ENDBRANCH  19  21
ENDBRANCH   1  19
TORSDOF 2
ENDMDL
MODEL 7
REMARK VINA RESULT:      -6.9      2.361      4.798
REMARK  Name = 
REMARK  2 active torsions:
REMARK  status: ('A' for Active; 'I' for Inactive)
REMARK    1  A    between atoms: C_2  and  O_4
REMARK    2  A    between atoms: O_4  and  C_5
REMARK                            x       y       z     vdW  Elec       q    Type
REMARK                         _______ _______ _______ _____ _____    ______ ____
ROOT
ATOM      1  C   UNL     1       1.713   5.913  -2.901  0.00  0.00    +0.197 C 
ATOM      2  C   UNL     1       2.608   5.706  -4.244  0.00  0.00    +0.032 A 
ATOM      3  C   UNL     1       2.662   6.373  -5.387  0.00  0.00    +0.059 A 
ATOM      4  C   UNL     1       3.711   6.006  -6.234  0.00  0.00    +0.015 A 
ATOM      5  C   UNL     1       4.645   5.043  -5.854  0.00  0.00    +0.001 A 
ATOM      6  C   UNL     1       4.623   4.520  -4.566  0.00  0.00    -0.000 A 
ATOM      7  N   UNL     1       1.486   6.429  -6.216  0.00  0.00    -0.220 N 
ATOM      8  C   UNL     1       1.637   6.923  -7.540  0.00  0.00    +0.350 C 
ATOM      9  O   UNL     1       1.075   6.311  -8.459  0.00  0.00    -0.248 OA
ATOM     10  N   UNL     1       2.142   8.258  -7.648  0.00  0.00    -0.069 NA
ATOM     11  C   UNL     1       0.100   6.303  -5.863  0.00  0.00    +0.056 A 
ATOM     12  C   UNL     1      -0.194   6.023  -4.524  0.00  0.00    -0.004 A 
ATOM     13  C   UNL     1      -1.447   5.616  -4.194  0.00  0.00    -0.003 A 
ATOM     14  C   UNL     1      -2.196   5.053  -5.223  0.00  0.00    -0.000 A 
ATOM     15  C   UNL     1      -1.928   5.408  -6.542  0.00  0.00    +0.001 A 
ATOM     16  C   UNL     1      -0.750   6.060  -6.896  0.00  0.00    +0.015 A 
ATOM     17  C   UNL     1       3.752   5.146  -3.683  0.00  0.00    +0.000 A 
ATOM     18  C   UNL     1       0.516   6.893  -3.534  0.00  0.00    +0.076 C 
ENDROOT
BRANCH   1  19
ATOM     19  O   UNL     1       2.570   7.161  -2.478  0.00  0.00    -0.447 OA
BRANCH  19  21
ATOM     20  C   UNL     1       3.850   7.604  -0.697  0.00  0.00    +0.121 C 
ATOM     21  C   UNL     1       2.841   7.195  -1.107  0.00  0.00    +0.318 C 
ATOM     22  O   UNL     1       2.367   6.199  -0.481  0.00  0.00    -0.250 OA
ENDBRANCH  19  21
ENDBRANCH   1  19
TORSDOF 2
ENDMDL
MODEL 8
REMARK VINA RESULT:      -6.9      1.831      5.116
REMARK  Name = 
REMARK  2 active torsions:
REMARK  status: ('A' for Active; 'I' for Inactive)
REMARK    1  A    between atoms: C_2  and  O_4
REMARK    2  A    between atoms: O_4  and  C_5
REMARK                            x       y       z     vdW  Elec       q    Type
REMARK                         _______ _______ _______ _____ _____    ______ ____
ROOT
ATOM      1  C   UNL     1      -0.670   5.957  -2.392  0.00  0.00    +0.197 C 
ATOM      2  C   UNL     1       0.896   5.518  -2.442  0.00  0.00    +0.032 A 
ATOM      3  C   UNL     1       1.946   6.039  -3.059  0.00  0.00    +0.059 A 
ATOM      4  C   UNL     1       3.177   5.488  -2.695  0.00  0.00    +0.015 A 
ATOM      5  C   UNL     1       3.267   4.501  -1.714  0.00  0.00    +0.001 A 
ATOM      6  C   UNL     1       2.140   4.137  -0.987  0.00  0.00    -0.000 A 
ATOM      7  N   UNL     1       1.949   6.097  -4.498  0.00  0.00    -0.220 N 
ATOM      8  C   UNL     1       3.174   6.417  -5.141  0.00  0.00    +0.350 C 
ATOM      9  O   UNL     1       3.506   5.751  -6.132  0.00  0.00    -0.248 OA
ATOM     10  N   UNL     1       3.745   7.683  -4.791  0.00  0.00    -0.069 NA
ATOM     11  C   UNL     1       0.851   6.132  -5.423  0.00  0.00    +0.056 A 
ATOM     12  C   UNL     1      -0.438   6.037  -4.887  0.00  0.00    -0.004 A 
ATOM     13  C   UNL     1      -1.481   5.779  -5.717  0.00  0.00    -0.003 A 
ATOM     14  C   UNL     1      -1.162   5.165  -6.924  0.00  0.00    -0.000 A 
ATOM     15  C   UNL     1       0.107   5.338  -7.470  0.00  0.00    +0.001 A 
ATOM     16  C   UNL     1       1.162   5.841  -6.714  0.00  0.00    +0.015 A 
ATOM     17  C   UNL     1       1.019   4.933  -1.185  0.00  0.00    +0.000 A 
ATOM     18  C   UNL     1      -0.703   6.954  -3.733  0.00  0.00    +0.076 C 
ENDROOT
BRANCH   1  19
ATOM     19  O   UNL     1      -0.338   7.169  -1.448  0.00  0.00    -0.447 OA
BRANCH  19  21
ATOM     20  C   UNL     1      -2.411   6.950  -0.633  0.00  0.00    +0.121 C 
ATOM     21  C   UNL     1      -1.363   7.444  -0.536  0.00  0.00    +0.318 C 
ATOM     22  O   UNL     1      -1.368   8.650  -0.143  0.00  0.00    -0.250 OA
ENDBRANCH  19  21
ENDBRANCH   1  19
TORSDOF 2
ENDMDL
MODEL 9
REMARK VINA RESULT:      -6.8      2.867      6.206
REMARK  Name = 
REMARK  2 active torsions:
REMARK  status: ('A' for Active; 'I' for Inactive)
REMARK    1  A    between atoms: C_2  and  O_4
REMARK    2  A    between atoms: O_4  and  C_5
REMARK                            x       y       z     vdW  Elec       q    Type
REMARK                         _______ _______ _______ _____ _____    ______ ____
ROOT
ATOM      1  C   UNL     1       4.225   8.006   0.254  0.00  0.00    +0.197 C 
ATOM      2  C   UNL     1       2.602   7.963   0.147  0.00  0.00    +0.032 A 
ATOM      3  C   UNL     1       1.763   7.024  -0.267  0.00  0.00    +0.059 A 
ATOM      4  C   UNL     1       0.414   7.289  -0.018  0.00  0.00    +0.015 A 
ATOM      5  C   UNL     1       0.015   8.439   0.663  0.00  0.00    +0.001 A 
ATOM      6  C   UNL     1       0.967   9.283   1.222  0.00  0.00    -0.000 A 
ATOM      7  N   UNL     1       1.834   6.583  -1.636  0.00  0.00    -0.220 N 
ATOM      8  C   UNL     1       0.772   5.775  -2.122  0.00  0.00    +0.350 C 
ATOM      9  O   UNL     1       0.309   6.030  -3.243  0.00  0.00    -0.248 OA
ATOM     10  N   UNL     1       0.561   4.543  -1.422  0.00  0.00    -0.069 NA
ATOM     11  C   UNL     1       2.934   6.607  -2.558  0.00  0.00    +0.056 A 
ATOM     12  C   UNL     1       4.124   7.197  -2.117  0.00  0.00    -0.004 A 
ATOM     13  C   UNL     1       5.088   7.500  -3.025  0.00  0.00    -0.003 A 
ATOM     14  C   UNL     1       4.659   7.654  -4.339  0.00  0.00    -0.000 A 
ATOM     15  C   UNL     1       3.511   6.995  -4.770  0.00  0.00    +0.001 A 
ATOM     16  C   UNL     1       2.607   6.441  -3.867  0.00  0.00    +0.015 A 
ATOM     17  C   UNL     1       2.272   8.807   1.204  0.00  0.00    +0.000 A 
ATOM     18  C   UNL     1       4.587   6.735  -0.769  0.00  0.00    +0.076 C 
ENDROOT
BRANCH   1  19
ATOM     19  O   UNL     1       4.205   7.051   1.502  0.00  0.00    -0.447 OA
BRANCH  19  21
ATOM     20  C   UNL     1       6.068   8.056   2.229  0.00  0.00    +0.121 C 
ATOM     21  C   UNL     1       5.127   7.423   2.486  0.00  0.00    +0.318 C 
ATOM     22  O   UNL     1       5.301   6.527   3.367  0.00  0.00    -0.250 OA
ENDBRANCH  19  21
ENDBRANCH   1  19
TORSDOF 2
ENDMDL
