MODEL 1
REMARK VINA RESULT:      -6.0      0.000      0.000
REMARK  Name = 
REMARK  11 active torsions:
REMARK  status: ('A' for Active; 'I' for Inactive)
REMARK    1  A    between atoms: O_2  and  C_3
REMARK    2  A    between atoms: C_3  and  C_4
REMARK    3  A    between atoms: N_6  and  C_7
REMARK    4  A    between atoms: C_10  and  C_11
REMARK    5  A    between atoms: N_13  and  C_14
REMARK    6  A    between atoms: C_14  and  C_15
REMARK    7  A    between atoms: C_15  and  C_17
REMARK    8  A    between atoms: C_21  and  C_22
REMARK    9  A    between atoms: N_24  and  C_26
REMARK   10  A    between atoms: C_26  and  C_27
REMARK   11  A    between atoms: C_27  and  C_29
REMARK                            x       y       z     vdW  Elec       q    Type
REMARK                         _______ _______ _______ _____ _____    ______ ____
ROOT
ATOM      1  C   UNL     1       0.777   6.481  -4.309  0.00  0.00    +0.084 A 
ATOM      2  C   UNL     1       1.372   6.367  -3.055  0.00  0.00    +0.051 A 
ATOM      3  I   UNL     1       0.495   5.176  -1.529  0.00  0.00    -0.041 I 
ATOM      4  C   UNL     1       2.700   6.768  -2.962  0.00  0.00    +0.066 A 
ATOM      5  C   UNL     1       3.434   6.745  -4.141  0.00  0.00    +0.040 A 
ATOM      6  I   UNL     1       5.533   7.012  -4.051  0.00  0.00    -0.042 I 
ATOM      7  C   UNL     1       2.919   6.244  -5.334  0.00  0.00    +0.067 A 
ATOM      8  C   UNL     1       1.557   6.338  -5.457  0.00  0.00    +0.051 A 
ATOM      9  I   UNL     1       0.721   5.861  -7.323  0.00  0.00    -0.041 I 
ENDROOT
BRANCH   4  10
ATOM     10  C   UNL     1       3.384   6.660  -1.697  0.00  0.00    +0.250 C 
ATOM     11  N   UNL     1       3.843   7.767  -0.951  0.00  0.00    -0.272 N 
ATOM     12  C   UNL     1       3.436   9.126  -1.246  0.00  0.00    +0.115 C 
ATOM     13  O   UNL     1       3.741   5.495  -1.353  0.00  0.00    -0.270 OA
BRANCH  11  14
ATOM     14  C   UNL     1       5.040   7.611  -0.137  0.00  0.00    +0.129 C 
BRANCH  14  15
ATOM     15  C   UNL     1       4.570   8.282   1.299  0.00  0.00    +0.204 C 
ATOM     16  O   UNL     1       3.880   7.005   1.755  0.00  0.00    -0.218 OA
BRANCH  15  17
ATOM     17  C   UNL     1       5.976   7.893   2.079  0.00  0.00    +0.217 C 
ATOM     18  O   UNL     1       5.656   6.820   2.869  0.00  0.00    -0.218 OA
ENDBRANCH  15  17
ENDBRANCH  14  15
ENDBRANCH  11  14
ENDBRANCH   4  10
BRANCH   7  19
ATOM     19  C   UNL     1       3.807   5.568  -6.263  0.00  0.00    +0.266 C 
ATOM     20  N   UNL     1       4.206   6.077  -7.509  0.00  0.00    -0.199 NA
ATOM     21  O   UNL     1       3.798   4.297  -6.242  0.00  0.00    -0.268 OA
BRANCH  20  22
ATOM     22  C   UNL     1       5.122   5.494  -8.419  0.00  0.00    +0.151 C 
BRANCH  22  23
ATOM     23  C   UNL     1       4.442   5.558  -9.919  0.00  0.00    +0.206 C 
ATOM     24  O   UNL     1       3.681   6.844  -9.631  0.00  0.00    -0.218 OA
BRANCH  23  25
ATOM     25  C   UNL     1       5.741   6.378 -10.526  0.00  0.00    +0.217 C 
ATOM     26  O   UNL     1       5.235   7.638 -10.841  0.00  0.00    -0.218 OA
ENDBRANCH  23  25
ENDBRANCH  22  23
ENDBRANCH  20  22
ENDBRANCH   7  19
BRANCH   1  28
ATOM     27  C   UNL     1      -1.630   7.167  -4.579  0.00  0.00    +0.276 C 
ATOM     28  N   UNL     1      -0.618   6.179  -4.345  0.00  0.00    -0.176 NA
ATOM     29  O   UNL     1      -1.270   8.363  -4.707  0.00  0.00    -0.270 OA
BRANCH  27  30
ATOM     30  C   UNL     1      -3.087   6.825  -4.501  0.00  0.00    +0.229 C 
BRANCH  30  32
ATOM     31  C   UNL     1      -3.497   6.531  -2.361  0.00  0.00    +0.175 C 
ATOM     32  O   UNL     1      -3.202   5.992  -3.388  0.00  0.00    -0.342 OA
ENDBRANCH  30  32
ENDBRANCH  27  30
ENDBRANCH   1  28
TORSDOF 11
ENDMDL
MODEL 2
REMARK VINA RESULT:      -5.7      1.562      7.554
REMARK  Name = 
REMARK  11 active torsions:
REMARK  status: ('A' for Active; 'I' for Inactive)
REMARK    1  A    between atoms: O_2  and  C_3
REMARK    2  A    between atoms: C_3  and  C_4
REMARK    3  A    between atoms: N_6  and  C_7
REMARK    4  A    between atoms: C_10  and  C_11
REMARK    5  A    between atoms: N_13  and  C_14
REMARK    6  A    between atoms: C_14  and  C_15
REMARK    7  A    between atoms: C_15  and  C_17
REMARK    8  A    between atoms: C_21  and  C_22
REMARK    9  A    between atoms: N_24  and  C_26
REMARK   10  A    between atoms: C_26  and  C_27
REMARK   11  A    between atoms: C_27  and  C_29
REMARK                            x       y       z     vdW  Elec       q    Type
REMARK                         _______ _______ _______ _____ _____    ______ ____
ROOT
ATOM      1  C   UNL     1       2.824   6.664  -5.239  0.00  0.00    +0.084 A 
ATOM      2  C   UNL     1       1.637   5.949  -5.098  0.00  0.00    +0.051 A 
ATOM      3  I   UNL     1       1.189   4.305  -6.368  0.00  0.00    -0.041 I 
ATOM      4  C   UNL     1       0.946   6.128  -3.905  0.00  0.00    +0.066 A 
ATOM      5  C   UNL     1       1.697   6.551  -2.815  0.00  0.00    +0.040 A 
ATOM      6  I   UNL     1       0.816   6.533  -0.890  0.00  0.00    -0.042 I 
ATOM      7  C   UNL     1       3.082   6.683  -2.867  0.00  0.00    +0.067 A 
ATOM      8  C   UNL     1       3.588   6.961  -4.110  0.00  0.00    +0.051 A 
ATOM      9  I   UNL     1       5.627   7.444  -4.237  0.00  0.00    -0.041 I 
ENDROOT
BRANCH   4  10
ATOM     10  C   UNL     1      -0.282   5.405  -3.683  0.00  0.00    +0.250 C 
ATOM     11  N   UNL     1      -1.541   5.820  -4.166  0.00  0.00    -0.272 N 
ATOM     12  C   UNL     1      -1.687   6.867  -5.158  0.00  0.00    +0.115 C 
ATOM     13  O   UNL     1      -0.225   4.450  -2.853  0.00  0.00    -0.270 OA
BRANCH  11  14
ATOM     14  C   UNL     1      -2.729   5.494  -3.389  0.00  0.00    +0.129 C 
BRANCH  14  15
ATOM     15  C   UNL     1      -3.135   6.963  -2.749  0.00  0.00    +0.204 C 
ATOM     16  O   UNL     1      -4.593   6.566  -2.573  0.00  0.00    -0.218 OA
BRANCH  15  17
ATOM     17  C   UNL     1      -2.749   6.529  -1.200  0.00  0.00    +0.217 C 
ATOM     18  O   UNL     1      -2.700   5.160  -1.219  0.00  0.00    -0.218 OA
ENDBRANCH  15  17
ENDBRANCH  14  15
ENDBRANCH  11  14
ENDBRANCH   4  10
BRANCH   7  19
ATOM     19  C   UNL     1       3.868   6.397  -1.679  0.00  0.00    +0.266 C 
ATOM     20  N   UNL     1       4.513   7.362  -0.891  0.00  0.00    -0.199 NA
ATOM     21  O   UNL     1       4.454   5.270  -1.638  0.00  0.00    -0.268 OA
BRANCH  20  22
ATOM     22  C   UNL     1       5.230   7.147   0.312  0.00  0.00    +0.151 C 
BRANCH  22  23
ATOM     23  C   UNL     1       4.645   8.201   1.436  0.00  0.00    +0.206 C 
ATOM     24  O   UNL     1       3.419   7.354   1.743  0.00  0.00    -0.218 OA
BRANCH  23  25
ATOM     25  C   UNL     1       5.527   7.487   2.636  0.00  0.00    +0.217 C 
ATOM     26  O   UNL     1       4.592   6.746   3.356  0.00  0.00    -0.218 OA
ENDBRANCH  23  25
ENDBRANCH  22  23
ENDBRANCH  20  22
ENDBRANCH   7  19
BRANCH   1  28
ATOM     27  C   UNL     1       3.002   7.281  -7.673  0.00  0.00    +0.276 C 
ATOM     28  N   UNL     1       3.445   6.554  -6.519  0.00  0.00    -0.176 NA
ATOM     29  O   UNL     1       1.986   8.009  -7.558  0.00  0.00    -0.270 OA
BRANCH  27  30
ATOM     30  C   UNL     1       3.615   7.054  -9.022  0.00  0.00    +0.229 C 
BRANCH  30  32
ATOM     31  C   UNL     1       4.179   5.090  -9.833  0.00  0.00    +0.175 C 
ATOM     32  O   UNL     1       4.295   5.841  -8.908  0.00  0.00    -0.342 OA
ENDBRANCH  30  32
ENDBRANCH  27  30
ENDBRANCH   1  28
TORSDOF 11
ENDMDL
MODEL 3
REMARK VINA RESULT:      -5.4      1.047      6.187
REMARK  Name = 
REMARK  11 active torsions:
REMARK  status: ('A' for Active; 'I' for Inactive)
REMARK    1  A    between atoms: O_2  and  C_3
REMARK    2  A    between atoms: C_3  and  C_4
REMARK    3  A    between atoms: N_6  and  C_7
REMARK    4  A    between atoms: C_10  and  C_11
REMARK    5  A    between atoms: N_13  and  C_14
REMARK    6  A    between atoms: C_14  and  C_15
REMARK    7  A    between atoms: C_15  and  C_17
REMARK    8  A    between atoms: C_21  and  C_22
REMARK    9  A    between atoms: N_24  and  C_26
REMARK   10  A    between atoms: C_26  and  C_27
REMARK   11  A    between atoms: C_27  and  C_29
REMARK                            x       y       z     vdW  Elec       q    Type
REMARK                         _______ _______ _______ _____ _____    ______ ____
ROOT
ATOM      1  C   UNL     1       3.342   5.765  -5.596  0.00  0.00    +0.084 A 
ATOM      2  C   UNL     1       3.965   5.939  -4.363  0.00  0.00    +0.051 A 
ATOM      3  I   UNL     1       5.653   7.214  -4.156  0.00  0.00    -0.041 I 
ATOM      4  C   UNL     1       3.245   5.535  -3.244  0.00  0.00    +0.066 A 
ATOM      5  C   UNL     1       1.863   5.492  -3.383  0.00  0.00    +0.040 A 
ATOM      6  I   UNL     1       0.664   5.216  -1.660  0.00  0.00    -0.042 I 
ATOM      7  C   UNL     1       1.213   5.934  -4.532  0.00  0.00    +0.067 A 
ATOM      8  C   UNL     1       1.952   5.844  -5.683  0.00  0.00    +0.051 A 
ATOM      9  I   UNL     1       0.966   6.229  -7.496  0.00  0.00    -0.041 I 
ENDROOT
BRANCH   4  10
ATOM     10  C   UNL     1       3.822   5.703  -1.934  0.00  0.00    +0.250 C 
ATOM     11  N   UNL     1       3.937   6.946  -1.274  0.00  0.00    -0.272 N 
ATOM     12  C   UNL     1       3.246   8.134  -1.732  0.00  0.00    +0.115 C 
ATOM     13  O   UNL     1       4.414   4.693  -1.451  0.00  0.00    -0.270 OA
BRANCH  11  14
ATOM     14  C   UNL     1       5.061   7.155  -0.373  0.00  0.00    +0.129 C 
BRANCH  14  15
ATOM     15  C   UNL     1       4.389   8.107   0.800  0.00  0.00    +0.204 C 
ATOM     16  O   UNL     1       3.675   6.930   1.448  0.00  0.00    -0.218 OA
BRANCH  15  17
ATOM     17  C   UNL     1       5.688   7.978   1.817  0.00  0.00    +0.217 C 
ATOM     18  O   UNL     1       5.458   6.837   2.539  0.00  0.00    -0.218 OA
ENDBRANCH  15  17
ENDBRANCH  14  15
ENDBRANCH  11  14
ENDBRANCH   4  10
BRANCH   7  19
ATOM     19  C   UNL     1      -0.094   6.556  -4.414  0.00  0.00    +0.266 C 
ATOM     20  N   UNL     1      -1.319   5.890  -4.580  0.00  0.00    -0.199 NA
ATOM     21  O   UNL     1      -0.172   7.789  -4.712  0.00  0.00    -0.268 OA
BRANCH  20  22
ATOM     22  C   UNL     1      -2.618   6.429  -4.407  0.00  0.00    +0.151 C 
BRANCH  22  23
ATOM     23  C   UNL     1      -3.530   5.292  -3.639  0.00  0.00    +0.206 C 
ATOM     24  O   UNL     1      -2.394   4.845  -2.732  0.00  0.00    -0.218 OA
BRANCH  23  25
ATOM     25  C   UNL     1      -4.070   6.398  -2.537  0.00  0.00    +0.217 C 
ATOM     26  O   UNL     1      -2.943   6.705  -1.778  0.00  0.00    -0.218 OA
ENDBRANCH  23  25
ENDBRANCH  22  23
ENDBRANCH  20  22
ENDBRANCH   7  19
BRANCH   1  28
ATOM     27  C   UNL     1       4.299   5.197  -7.854  0.00  0.00    +0.276 C 
ATOM     28  N   UNL     1       4.152   6.075  -6.730  0.00  0.00    -0.176 NA
ATOM     29  O   UNL     1       3.726   4.080  -7.811  0.00  0.00    -0.270 OA
BRANCH  27  30
ATOM     30  C   UNL     1       5.244   5.513  -8.973  0.00  0.00    +0.229 C 
BRANCH  30  32
ATOM     31  C   UNL     1       4.147   6.453 -10.630  0.00  0.00    +0.175 C 
ATOM     32  O   UNL     1       4.475   5.415 -10.133  0.00  0.00    -0.342 OA
ENDBRANCH  30  32
ENDBRANCH  27  30
ENDBRANCH   1  28
TORSDOF 11
ENDMDL
MODEL 4
REMARK VINA RESULT:      -5.1      1.215      1.488
REMARK  Name = 
REMARK  11 active torsions:
REMARK  status: ('A' for Active; 'I' for Inactive)
REMARK    1  A    between atoms: O_2  and  C_3
REMARK    2  A    between atoms: C_3  and  C_4
REMARK    3  A    between atoms: N_6  and  C_7
REMARK    4  A    between atoms: C_10  and  C_11
REMARK    5  A    between atoms: N_13  and  C_14
REMARK    6  A    between atoms: C_14  and  C_15
REMARK    7  A    between atoms: C_15  and  C_17
REMARK    8  A    between atoms: C_21  and  C_22
REMARK    9  A    between atoms: N_24  and  C_26
REMARK   10  A    between atoms: C_26  and  C_27
REMARK   11  A    between atoms: C_27  and  C_29
REMARK                            x       y       z     vdW  Elec       q    Type
REMARK                         _______ _______ _______ _____ _____    ______ ____
ROOT
ATOM      1  C   UNL     1       0.811   6.559  -3.980  0.00  0.00    +0.084 A 
ATOM      2  C   UNL     1       1.394   6.841  -2.748  0.00  0.00    +0.051 A 
ATOM      3  I   UNL     1       0.654   5.965  -0.958  0.00  0.00    -0.041 I 
ATOM      4  C   UNL     1       2.657   7.422  -2.779  0.00  0.00    +0.066 A 
ATOM      5  C   UNL     1       3.408   7.200  -3.927  0.00  0.00    +0.040 A 
ATOM      6  I   UNL     1       5.452   7.752  -3.940  0.00  0.00    -0.042 I 
ATOM      7  C   UNL     1       2.983   6.354  -4.948  0.00  0.00    +0.067 A 
ATOM      8  C   UNL     1       1.622   6.236  -5.068  0.00  0.00    +0.051 A 
ATOM      9  I   UNL     1       0.888   5.203  -6.742  0.00  0.00    -0.041 I 
ENDROOT
BRANCH   4  10
ATOM     10  C   UNL     1       3.328   7.724  -1.539  0.00  0.00    +0.250 C 
ATOM     11  N   UNL     1       3.947   6.755  -0.720  0.00  0.00    -0.272 N 
ATOM     12  C   UNL     1       4.205   5.404  -1.174  0.00  0.00    +0.115 C 
ATOM     13  O   UNL     1       3.178   8.900  -1.096  0.00  0.00    -0.270 OA
BRANCH  11  14
ATOM     14  C   UNL     1       3.969   6.971   0.721  0.00  0.00    +0.129 C 
BRANCH  14  15
ATOM     15  C   UNL     1       5.466   7.633   0.947  0.00  0.00    +0.204 C 
ATOM     16  O   UNL     1       4.890   8.989   1.328  0.00  0.00    -0.218 OA
BRANCH  15  17
ATOM     17  C   UNL     1       5.574   7.148   2.525  0.00  0.00    +0.217 C 
ATOM     18  O   UNL     1       4.280   6.914   2.911  0.00  0.00    -0.218 OA
ENDBRANCH  15  17
ENDBRANCH  14  15
ENDBRANCH  11  14
ENDBRANCH   4  10
BRANCH   7  19
ATOM     19  C   UNL     1       3.967   5.588  -5.692  0.00  0.00    +0.266 C 
ATOM     20  N   UNL     1       4.228   5.733  -7.064  0.00  0.00    -0.199 NA
ATOM     21  O   UNL     1       4.213   4.413  -5.277  0.00  0.00    -0.268 OA
BRANCH  20  22
ATOM     22  C   UNL     1       5.222   5.066  -7.822  0.00  0.00    +0.151 C 
BRANCH  22  23
ATOM     23  C   UNL     1       4.700   5.007  -9.385  0.00  0.00    +0.206 C 
ATOM     24  O   UNL     1       3.527   4.091  -9.066  0.00  0.00    -0.218 OA
BRANCH  23  25
ATOM     25  C   UNL     1       3.785   6.367  -9.181  0.00  0.00    +0.217 C 
ATOM     26  O   UNL     1       2.750   6.227 -10.103  0.00  0.00    -0.218 OA
ENDBRANCH  23  25
ENDBRANCH  22  23
ENDBRANCH  20  22
ENDBRANCH   7  19
BRANCH   1  28
ATOM     27  C   UNL     1      -1.668   6.871  -4.284  0.00  0.00    +0.276 C 
ATOM     28  N   UNL     1      -0.532   6.078  -3.917  0.00  0.00    -0.176 NA
ATOM     29  O   UNL     1      -1.471   8.063  -4.628  0.00  0.00    -0.270 OA
BRANCH  27  30
ATOM     30  C   UNL     1      -3.066   6.364  -4.099  0.00  0.00    +0.229 C 
BRANCH  30  32
ATOM     31  C   UNL     1      -3.333   6.607  -1.931  0.00  0.00    +0.175 C 
ATOM     32  O   UNL     1      -3.088   5.832  -2.810  0.00  0.00    -0.342 OA
ENDBRANCH  30  32
ENDBRANCH  27  30
ENDBRANCH   1  28
TORSDOF 11
ENDMDL
MODEL 5
REMARK VINA RESULT:      -5.1      1.735      7.393
REMARK  Name = 
REMARK  11 active torsions:
REMARK  status: ('A' for Active; 'I' for Inactive)
REMARK    1  A    between atoms: O_2  and  C_3
REMARK    2  A    between atoms: C_3  and  C_4
REMARK    3  A    between atoms: N_6  and  C_7
REMARK    4  A    between atoms: C_10  and  C_11
REMARK    5  A    between atoms: N_13  and  C_14
REMARK    6  A    between atoms: C_14  and  C_15
REMARK    7  A    between atoms: C_15  and  C_17
REMARK    8  A    between atoms: C_21  and  C_22
REMARK    9  A    between atoms: N_24  and  C_26
REMARK   10  A    between atoms: C_26  and  C_27
REMARK   11  A    between atoms: C_27  and  C_29
REMARK                            x       y       z     vdW  Elec       q    Type
REMARK                         _______ _______ _______ _____ _____    ______ ____
ROOT
ATOM      1  C   UNL     1       0.332   6.115  -2.727  0.00  0.00    +0.084 A 
ATOM      2  C   UNL     1       0.704   5.858  -4.043  0.00  0.00    +0.051 A 
ATOM      3  I   UNL     1      -0.243   6.853  -5.666  0.00  0.00    -0.041 I 
ATOM      4  C   UNL     1       1.919   5.208  -4.227  0.00  0.00    +0.066 A 
ATOM      5  C   UNL     1       2.847   5.337  -3.200  0.00  0.00    +0.040 A 
ATOM      6  I   UNL     1       4.832   4.673  -3.521  0.00  0.00    -0.042 I 
ATOM      7  C   UNL     1       2.633   6.157  -2.096  0.00  0.00    +0.067 A 
ATOM      8  C   UNL     1       1.316   6.344  -1.764  0.00  0.00    +0.051 A 
ATOM      9  I   UNL     1       0.907   7.339   0.038  0.00  0.00    -0.041 I 
ENDROOT
BRANCH   4  10
ATOM     10  C   UNL     1       2.375   4.926  -5.565  0.00  0.00    +0.250 C 
ATOM     11  N   UNL     1       3.009   5.872  -6.400  0.00  0.00    -0.272 N 
ATOM     12  C   UNL     1       3.505   7.139  -5.901  0.00  0.00    +0.115 C 
ATOM     13  O   UNL     1       2.010   3.818  -6.057  0.00  0.00    -0.270 OA
BRANCH  11  14
ATOM     14  C   UNL     1       2.813   5.774  -7.840  0.00  0.00    +0.129 C 
BRANCH  14  15
ATOM     15  C   UNL     1       4.304   5.282  -8.357  0.00  0.00    +0.204 C 
ATOM     16  O   UNL     1       3.750   4.006  -8.974  0.00  0.00    -0.218 OA
BRANCH  15  17
ATOM     17  C   UNL     1       4.212   6.106  -9.788  0.00  0.00    +0.217 C 
ATOM     18  O   UNL     1       4.658   5.221 -10.734  0.00  0.00    -0.218 OA
ENDBRANCH  15  17
ENDBRANCH  14  15
ENDBRANCH  11  14
ENDBRANCH   4  10
BRANCH   7  19
ATOM     19  C   UNL     1       3.763   6.833  -1.484  0.00  0.00    +0.266 C 
ATOM     20  N   UNL     1       4.231   6.599  -0.181  0.00  0.00    -0.199 NA
ATOM     21  O   UNL     1       4.004   8.018  -1.876  0.00  0.00    -0.268 OA
BRANCH  20  22
ATOM     22  C   UNL     1       5.367   7.176   0.438  0.00  0.00    +0.151 C 
BRANCH  22  23
ATOM     23  C   UNL     1       4.828   8.182   1.627  0.00  0.00    +0.206 C 
ATOM     24  O   UNL     1       4.002   7.101   2.309  0.00  0.00    -0.218 OA
BRANCH  23  25
ATOM     25  C   UNL     1       6.150   7.862   2.564  0.00  0.00    +0.217 C 
ATOM     26  O   UNL     1       5.896   6.601   3.100  0.00  0.00    -0.218 OA
ENDBRANCH  23  25
ENDBRANCH  22  23
ENDBRANCH  20  22
ENDBRANCH   7  19
BRANCH   1  28
ATOM     27  C   UNL     1      -2.018   6.024  -1.828  0.00  0.00    +0.276 C 
ATOM     28  N   UNL     1      -0.973   6.672  -2.566  0.00  0.00    -0.176 NA
ATOM     29  O   UNL     1      -1.784   4.888  -1.345  0.00  0.00    -0.270 OA
BRANCH  27  30
ATOM     30  C   UNL     1      -3.404   6.591  -1.776  0.00  0.00    +0.229 C 
BRANCH  30  32
ATOM     31  C   UNL     1      -3.669   5.458  -3.641  0.00  0.00    +0.175 C 
ATOM     32  O   UNL     1      -3.881   6.496  -3.083  0.00  0.00    -0.342 OA
ENDBRANCH  30  32
ENDBRANCH  27  30
ENDBRANCH   1  28
TORSDOF 11
ENDMDL
MODEL 6
REMARK VINA RESULT:      -5.0      3.712      6.876
REMARK  Name = 
REMARK  11 active torsions:
REMARK  status: ('A' for Active; 'I' for Inactive)
REMARK    1  A    between atoms: O_2  and  C_3
REMARK    2  A    between atoms: C_3  and  C_4
REMARK    3  A    between atoms: N_6  and  C_7
REMARK    4  A    between atoms: C_10  and  C_11
REMARK    5  A    between atoms: N_13  and  C_14
REMARK    6  A    between atoms: C_14  and  C_15
REMARK    7  A    between atoms: C_15  and  C_17
REMARK    8  A    between atoms: C_21  and  C_22
REMARK    9  A    between atoms: N_24  and  C_26
REMARK   10  A    between atoms: C_26  and  C_27
REMARK   11  A    between atoms: C_27  and  C_29
REMARK                            x       y       z     vdW  Elec       q    Type
REMARK                         _______ _______ _______ _____ _____    ______ ____
ROOT
ATOM      1  C   UNL     1       2.895   7.183  -0.325  0.00  0.00    +0.084 A 
ATOM      2  C   UNL     1       1.846   7.862   0.288  0.00  0.00    +0.051 A 
ATOM      3  I   UNL     1       2.088   9.856   0.985  0.00  0.00    -0.041 I 
ATOM      4  C   UNL     1       0.575   7.325   0.114  0.00  0.00    +0.066 A 
ATOM      5  C   UNL     1       0.393   6.527  -1.009  0.00  0.00    +0.040 A 
ATOM      6  I   UNL     1      -1.570   5.939  -1.543  0.00  0.00    -0.042 I 
ATOM      7  C   UNL     1       1.381   6.358  -1.975  0.00  0.00    +0.067 A 
ATOM      8  C   UNL     1       2.665   6.490  -1.515  0.00  0.00    +0.051 A 
ATOM      9  I   UNL     1       4.220   5.985  -2.832  0.00  0.00    -0.041 I 
ENDROOT
BRANCH   4  10
ATOM     10  C   UNL     1      -0.560   7.987   0.707  0.00  0.00    +0.250 C 
ATOM     11  N   UNL     1      -1.074   7.680   1.985  0.00  0.00    -0.272 N 
ATOM     12  C   UNL     1      -0.352   6.861   2.937  0.00  0.00    +0.115 C 
ATOM     13  O   UNL     1      -1.222   8.750  -0.056  0.00  0.00    -0.270 OA
BRANCH  11  14
ATOM     14  C   UNL     1      -2.503   7.839   2.219  0.00  0.00    +0.129 C 
BRANCH  14  15
ATOM     15  C   UNL     1      -2.535   8.461   3.750  0.00  0.00    +0.204 C 
ATOM     16  O   UNL     1      -2.228   9.870   3.263  0.00  0.00    -0.218 OA
BRANCH  15  17
ATOM     17  C   UNL     1      -4.167   8.728   3.737  0.00  0.00    +0.217 C 
ATOM     18  O   UNL     1      -4.304  10.059   3.441  0.00  0.00    -0.218 OA
ENDBRANCH  15  17
ENDBRANCH  14  15
ENDBRANCH  11  14
ENDBRANCH   4  10
BRANCH   7  19
ATOM     19  C   UNL     1       0.994   6.193  -3.365  0.00  0.00    +0.266 C 
ATOM     20  N   UNL     1       1.146   5.010  -4.107  0.00  0.00    -0.199 NA
ATOM     21  O   UNL     1       1.035   7.230  -4.098  0.00  0.00    -0.268 OA
BRANCH  20  22
ATOM     22  C   UNL     1       0.723   4.774  -5.438  0.00  0.00    +0.151 C 
BRANCH  22  23
ATOM     23  C   UNL     1       2.029   4.988  -6.421  0.00  0.00    +0.206 C 
ATOM     24  O   UNL     1       2.150   3.509  -6.754  0.00  0.00    -0.218 OA
BRANCH  23  25
ATOM     25  C   UNL     1       1.060   5.277  -7.727  0.00  0.00    +0.217 C 
ATOM     26  O   UNL     1       1.707   4.640  -8.783  0.00  0.00    -0.218 OA
ENDBRANCH  23  25
ENDBRANCH  22  23
ENDBRANCH  20  22
ENDBRANCH   7  19
BRANCH   1  28
ATOM     27  C   UNL     1       4.849   7.484   1.233  0.00  0.00    +0.276 C 
ATOM     28  N   UNL     1       4.197   7.688  -0.028  0.00  0.00    -0.176 NA
ATOM     29  O   UNL     1       4.219   6.876   2.133  0.00  0.00    -0.270 OA
BRANCH  27  30
ATOM     30  C   UNL     1       6.169   8.123   1.541  0.00  0.00    +0.229 C 
BRANCH  30  32
ATOM     31  C   UNL     1       6.842   9.583   3.040  0.00  0.00    +0.175 C 
ATOM     32  O   UNL     1       5.890   9.066   2.530  0.00  0.00    -0.342 OA
ENDBRANCH  30  32
ENDBRANCH  27  30
ENDBRANCH   1  28
TORSDOF 11
ENDMDL
MODEL 7
REMARK VINA RESULT:      -4.6      4.005      8.095
REMARK  Name = 
REMARK  11 active torsions:
REMARK  status: ('A' for Active; 'I' for Inactive)
REMARK    1  A    between atoms: O_2  and  C_3
REMARK    2  A    between atoms: C_3  and  C_4
REMARK    3  A    between atoms: N_6  and  C_7
REMARK    4  A    between atoms: C_10  and  C_11
REMARK    5  A    between atoms: N_13  and  C_14
REMARK    6  A    between atoms: C_14  and  C_15
REMARK    7  A    between atoms: C_15  and  C_17
REMARK    8  A    between atoms: C_21  and  C_22
REMARK    9  A    between atoms: N_24  and  C_26
REMARK   10  A    between atoms: C_26  and  C_27
REMARK   11  A    between atoms: C_27  and  C_29
REMARK                            x       y       z     vdW  Elec       q    Type
REMARK                         _______ _______ _______ _____ _____    ______ ____
ROOT
ATOM      1  C   UNL     1      -0.285   7.587   0.934  0.00  0.00    +0.084 A 
ATOM      2  C   UNL     1      -0.274   6.790  -0.208  0.00  0.00    +0.051 A 
ATOM      3  I   UNL     1      -1.836   6.911  -1.645  0.00  0.00    -0.041 I 
ATOM      4  C   UNL     1       0.937   6.188  -0.532  0.00  0.00    +0.066 A 
ATOM      5  C   UNL     1       2.081   6.806  -0.042  0.00  0.00    +0.040 A 
ATOM      6  I   UNL     1       3.974   6.170  -0.747  0.00  0.00    -0.042 I 
ATOM      7  C   UNL     1       2.043   8.020   0.639  0.00  0.00    +0.067 A 
ATOM      8  C   UNL     1       0.874   8.268   1.309  0.00  0.00    +0.051 A 
ATOM      9  I   UNL     1       0.825   9.939   2.579  0.00  0.00    -0.041 I 
ENDROOT
BRANCH   4  10
ATOM     10  C   UNL     1       1.024   5.365  -1.711  0.00  0.00    +0.250 C 
ATOM     11  N   UNL     1       1.309   5.860  -3.002  0.00  0.00    -0.272 N 
ATOM     12  C   UNL     1       1.806   7.203  -3.226  0.00  0.00    +0.115 C 
ATOM     13  O   UNL     1       0.640   4.165  -1.584  0.00  0.00    -0.270 OA
BRANCH  11  14
ATOM     14  C   UNL     1       0.728   5.183  -4.153  0.00  0.00    +0.129 C 
BRANCH  14  15
ATOM     15  C   UNL     1       0.123   6.449  -5.028  0.00  0.00    +0.204 C 
ATOM     16  O   UNL     1       0.735   5.940  -6.325  0.00  0.00    -0.218 OA
BRANCH  15  17
ATOM     17  C   UNL     1      -1.324   5.706  -5.329  0.00  0.00    +0.217 C 
ATOM     18  O   UNL     1      -2.196   6.728  -5.598  0.00  0.00    -0.218 OA
ENDBRANCH  15  17
ENDBRANCH  14  15
ENDBRANCH  11  14
ENDBRANCH   4  10
BRANCH   7  19
ATOM     19  C   UNL     1       3.145   8.953   0.487  0.00  0.00    +0.266 C 
ATOM     20  N   UNL     1       3.947   9.428   1.538  0.00  0.00    -0.199 NA
ATOM     21  O   UNL     1       3.065   9.785  -0.470  0.00  0.00    -0.268 OA
BRANCH  20  22
ATOM     22  C   UNL     1       5.075  10.280   1.437  0.00  0.00    +0.151 C 
BRANCH  22  23
ATOM     23  C   UNL     1       4.726  11.665   2.260  0.00  0.00    +0.206 C 
ATOM     24  O   UNL     1       5.981  11.593   3.117  0.00  0.00    -0.218 OA
BRANCH  23  25
ATOM     25  C   UNL     1       5.474  12.591   1.115  0.00  0.00    +0.217 C 
ATOM     26  O   UNL     1       4.586  12.596   0.042  0.00  0.00    -0.218 OA
ENDBRANCH  23  25
ENDBRANCH  22  23
ENDBRANCH  20  22
ENDBRANCH   7  19
BRANCH   1  28
ATOM     27  C   UNL     1      -2.400   7.464   2.292  0.00  0.00    +0.276 C 
ATOM     28  N   UNL     1      -1.567   8.090   1.307  0.00  0.00    -0.176 NA
ATOM     29  O   UNL     1      -2.000   6.393   2.811  0.00  0.00    -0.270 OA
BRANCH  27  30
ATOM     30  C   UNL     1      -3.785   7.964   2.575  0.00  0.00    +0.229 C 
BRANCH  30  32
ATOM     31  C   UNL     1      -3.980   9.859   3.672  0.00  0.00    +0.175 C 
ATOM     32  O   UNL     1      -3.666   8.706   3.750  0.00  0.00    -0.342 OA
ENDBRANCH  30  32
ENDBRANCH  27  30
ENDBRANCH   1  28
TORSDOF 11
ENDMDL
MODEL 8
REMARK VINA RESULT:      -4.3      1.670      6.002
REMARK  Name = 
REMARK  11 active torsions:
REMARK  status: ('A' for Active; 'I' for Inactive)
REMARK    1  A    between atoms: O_2  and  C_3
REMARK    2  A    between atoms: C_3  and  C_4
REMARK    3  A    between atoms: N_6  and  C_7
REMARK    4  A    between atoms: C_10  and  C_11
REMARK    5  A    between atoms: N_13  and  C_14
REMARK    6  A    between atoms: C_14  and  C_15
REMARK    7  A    between atoms: C_15  and  C_17
REMARK    8  A    between atoms: C_21  and  C_22
REMARK    9  A    between atoms: N_24  and  C_26
REMARK   10  A    between atoms: C_26  and  C_27
REMARK   11  A    between atoms: C_27  and  C_29
REMARK                            x       y       z     vdW  Elec       q    Type
REMARK                         _______ _______ _______ _____ _____    ______ ____
ROOT
ATOM      1  C   UNL     1       3.724   6.396  -2.415  0.00  0.00    +0.084 A 
ATOM      2  C   UNL     1       2.352   6.295  -2.202  0.00  0.00    +0.051 A 
ATOM      3  I   UNL     1       1.336   7.659  -0.927  0.00  0.00    -0.041 I 
ATOM      4  C   UNL     1       1.642   5.508  -3.102  0.00  0.00    +0.066 A 
ATOM      5  C   UNL     1       2.217   5.335  -4.355  0.00  0.00    +0.040 A 
ATOM      6  I   UNL     1       1.073   4.442  -5.897  0.00  0.00    -0.042 I 
ATOM      7  C   UNL     1       3.379   5.997  -4.743  0.00  0.00    +0.067 A 
ATOM      8  C   UNL     1       4.226   6.324  -3.715  0.00  0.00    +0.051 A 
ATOM      9  I   UNL     1       6.118   7.075  -4.226  0.00  0.00    -0.041 I 
ENDROOT
BRANCH   4  10
ATOM     10  C   UNL     1       0.215   5.373  -2.951  0.00  0.00    +0.250 C 
ATOM     11  N   UNL     1      -0.726   6.267  -3.506  0.00  0.00    -0.272 N 
ATOM     12  C   UNL     1      -0.366   7.253  -4.504  0.00  0.00    +0.115 C 
ATOM     13  O   UNL     1      -0.179   4.503  -2.119  0.00  0.00    -0.270 OA
BRANCH  11  14
ATOM     14  C   UNL     1      -1.979   6.489  -2.797  0.00  0.00    +0.129 C 
BRANCH  14  15
ATOM     15  C   UNL     1      -3.080   5.801  -3.821  0.00  0.00    +0.204 C 
ATOM     16  O   UNL     1      -3.063   4.478  -3.067  0.00  0.00    -0.218 OA
BRANCH  15  17
ATOM     17  C   UNL     1      -4.391   6.354  -2.976  0.00  0.00    +0.217 C 
ATOM     18  O   UNL     1      -3.889   6.743  -1.762  0.00  0.00    -0.218 OA
ENDBRANCH  15  17
ENDBRANCH  14  15
ENDBRANCH  11  14
ENDBRANCH   4  10
BRANCH   7  19
ATOM     19  C   UNL     1       3.541   6.394  -6.130  0.00  0.00    +0.266 C 
ATOM     20  N   UNL     1       4.434   5.801  -7.037  0.00  0.00    -0.199 NA
ATOM     21  O   UNL     1       3.310   7.612  -6.409  0.00  0.00    -0.268 OA
BRANCH  20  22
ATOM     22  C   UNL     1       4.582   6.100  -8.414  0.00  0.00    +0.151 C 
BRANCH  22  23
ATOM     23  C   UNL     1       3.919   4.856  -9.267  0.00  0.00    +0.206 C 
ATOM     24  O   UNL     1       2.627   5.607  -9.555  0.00  0.00    -0.218 OA
BRANCH  23  25
ATOM     25  C   UNL     1       4.619   5.379 -10.669  0.00  0.00    +0.217 C 
ATOM     26  O   UNL     1       5.927   5.692 -10.304  0.00  0.00    -0.218 OA
ENDBRANCH  23  25
ENDBRANCH  22  23
ENDBRANCH  20  22
ENDBRANCH   7  19
BRANCH   1  28
ATOM     27  C   UNL     1       4.876   6.507  -0.180  0.00  0.00    +0.276 C 
ATOM     28  N   UNL     1       4.441   7.108  -1.407  0.00  0.00    -0.176 NA
ATOM     29  O   UNL     1       4.563   5.310   0.036  0.00  0.00    -0.270 OA
BRANCH  27  30
ATOM     30  C   UNL     1       5.530   7.319   0.897  0.00  0.00    +0.229 C 
BRANCH  30  32
ATOM     31  C   UNL     1       4.617   7.777   2.844  0.00  0.00    +0.175 C 
ATOM     32  O   UNL     1       4.918   6.905   2.080  0.00  0.00    -0.342 OA
ENDBRANCH  30  32
ENDBRANCH  27  30
ENDBRANCH   1  28
TORSDOF 11
ENDMDL
MODEL 9
REMARK VINA RESULT:      -4.0      3.270      7.325
REMARK  Name = 
REMARK  11 active torsions:
REMARK  status: ('A' for Active; 'I' for Inactive)
REMARK    1  A    between atoms: O_2  and  C_3
REMARK    2  A    between atoms: C_3  and  C_4
REMARK    3  A    between atoms: N_6  and  C_7
REMARK    4  A    between atoms: C_10  and  C_11
REMARK    5  A    between atoms: N_13  and  C_14
REMARK    6  A    between atoms: C_14  and  C_15
REMARK    7  A    between atoms: C_15  and  C_17
REMARK    8  A    between atoms: C_21  and  C_22
REMARK    9  A    between atoms: N_24  and  C_26
REMARK   10  A    between atoms: C_26  and  C_27
REMARK   11  A    between atoms: C_27  and  C_29
REMARK                            x       y       z     vdW  Elec       q    Type
REMARK                         _______ _______ _______ _____ _____    ______ ____
ROOT
ATOM      1  C   UNL     1       0.462   5.534  -2.914  0.00  0.00    +0.084 A 
ATOM      2  C   UNL     1       1.701   6.144  -2.738  0.00  0.00    +0.051 A 
ATOM      3  I   UNL     1       2.787   6.923  -4.391  0.00  0.00    -0.041 I 
ATOM      4  C   UNL     1       2.025   6.523  -1.440  0.00  0.00    +0.066 A 
ATOM      5  C   UNL     1       0.957   6.740  -0.577  0.00  0.00    +0.040 A 
ATOM      6  I   UNL     1       1.322   7.636   1.306  0.00  0.00    -0.042 I 
ATOM      7  C   UNL     1      -0.368   6.695  -1.002  0.00  0.00    +0.067 A 
ATOM      8  C   UNL     1      -0.601   5.880  -2.079  0.00  0.00    +0.051 A 
ATOM      9  I   UNL     1      -2.601   5.538  -2.617  0.00  0.00    -0.041 I 
ENDROOT
BRANCH   4  10
ATOM     10  C   UNL     1       3.285   7.176  -1.187  0.00  0.00    +0.250 C 
ATOM     11  N   UNL     1       4.430   6.518  -0.688  0.00  0.00    -0.272 N 
ATOM     12  C   UNL     1       4.534   5.074  -0.634  0.00  0.00    +0.115 C 
ATOM     13  O   UNL     1       3.281   8.441  -1.251  0.00  0.00    -0.270 OA
BRANCH  11  14
ATOM     14  C   UNL     1       5.353   7.267   0.154  0.00  0.00    +0.129 C 
BRANCH  14  15
ATOM     15  C   UNL     1       4.512   7.379   1.572  0.00  0.00    +0.204 C 
ATOM     16  O   UNL     1       5.608   6.678   2.363  0.00  0.00    -0.218 OA
BRANCH  15  17
ATOM     17  C   UNL     1       5.101   8.881   1.941  0.00  0.00    +0.217 C 
ATOM     18  O   UNL     1       4.291   9.339   2.948  0.00  0.00    -0.218 OA
ENDBRANCH  15  17
ENDBRANCH  14  15
ENDBRANCH  11  14
ENDBRANCH   4  10
BRANCH   7  19
ATOM     19  C   UNL     1      -1.342   7.578  -0.384  0.00  0.00    +0.266 C 
ATOM     20  N   UNL     1      -2.132   7.250   0.730  0.00  0.00    -0.199 NA
ATOM     21  O   UNL     1      -1.906   8.428  -1.141  0.00  0.00    -0.268 OA
BRANCH  20  22
ATOM     22  C   UNL     1      -3.042   8.094   1.413  0.00  0.00    +0.151 C 
BRANCH  22  23
ATOM     23  C   UNL     1      -3.416   7.367   2.844  0.00  0.00    +0.206 C 
ATOM     24  O   UNL     1      -1.977   7.373   3.341  0.00  0.00    -0.218 OA
BRANCH  23  25
ATOM     25  C   UNL     1      -3.742   8.823   3.554  0.00  0.00    +0.217 C 
ATOM     26  O   UNL     1      -3.058   9.749   2.770  0.00  0.00    -0.218 OA
ENDBRANCH  23  25
ENDBRANCH  22  23
ENDBRANCH  20  22
ENDBRANCH   7  19
BRANCH   1  28
ATOM     27  C   UNL     1      -0.310   5.867  -5.287  0.00  0.00    +0.276 C 
ATOM     28  N   UNL     1       0.212   5.047  -4.232  0.00  0.00    -0.176 NA
ATOM     29  O   UNL     1      -0.608   7.057  -5.018  0.00  0.00    -0.270 OA
BRANCH  27  30
ATOM     30  C   UNL     1      -0.660   5.289  -6.624  0.00  0.00    +0.229 C 
BRANCH  30  32
ATOM     31  C   UNL     1       0.763   5.805  -8.218  0.00  0.00    +0.175 C 
ATOM     32  O   UNL     1       0.563   5.105  -7.268  0.00  0.00    -0.342 OA
ENDBRANCH  30  32
ENDBRANCH  27  30
ENDBRANCH   1  28
TORSDOF 11
ENDMDL
