MODEL 1
REMARK VINA RESULT:      -9.5      0.000      0.000
REMARK  Name = 
REMARK  9 active torsions:
REMARK  status: ('A' for Active; 'I' for Inactive)
REMARK    1  A    between atoms: C_2  and  C_3
REMARK    2  A    between atoms: C_3  and  S_4
REMARK    3  A    between atoms: S_4  and  C_5
REMARK    4  A    between atoms: N_11  and  C_12
REMARK    5  A    between atoms: C_14  and  O_15
REMARK    6  A    between atoms: O_15  and  C_16
REMARK    7  A    between atoms: C_16  and  C_17
REMARK    8  A    between atoms: N_24  and  C_25
REMARK    9  A    between atoms: C_27  and  C_28
REMARK                            x       y       z     vdW  Elec       q    Type
REMARK                         _______ _______ _______ _____ _____    ______ ____
ROOT
ATOM      1  C   UNL     1       1.418   5.858 -11.188  0.00  0.00    +0.193 A 
ATOM      2  N   UNL     1       0.829   6.205 -10.017  0.00  0.00    -0.203 NA
ATOM      3  C   UNL     1       1.364   5.859  -8.819  0.00  0.00    +0.172 A 
ATOM      4  N   UNL     1       0.799   6.346  -7.671  0.00  0.00    -0.220 NA
ATOM      5  C   UNL     1       2.559   5.139  -8.857  0.00  0.00    +0.173 A 
ATOM      6  N   UNL     1       3.431   4.772  -7.895  0.00  0.00    -0.124 NA
ATOM      7  N   UNL     1       4.648   5.040  -8.373  0.00  0.00    -0.062 NA
ATOM      8  N   UNL     1       4.671   5.127  -9.673  0.00  0.00    -0.214 N 
ATOM      9  C   UNL     1       3.349   5.127 -10.003  0.00  0.00    +0.185 A 
ATOM     10  N   UNL     1       2.601   5.189 -11.133  0.00  0.00    -0.201 NA
ENDROOT
BRANCH   8  11
ATOM     11  C   UNL     1       5.438   6.262 -10.463  0.00  0.00    +0.144 C 
ATOM     12  C   UNL     1       6.983   5.517 -10.384  0.00  0.00    +0.207 C 
ATOM     13  O   UNL     1       7.394   6.272  -9.133  0.00  0.00    -0.218 OA
ATOM     14  C   UNL     1       7.594   6.644 -11.522  0.00  0.00    +0.211 C 
ATOM     15  O   UNL     1       7.346   7.871 -10.668  0.00  0.00    -0.218 OA
ATOM     16  C   UNL     1       6.082   6.945 -12.307  0.00  0.00    +0.150 C 
ATOM     17  C   UNL     1       5.416   5.484 -11.921  0.00  0.00    +0.059 C 
BRANCH  16  18
ATOM     18  O   UNL     1       6.606   6.441 -13.652  0.00  0.00    -0.351 OA
BRANCH  18  19
ATOM     19  C   UNL     1       5.402   6.343 -14.359  0.00  0.00    +0.178 C 
BRANCH  19  20
ATOM     20  C   UNL     1       5.434   7.071 -15.670  0.00  0.00    +0.214 C 
ATOM     21  O   UNL     1       6.146   8.262 -15.622  0.00  0.00    -0.218 OA
ENDBRANCH  19  20
ENDBRANCH  18  19
ENDBRANCH  16  18
ENDBRANCH   8  11
BRANCH   4  22
ATOM     22  C   UNL     1       0.440   5.359  -6.458  0.00  0.00    +0.098 C 
ATOM     23  C   UNL     1      -0.701   6.481  -5.770  0.00  0.00    +0.044 C 
ATOM     24  C   UNL     1      -1.252   5.235  -6.849  0.00  0.00    +0.028 C 
BRANCH  23  25
ATOM     25  C   UNL     1      -0.961   5.589  -4.419  0.00  0.00    -0.018 A 
ATOM     26  C   UNL     1      -2.279   5.711  -3.982  0.00  0.00    +0.028 A 
ATOM     27  C   UNL     1      -2.607   6.173  -2.712  0.00  0.00    +0.167 A 
ATOM     28  F   UNL     1      -3.883   6.395  -2.305  0.00  0.00    -0.202 F 
ATOM     29  C   UNL     1      -1.626   6.741  -1.906  0.00  0.00    +0.167 A 
ATOM     30  F   UNL     1      -1.839   7.965  -1.331  0.00  0.00    -0.202 F 
ATOM     31  C   UNL     1      -0.348   6.264  -2.163  0.00  0.00    +0.032 A 
ATOM     32  C   UNL     1      -0.004   5.816  -3.434  0.00  0.00    -0.002 A 
ENDBRANCH  23  25
ENDBRANCH   4  22
BRANCH   1  33
ATOM     33  S   UNL     1       1.025   6.910 -12.586  0.00  0.00    -0.076 S 
BRANCH  33  34
ATOM     34  C   UNL     1       1.025   6.077 -14.149  0.00  0.00    +0.065 C 
BRANCH  34  36
ATOM     35  C   UNL     1       0.478   4.085 -14.321  0.00  0.00    +0.001 C 
ATOM     36  C   UNL     1       0.890   4.587 -14.098  0.00  0.00    +0.012 C 
ENDBRANCH  34  36
ENDBRANCH  33  34
ENDBRANCH   1  33
TORSDOF 9
ENDMDL
MODEL 2
REMARK VINA RESULT:      -9.2      5.299     10.006
REMARK  Name = 
REMARK  9 active torsions:
REMARK  status: ('A' for Active; 'I' for Inactive)
REMARK    1  A    between atoms: C_2  and  C_3
REMARK    2  A    between atoms: C_3  and  S_4
REMARK    3  A    between atoms: S_4  and  C_5
REMARK    4  A    between atoms: N_11  and  C_12
REMARK    5  A    between atoms: C_14  and  O_15
REMARK    6  A    between atoms: O_15  and  C_16
REMARK    7  A    between atoms: C_16  and  C_17
REMARK    8  A    between atoms: N_24  and  C_25
REMARK    9  A    between atoms: C_27  and  C_28
REMARK                            x       y       z     vdW  Elec       q    Type
REMARK                         _______ _______ _______ _____ _____    ______ ____
ROOT
ATOM      1  C   UNL     1      -0.698   6.343  -5.686  0.00  0.00    +0.193 A 
ATOM      2  N   UNL     1      -0.263   5.908  -6.894  0.00  0.00    -0.203 NA
ATOM      3  C   UNL     1       0.988   6.179  -7.343  0.00  0.00    +0.172 A 
ATOM      4  N   UNL     1       1.417   5.605  -8.510  0.00  0.00    -0.220 NA
ATOM      5  C   UNL     1       1.808   6.918  -6.488  0.00  0.00    +0.173 A 
ATOM      6  N   UNL     1       3.120   7.232  -6.532  0.00  0.00    -0.124 NA
ATOM      7  N   UNL     1       3.595   7.016  -5.303  0.00  0.00    -0.062 NA
ATOM      8  N   UNL     1       2.662   7.018  -4.394  0.00  0.00    -0.214 N 
ATOM      9  C   UNL     1       1.516   7.021  -5.132  0.00  0.00    +0.185 A 
ATOM     10  N   UNL     1       0.179   7.025  -4.901  0.00  0.00    -0.201 NA
ENDROOT
BRANCH   8  11
ATOM     11  C   UNL     1       2.568   5.951  -3.230  0.00  0.00    +0.144 C 
ATOM     12  C   UNL     1       3.886   6.570  -2.319  0.00  0.00    +0.207 C 
ATOM     13  O   UNL     1       4.893   5.623  -2.947  0.00  0.00    -0.218 OA
ATOM     14  C   UNL     1       3.451   5.570  -0.996  0.00  0.00    +0.211 C 
ATOM     15  O   UNL     1       3.641   4.258  -1.730  0.00  0.00    -0.218 OA
ATOM     16  C   UNL     1       1.767   5.485  -1.380  0.00  0.00    +0.150 C 
ATOM     17  C   UNL     1       1.723   6.922  -2.193  0.00  0.00    +0.059 C 
BRANCH  16  18
ATOM     18  O   UNL     1       1.365   6.131  -0.054  0.00  0.00    -0.351 OA
BRANCH  18  19
ATOM     19  C   UNL     1       0.071   6.556  -0.374  0.00  0.00    +0.178 C 
BRANCH  19  20
ATOM     20  C   UNL     1      -0.403   7.686   0.492  0.00  0.00    +0.214 C 
ATOM     21  O   UNL     1      -1.393   8.458  -0.101  0.00  0.00    -0.218 OA
ENDBRANCH  19  20
ENDBRANCH  18  19
ENDBRANCH  16  18
ENDBRANCH   8  11
BRANCH   4  22
ATOM     22  C   UNL     1       2.093   6.502  -9.657  0.00  0.00    +0.098 C 
ATOM     23  C   UNL     1       3.235   5.255 -10.076  0.00  0.00    +0.044 C 
ATOM     24  C   UNL     1       1.741   5.393 -10.953  0.00  0.00    +0.028 C 
BRANCH  23  25
ATOM     25  C   UNL     1       4.074   6.197 -11.126  0.00  0.00    -0.018 A 
ATOM     26  C   UNL     1       4.812   5.420 -12.017  0.00  0.00    +0.028 A 
ATOM     27  C   UNL     1       6.192   5.530 -12.141  0.00  0.00    +0.167 A 
ATOM     28  F   UNL     1       6.939   4.714 -12.928  0.00  0.00    -0.202 F 
ATOM     29  C   UNL     1       6.915   6.271 -11.210  0.00  0.00    +0.167 A 
ATOM     30  F   UNL     1       8.002   5.716 -10.592  0.00  0.00    -0.202 F 
ATOM     31  C   UNL     1       6.185   7.299 -10.629  0.00  0.00    +0.032 A 
ATOM     32  C   UNL     1       4.806   7.192 -10.485  0.00  0.00    -0.002 A 
ENDBRANCH  23  25
ENDBRANCH   4  22
BRANCH   1  33
ATOM     33  S   UNL     1      -2.026   5.384  -4.957  0.00  0.00    -0.076 S 
BRANCH  33  34
ATOM     34  C   UNL     1      -2.025   5.365  -3.186  0.00  0.00    +0.065 C 
BRANCH  34  36
ATOM     35  C   UNL     1      -3.663   6.490  -2.596  0.00  0.00    +0.001 C 
ATOM     36  C   UNL     1      -3.019   6.263  -2.520  0.00  0.00    +0.012 C 
ENDBRANCH  34  36
ENDBRANCH  33  34
ENDBRANCH   1  33
TORSDOF 9
ENDMDL
MODEL 3
REMARK VINA RESULT:      -9.2      5.962     10.883
REMARK  Name = 
REMARK  9 active torsions:
REMARK  status: ('A' for Active; 'I' for Inactive)
REMARK    1  A    between atoms: C_2  and  C_3
REMARK    2  A    between atoms: C_3  and  S_4
REMARK    3  A    between atoms: S_4  and  C_5
REMARK    4  A    between atoms: N_11  and  C_12
REMARK    5  A    between atoms: C_14  and  O_15
REMARK    6  A    between atoms: O_15  and  C_16
REMARK    7  A    between atoms: C_16  and  C_17
REMARK    8  A    between atoms: N_24  and  C_25
REMARK    9  A    between atoms: C_27  and  C_28
REMARK                            x       y       z     vdW  Elec       q    Type
REMARK                         _______ _______ _______ _____ _____    ______ ____
ROOT
ATOM      1  C   UNL     1       3.531   6.201  -4.356  0.00  0.00    +0.193 A 
ATOM      2  N   UNL     1       4.039   6.468  -5.585  0.00  0.00    -0.203 NA
ATOM      3  C   UNL     1       3.480   5.961  -6.713  0.00  0.00    +0.172 A 
ATOM      4  N   UNL     1       3.953   6.368  -7.931  0.00  0.00    -0.220 NA
ATOM      5  C   UNL     1       2.349   5.163  -6.541  0.00  0.00    +0.173 A 
ATOM      6  N   UNL     1       1.466   4.634  -7.415  0.00  0.00    -0.124 NA
ATOM      7  N   UNL     1       0.254   4.859  -6.902  0.00  0.00    -0.062 NA
ATOM      8  N   UNL     1       0.282   5.078  -5.618  0.00  0.00    -0.214 N 
ATOM      9  C   UNL     1       1.614   5.210  -5.360  0.00  0.00    +0.185 A 
ATOM     10  N   UNL     1       2.404   5.444  -4.282  0.00  0.00    -0.201 NA
ENDROOT
BRANCH   8  11
ATOM     11  C   UNL     1      -0.536   6.229  -4.906  0.00  0.00    +0.144 C 
ATOM     12  C   UNL     1      -2.077   5.499  -5.111  0.00  0.00    +0.207 C 
ATOM     13  O   UNL     1      -2.371   6.247  -6.398  0.00  0.00    -0.218 OA
ATOM     14  C   UNL     1      -2.770   6.643  -4.038  0.00  0.00    +0.211 C 
ATOM     15  O   UNL     1      -2.436   7.859  -4.878  0.00  0.00    -0.218 OA
ATOM     16  C   UNL     1      -1.327   6.936  -3.130  0.00  0.00    +0.150 C 
ATOM     17  C   UNL     1      -0.647   5.464  -3.445  0.00  0.00    +0.059 C 
BRANCH  16  18
ATOM     18  O   UNL     1      -1.969   6.450  -1.830  0.00  0.00    -0.351 OA
BRANCH  18  19
ATOM     19  C   UNL     1      -0.868   6.535  -0.970  0.00  0.00    +0.178 C 
BRANCH  19  20
ATOM     20  C   UNL     1      -1.157   7.328   0.270  0.00  0.00    +0.214 C 
ATOM     21  O   UNL     1      -1.317   8.687   0.031  0.00  0.00    -0.218 OA
ENDBRANCH  19  20
ENDBRANCH  18  19
ENDBRANCH  16  18
ENDBRANCH   8  11
BRANCH   4  22
ATOM     22  C   UNL     1       4.334   5.290  -9.057  0.00  0.00    +0.098 C 
ATOM     23  C   UNL     1       5.269   6.445  -9.967  0.00  0.00    +0.044 C 
ATOM     24  C   UNL     1       6.055   5.408  -8.814  0.00  0.00    +0.028 C 
BRANCH  23  25
ATOM     25  C   UNL     1       5.531   5.432 -11.231  0.00  0.00    -0.018 A 
ATOM     26  C   UNL     1       6.851   5.509 -11.671  0.00  0.00    +0.028 A 
ATOM     27  C   UNL     1       7.187   5.852 -12.976  0.00  0.00    +0.167 A 
ATOM     28  F   UNL     1       8.465   6.030 -13.395  0.00  0.00    -0.202 F 
ATOM     29  C   UNL     1       6.212   6.350 -13.835  0.00  0.00    +0.167 A 
ATOM     30  F   UNL     1       6.434   7.516 -14.516  0.00  0.00    -0.202 F 
ATOM     31  C   UNL     1       4.931   5.904 -13.541  0.00  0.00    +0.032 A 
ATOM     32  C   UNL     1       4.578   5.575 -12.236  0.00  0.00    -0.002 A 
ENDBRANCH  23  25
ENDBRANCH   4  22
BRANCH   1  33
ATOM     33  S   UNL     1       3.903   7.418  -3.092  0.00  0.00    -0.076 S 
BRANCH  33  34
ATOM     34  C   UNL     1       4.370   6.728  -1.530  0.00  0.00    +0.065 C 
BRANCH  34  36
ATOM     35  C   UNL     1       4.156   4.707  -1.119  0.00  0.00    +0.001 C 
ATOM     36  C   UNL     1       3.906   5.330  -1.265  0.00  0.00    +0.012 C 
ENDBRANCH  34  36
ENDBRANCH  33  34
ENDBRANCH   1  33
TORSDOF 9
ENDMDL
MODEL 4
REMARK VINA RESULT:      -8.7      2.173      2.711
REMARK  Name = 
REMARK  9 active torsions:
REMARK  status: ('A' for Active; 'I' for Inactive)
REMARK    1  A    between atoms: C_2  and  C_3
REMARK    2  A    between atoms: C_3  and  S_4
REMARK    3  A    between atoms: S_4  and  C_5
REMARK    4  A    between atoms: N_11  and  C_12
REMARK    5  A    between atoms: C_14  and  O_15
REMARK    6  A    between atoms: O_15  and  C_16
REMARK    7  A    between atoms: C_16  and  C_17
REMARK    8  A    between atoms: N_24  and  C_25
REMARK    9  A    between atoms: C_27  and  C_28
REMARK                            x       y       z     vdW  Elec       q    Type
REMARK                         _______ _______ _______ _____ _____    ______ ____
ROOT
ATOM      1  C   UNL     1       1.300   5.820 -10.401  0.00  0.00    +0.193 A 
ATOM      2  N   UNL     1       0.952   6.217  -9.152  0.00  0.00    -0.203 NA
ATOM      3  C   UNL     1       1.721   5.932  -8.072  0.00  0.00    +0.172 A 
ATOM      4  N   UNL     1       1.390   6.468  -6.857  0.00  0.00    -0.220 NA
ATOM      5  C   UNL     1       2.897   5.220  -8.317  0.00  0.00    +0.173 A 
ATOM      6  N   UNL     1       3.950   4.905  -7.534  0.00  0.00    -0.124 NA
ATOM      7  N   UNL     1       5.042   5.160  -8.259  0.00  0.00    -0.062 NA
ATOM      8  N   UNL     1       4.802   5.187  -9.540  0.00  0.00    -0.214 N 
ATOM      9  C   UNL     1       3.441   5.160  -9.597  0.00  0.00    +0.185 A 
ATOM     10  N   UNL     1       2.481   5.164 -10.555  0.00  0.00    -0.201 NA
ENDROOT
BRANCH   8  11
ATOM     11  C   UNL     1       5.376   6.289 -10.517  0.00  0.00    +0.144 C 
ATOM     12  C   UNL     1       6.981   5.677 -10.549  0.00  0.00    +0.207 C 
ATOM     13  O   UNL     1       7.456   6.587  -9.432  0.00  0.00    -0.218 OA
ATOM     14  C   UNL     1       7.363   6.723 -11.852  0.00  0.00    +0.211 C 
ATOM     15  O   UNL     1       7.102   8.009 -11.094  0.00  0.00    -0.218 OA
ATOM     16  C   UNL     1       5.754   6.825 -12.480  0.00  0.00    +0.150 C 
ATOM     17  C   UNL     1       5.265   5.365 -11.882  0.00  0.00    +0.059 C 
BRANCH  16  18
ATOM     18  O   UNL     1       6.170   6.226 -13.823  0.00  0.00    -0.351 OA
BRANCH  18  19
ATOM     19  C   UNL     1       4.919   6.129 -14.443  0.00  0.00    +0.178 C 
BRANCH  19  20
ATOM     20  C   UNL     1       4.834   6.927 -15.711  0.00  0.00    +0.214 C 
ATOM     21  O   UNL     1       3.531   7.181 -16.116  0.00  0.00    -0.218 OA
ENDBRANCH  19  20
ENDBRANCH  18  19
ENDBRANCH  16  18
ENDBRANCH   8  11
BRANCH   4  22
ATOM     22  C   UNL     1       1.298   5.535  -5.553  0.00  0.00    +0.098 C 
ATOM     23  C   UNL     1       2.069   6.727  -4.543  0.00  0.00    +0.044 C 
ATOM     24  C   UNL     1       0.334   6.652  -4.627  0.00  0.00    +0.028 C 
BRANCH  23  25
ATOM     25  C   UNL     1       2.165   5.744  -3.234  0.00  0.00    -0.018 A 
ATOM     26  C   UNL     1       1.835   6.429  -2.066  0.00  0.00    +0.028 A 
ATOM     27  C   UNL     1       2.707   6.535  -0.988  0.00  0.00    +0.167 A 
ATOM     28  F   UNL     1       2.444   7.281   0.115  0.00  0.00    -0.202 F 
ATOM     29  C   UNL     1       4.035   6.144  -1.130  0.00  0.00    +0.167 A 
ATOM     30  F   UNL     1       5.041   6.997  -0.762  0.00  0.00    -0.202 F 
ATOM     31  C   UNL     1       4.225   5.153  -2.083  0.00  0.00    +0.032 A 
ATOM     32  C   UNL     1       3.369   5.048  -3.174  0.00  0.00    -0.002 A 
ENDBRANCH  23  25
ENDBRANCH   4  22
BRANCH   1  33
ATOM     33  S   UNL     1       0.616   6.802 -11.737  0.00  0.00    -0.076 S 
BRANCH  33  34
ATOM     34  C   UNL     1       1.438   6.591 -13.292  0.00  0.00    +0.065 C 
BRANCH  34  36
ATOM     35  C   UNL     1       0.848   4.740 -14.015  0.00  0.00    +0.001 C 
ATOM     36  C   UNL     1       1.310   5.240 -13.923  0.00  0.00    +0.012 C 
ENDBRANCH  34  36
ENDBRANCH  33  34
ENDBRANCH   1  33
TORSDOF 9
ENDMDL
MODEL 5
REMARK VINA RESULT:      -8.5      2.467      4.349
REMARK  Name = 
REMARK  9 active torsions:
REMARK  status: ('A' for Active; 'I' for Inactive)
REMARK    1  A    between atoms: C_2  and  C_3
REMARK    2  A    between atoms: C_3  and  S_4
REMARK    3  A    between atoms: S_4  and  C_5
REMARK    4  A    between atoms: N_11  and  C_12
REMARK    5  A    between atoms: C_14  and  O_15
REMARK    6  A    between atoms: O_15  and  C_16
REMARK    7  A    between atoms: C_16  and  C_17
REMARK    8  A    between atoms: N_24  and  C_25
REMARK    9  A    between atoms: C_27  and  C_28
REMARK                            x       y       z     vdW  Elec       q    Type
REMARK                         _______ _______ _______ _____ _____    ______ ____
ROOT
ATOM      1  C   UNL     1       5.353   6.242  -9.383  0.00  0.00    +0.193 A 
ATOM      2  N   UNL     1       4.919   5.844  -8.161  0.00  0.00    -0.203 NA
ATOM      3  C   UNL     1       3.666   6.126  -7.723  0.00  0.00    +0.172 A 
ATOM      4  N   UNL     1       3.238   5.588  -6.538  0.00  0.00    -0.220 NA
ATOM      5  C   UNL     1       2.845   6.834  -8.601  0.00  0.00    +0.173 A 
ATOM      6  N   UNL     1       1.532   7.146  -8.569  0.00  0.00    -0.124 NA
ATOM      7  N   UNL     1       1.059   6.889  -9.791  0.00  0.00    -0.062 NA
ATOM      8  N   UNL     1       1.993   6.865 -10.699  0.00  0.00    -0.214 N 
ATOM      9  C   UNL     1       3.138   6.895  -9.960  0.00  0.00    +0.185 A 
ATOM     10  N   UNL     1       4.475   6.895 -10.189  0.00  0.00    -0.201 NA
ENDROOT
BRANCH   8  11
ATOM     11  C   UNL     1       2.091   5.762 -11.827  0.00  0.00    +0.144 C 
ATOM     12  C   UNL     1       0.818   6.389 -12.795  0.00  0.00    +0.207 C 
ATOM     13  O   UNL     1      -0.233   5.489 -12.171  0.00  0.00    -0.218 OA
ATOM     14  C   UNL     1       1.263   5.339 -14.075  0.00  0.00    +0.211 C 
ATOM     15  O   UNL     1       1.016   4.055 -13.310  0.00  0.00    -0.218 OA
ATOM     16  C   UNL     1       2.933   5.220 -13.638  0.00  0.00    +0.150 C 
ATOM     17  C   UNL     1       2.993   6.679 -12.866  0.00  0.00    +0.059 C 
BRANCH  16  18
ATOM     18  O   UNL     1       3.391   5.815 -14.970  0.00  0.00    -0.351 OA
BRANCH  18  19
ATOM     19  C   UNL     1       4.697   6.188 -14.632  0.00  0.00    +0.178 C 
BRANCH  19  20
ATOM     20  C   UNL     1       5.359   7.017 -15.692  0.00  0.00    +0.214 C 
ATOM     21  O   UNL     1       6.194   8.002 -15.180  0.00  0.00    -0.218 OA
ENDBRANCH  19  20
ENDBRANCH  18  19
ENDBRANCH  16  18
ENDBRANCH   8  11
BRANCH   4  22
ATOM     22  C   UNL     1       2.558   6.519  -5.421  0.00  0.00    +0.098 C 
ATOM     23  C   UNL     1       1.244   5.404  -5.171  0.00  0.00    +0.044 C 
ATOM     24  C   UNL     1       2.648   5.333  -4.149  0.00  0.00    +0.028 C 
BRANCH  23  25
ATOM     25  C   UNL     1       0.418   6.402  -4.164  0.00  0.00    -0.018 A 
ATOM     26  C   UNL     1      -0.083   5.705  -3.066  0.00  0.00    +0.028 A 
ATOM     27  C   UNL     1      -1.438   5.666  -2.758  0.00  0.00    +0.167 A 
ATOM     28  F   UNL     1      -1.955   4.912  -1.755  0.00  0.00    -0.202 F 
ATOM     29  C   UNL     1      -2.371   6.145  -3.673  0.00  0.00    +0.167 A 
ATOM     30  F   UNL     1      -3.437   5.366  -4.033  0.00  0.00    -0.202 F 
ATOM     31  C   UNL     1      -1.875   7.140  -4.504  0.00  0.00    +0.032 A 
ATOM     32  C   UNL     1      -0.524   7.178  -4.833  0.00  0.00    -0.002 A 
ENDBRANCH  23  25
ENDBRANCH   4  22
BRANCH   1  33
ATOM     33  S   UNL     1       6.685   5.264 -10.079  0.00  0.00    -0.076 S 
BRANCH  33  34
ATOM     34  C   UNL     1       6.874   5.432 -11.832  0.00  0.00    +0.065 C 
BRANCH  34  36
ATOM     35  C   UNL     1       8.890   5.824 -12.110  0.00  0.00    +0.001 C 
ATOM     36  C   UNL     1       8.276   5.608 -12.326  0.00  0.00    +0.012 C 
ENDBRANCH  34  36
ENDBRANCH  33  34
ENDBRANCH   1  33
TORSDOF 9
ENDMDL
MODEL 6
REMARK VINA RESULT:      -8.5      6.602     11.151
REMARK  Name = 
REMARK  9 active torsions:
REMARK  status: ('A' for Active; 'I' for Inactive)
REMARK    1  A    between atoms: C_2  and  C_3
REMARK    2  A    between atoms: C_3  and  S_4
REMARK    3  A    between atoms: S_4  and  C_5
REMARK    4  A    between atoms: N_11  and  C_12
REMARK    5  A    between atoms: C_14  and  O_15
REMARK    6  A    between atoms: O_15  and  C_16
REMARK    7  A    between atoms: C_16  and  C_17
REMARK    8  A    between atoms: N_24  and  C_25
REMARK    9  A    between atoms: C_27  and  C_28
REMARK                            x       y       z     vdW  Elec       q    Type
REMARK                         _______ _______ _______ _____ _____    ______ ____
ROOT
ATOM      1  C   UNL     1       3.404   6.486  -3.299  0.00  0.00    +0.193 A 
ATOM      2  N   UNL     1       3.163   6.815  -4.592  0.00  0.00    -0.203 NA
ATOM      3  C   UNL     1       2.019   6.447  -5.222  0.00  0.00    +0.172 A 
ATOM      4  N   UNL     1       1.771   6.917  -6.483  0.00  0.00    -0.220 NA
ATOM      5  C   UNL     1       1.099   5.722  -4.463  0.00  0.00    +0.173 A 
ATOM      6  N   UNL     1      -0.172   5.334  -4.701  0.00  0.00    -0.124 NA
ATOM      7  N   UNL     1      -0.858   5.604  -3.588  0.00  0.00    -0.062 NA
ATOM      8  N   UNL     1      -0.094   5.714  -2.538  0.00  0.00    -0.214 N 
ATOM      9  C   UNL     1       1.159   5.725  -3.073  0.00  0.00    +0.185 A 
ATOM     10  N   UNL     1       2.437   5.810  -2.623  0.00  0.00    -0.201 NA
ENDROOT
BRANCH   8  11
ATOM     11  C   UNL     1      -0.246   6.858  -1.458  0.00  0.00    +0.144 C 
ATOM     12  C   UNL     1      -1.556   6.133  -0.617  0.00  0.00    +0.207 C 
ATOM     13  O   UNL     1      -2.610   6.893  -1.400  0.00  0.00    -0.218 OA
ATOM     14  C   UNL     1      -1.377   7.267   0.656  0.00  0.00    +0.211 C 
ATOM     15  O   UNL     1      -1.661   8.491  -0.192  0.00  0.00    -0.218 OA
ATOM     16  C   UNL     1       0.312   7.549   0.411  0.00  0.00    +0.150 C 
ATOM     17  C   UNL     1       0.613   6.080  -0.280  0.00  0.00    +0.059 C 
BRANCH  16  18
ATOM     18  O   UNL     1       0.665   7.052   1.813  0.00  0.00    -0.351 OA
BRANCH  18  19
ATOM     19  C   UNL     1       1.550   8.059   2.212  0.00  0.00    +0.178 C 
BRANCH  19  20
ATOM     20  C   UNL     1       1.385   9.325   1.424  0.00  0.00    +0.214 C 
ATOM     21  O   UNL     1       2.298  10.313   1.769  0.00  0.00    -0.218 OA
ENDBRANCH  19  20
ENDBRANCH  18  19
ENDBRANCH  16  18
ENDBRANCH   8  11
BRANCH   4  22
ATOM     22  C   UNL     1       1.340   5.910  -7.657  0.00  0.00    +0.098 C 
ATOM     23  C   UNL     1       1.773   7.046  -8.905  0.00  0.00    +0.044 C 
ATOM     24  C   UNL     1       2.916   5.841  -8.394  0.00  0.00    +0.028 C 
BRANCH  23  25
ATOM     25  C   UNL     1       1.175   6.129 -10.127  0.00  0.00    -0.018 A 
ATOM     26  C   UNL     1       2.091   6.028 -11.173  0.00  0.00    +0.028 A 
ATOM     27  C   UNL     1       1.793   6.433 -12.470  0.00  0.00    +0.167 A 
ATOM     28  F   UNL     1       2.703   6.437 -13.477  0.00  0.00    -0.202 F 
ATOM     29  C   UNL     1       0.636   7.164 -12.720  0.00  0.00    +0.167 A 
ATOM     30  F   UNL     1       0.707   8.337 -13.422  0.00  0.00    -0.202 F 
ATOM     31  C   UNL     1      -0.389   6.909 -11.819  0.00  0.00    +0.032 A 
ATOM     32  C   UNL     1      -0.103   6.520 -10.514  0.00  0.00    -0.002 A 
ENDBRANCH  23  25
ENDBRANCH   4  22
BRANCH   1  33
ATOM     33  S   UNL     1       4.546   7.563  -2.432  0.00  0.00    -0.076 S 
BRANCH  33  34
ATOM     34  C   UNL     1       3.984   8.092  -0.839  0.00  0.00    +0.065 C 
BRANCH  34  36
ATOM     35  C   UNL     1       4.752   6.944   0.707  0.00  0.00    +0.001 C 
ATOM     36  C   UNL     1       4.713   7.521   0.337  0.00  0.00    +0.012 C 
ENDBRANCH  34  36
ENDBRANCH  33  34
ENDBRANCH   1  33
TORSDOF 9
ENDMDL
MODEL 7
REMARK VINA RESULT:      -8.3      5.784     10.722
REMARK  Name = 
REMARK  9 active torsions:
REMARK  status: ('A' for Active; 'I' for Inactive)
REMARK    1  A    between atoms: C_2  and  C_3
REMARK    2  A    between atoms: C_3  and  S_4
REMARK    3  A    between atoms: S_4  and  C_5
REMARK    4  A    between atoms: N_11  and  C_12
REMARK    5  A    between atoms: C_14  and  O_15
REMARK    6  A    between atoms: O_15  and  C_16
REMARK    7  A    between atoms: C_16  and  C_17
REMARK    8  A    between atoms: N_24  and  C_25
REMARK    9  A    between atoms: C_27  and  C_28
REMARK                            x       y       z     vdW  Elec       q    Type
REMARK                         _______ _______ _______ _____ _____    ______ ____
ROOT
ATOM      1  C   UNL     1       3.664   6.610  -4.119  0.00  0.00    +0.193 A 
ATOM      2  N   UNL     1       3.756   6.876  -5.446  0.00  0.00    -0.203 NA
ATOM      3  C   UNL     1       2.940   6.280  -6.351  0.00  0.00    +0.172 A 
ATOM      4  N   UNL     1       2.988   6.683  -7.659  0.00  0.00    -0.220 NA
ATOM      5  C   UNL     1       1.995   5.387  -5.843  0.00  0.00    +0.173 A 
ATOM      6  N   UNL     1       0.950   4.748  -6.409  0.00  0.00    -0.124 NA
ATOM      7  N   UNL     1      -0.072   4.880  -5.560  0.00  0.00    -0.062 NA
ATOM      8  N   UNL     1       0.314   5.148  -4.345  0.00  0.00    -0.214 N 
ATOM      9  C   UNL     1       1.643   5.411  -4.497  0.00  0.00    +0.185 A 
ATOM     10  N   UNL     1       2.690   5.756  -3.707  0.00  0.00    -0.201 NA
ENDROOT
BRANCH   8  11
ATOM     11  C   UNL     1      -0.365   6.244  -3.430  0.00  0.00    +0.144 C 
ATOM     12  C   UNL     1      -1.980   5.731  -3.713  0.00  0.00    +0.207 C 
ATOM     13  O   UNL     1      -2.198   6.712  -4.849  0.00  0.00    -0.218 OA
ATOM     14  C   UNL     1      -2.533   6.746  -2.447  0.00  0.00    +0.211 C 
ATOM     15  O   UNL     1      -2.072   8.043  -3.081  0.00  0.00    -0.218 OA
ATOM     16  C   UNL     1      -1.060   6.723  -1.541  0.00  0.00    +0.150 C 
ATOM     17  C   UNL     1      -0.550   5.261  -2.114  0.00  0.00    +0.059 C 
BRANCH  16  18
ATOM     18  O   UNL     1      -1.741   6.098  -0.323  0.00  0.00    -0.351 OA
BRANCH  18  19
ATOM     19  C   UNL     1      -1.218   6.909   0.690  0.00  0.00    +0.178 C 
BRANCH  19  20
ATOM     20  C   UNL     1       0.137   7.457   0.357  0.00  0.00    +0.214 C 
ATOM     21  O   UNL     1       1.086   7.220   1.342  0.00  0.00    -0.218 OA
ENDBRANCH  19  20
ENDBRANCH  18  19
ENDBRANCH  16  18
ENDBRANCH   8  11
BRANCH   4  22
ATOM     22  C   UNL     1       3.123   5.603  -8.839  0.00  0.00    +0.098 C 
ATOM     23  C   UNL     1       2.445   6.687 -10.022  0.00  0.00    +0.044 C 
ATOM     24  C   UNL     1       4.170   6.580  -9.830  0.00  0.00    +0.028 C 
BRANCH  23  25
ATOM     25  C   UNL     1       2.392   5.560 -11.214  0.00  0.00    -0.018 A 
ATOM     26  C   UNL     1       2.978   6.038 -12.384  0.00  0.00    +0.028 A 
ATOM     27  C   UNL     1       2.289   6.112 -13.590  0.00  0.00    +0.167 A 
ATOM     28  F   UNL     1       2.809   6.667 -14.714  0.00  0.00    -0.202 F 
ATOM     29  C   UNL     1       0.912   5.915 -13.616  0.00  0.00    +0.167 A 
ATOM     30  F   UNL     1       0.102   6.832 -14.229  0.00  0.00    -0.202 F 
ATOM     31  C   UNL     1       0.449   5.089 -12.600  0.00  0.00    +0.032 A 
ATOM     32  C   UNL     1       1.119   5.021 -11.383  0.00  0.00    -0.002 A 
ENDBRANCH  23  25
ENDBRANCH   4  22
BRANCH   1  33
ATOM     33  S   UNL     1       4.272   7.902  -3.034  0.00  0.00    -0.076 S 
BRANCH  33  34
ATOM     34  C   UNL     1       3.483   7.953  -1.449  0.00  0.00    +0.065 C 
BRANCH  34  36
ATOM     35  C   UNL     1       3.286   9.629  -0.246  0.00  0.00    +0.001 C 
ATOM     36  C   UNL     1       3.633   9.230  -0.683  0.00  0.00    +0.012 C 
ENDBRANCH  34  36
ENDBRANCH  33  34
ENDBRANCH   1  33
TORSDOF 9
ENDMDL
MODEL 8
REMARK VINA RESULT:      -8.2      5.961     10.295
REMARK  Name = 
REMARK  9 active torsions:
REMARK  status: ('A' for Active; 'I' for Inactive)
REMARK    1  A    between atoms: C_2  and  C_3
REMARK    2  A    between atoms: C_3  and  S_4
REMARK    3  A    between atoms: S_4  and  C_5
REMARK    4  A    between atoms: N_11  and  C_12
REMARK    5  A    between atoms: C_14  and  O_15
REMARK    6  A    between atoms: O_15  and  C_16
REMARK    7  A    between atoms: C_16  and  C_17
REMARK    8  A    between atoms: N_24  and  C_25
REMARK    9  A    between atoms: C_27  and  C_28
REMARK                            x       y       z     vdW  Elec       q    Type
REMARK                         _______ _______ _______ _____ _____    ______ ____
ROOT
ATOM      1  C   UNL     1       0.832   6.127  -6.527  0.00  0.00    +0.193 A 
ATOM      2  N   UNL     1       1.796   5.745  -7.400  0.00  0.00    -0.203 NA
ATOM      3  C   UNL     1       3.109   6.000  -7.171  0.00  0.00    +0.172 A 
ATOM      4  N   UNL     1       4.048   5.479  -8.020  0.00  0.00    -0.220 NA
ATOM      5  C   UNL     1       3.414   6.664  -5.982  0.00  0.00    +0.173 A 
ATOM      6  N   UNL     1       4.583   6.937  -5.366  0.00  0.00    -0.124 NA
ATOM      7  N   UNL     1       4.405   6.639  -4.077  0.00  0.00    -0.062 NA
ATOM      8  N   UNL     1       3.148   6.620  -3.733  0.00  0.00    -0.214 N 
ATOM      9  C   UNL     1       2.502   6.701  -4.931  0.00  0.00    +0.185 A 
ATOM     10  N   UNL     1       1.221   6.735  -5.375  0.00  0.00    -0.201 NA
ENDROOT
BRANCH   8  11
ATOM     11  C   UNL     1       2.502   5.495  -2.831  0.00  0.00    +0.144 C 
ATOM     12  C   UNL     1       2.869   6.243  -1.329  0.00  0.00    +0.207 C 
ATOM     13  O   UNL     1       4.167   5.476  -1.151  0.00  0.00    -0.218 OA
ATOM     14  C   UNL     1       1.852   5.129  -0.515  0.00  0.00    +0.211 C 
ATOM     15  O   UNL     1       2.634   3.893  -0.911  0.00  0.00    -0.218 OA
ATOM     16  C   UNL     1       0.800   4.832  -1.857  0.00  0.00    +0.150 C 
ATOM     17  C   UNL     1       1.072   6.288  -2.588  0.00  0.00    +0.059 C 
BRANCH  16  18
ATOM     18  O   UNL     1      -0.421   5.350  -1.098  0.00  0.00    -0.351 OA
BRANCH  18  19
ATOM     19  C   UNL     1      -1.354   5.391  -2.140  0.00  0.00    +0.178 C 
BRANCH  19  20
ATOM     20  C   UNL     1      -2.731   5.765  -1.676  0.00  0.00    +0.214 C 
ATOM     21  O   UNL     1      -3.042   7.101  -1.891  0.00  0.00    -0.218 OA
ENDBRANCH  19  20
ENDBRANCH  18  19
ENDBRANCH  16  18
ENDBRANCH   8  11
BRANCH   4  22
ATOM     22  C   UNL     1       5.195   6.415  -8.638  0.00  0.00    +0.098 C 
ATOM     23  C   UNL     1       5.205   5.548 -10.150  0.00  0.00    +0.044 C 
ATOM     24  C   UNL     1       4.235   6.980  -9.977  0.00  0.00    +0.028 C 
BRANCH  23  25
ATOM     25  C   UNL     1       6.499   6.357 -10.753  0.00  0.00    -0.018 A 
ATOM     26  C   UNL     1       6.148   7.094 -11.883  0.00  0.00    +0.028 A 
ATOM     27  C   UNL     1       6.762   6.911 -13.117  0.00  0.00    +0.167 A 
ATOM     28  F   UNL     1       6.365   7.546 -14.249  0.00  0.00    -0.202 F 
ATOM     29  C   UNL     1       7.602   5.820 -13.319  0.00  0.00    +0.167 A 
ATOM     30  F   UNL     1       7.410   5.000 -14.398  0.00  0.00    -0.202 F 
ATOM     31  C   UNL     1       8.224   5.375 -12.161  0.00  0.00    +0.032 A 
ATOM     32  C   UNL     1       7.612   5.537 -10.922  0.00  0.00    -0.002 A 
ENDBRANCH  23  25
ENDBRANCH   4  22
BRANCH   1  33
ATOM     33  S   UNL     1      -0.685   5.172  -6.592  0.00  0.00    -0.076 S 
BRANCH  33  34
ATOM     34  C   UNL     1      -1.835   5.540  -5.298  0.00  0.00    +0.065 C 
BRANCH  34  36
ATOM     35  C   UNL     1      -2.675   7.421  -5.527  0.00  0.00    +0.001 C 
ATOM     36  C   UNL     1      -2.278   6.966  -5.200  0.00  0.00    +0.012 C 
ENDBRANCH  34  36
ENDBRANCH  33  34
ENDBRANCH   1  33
TORSDOF 9
ENDMDL
MODEL 9
REMARK VINA RESULT:      -8.0      5.657      8.472
REMARK  Name = 
REMARK  9 active torsions:
REMARK  status: ('A' for Active; 'I' for Inactive)
REMARK    1  A    between atoms: C_2  and  C_3
REMARK    2  A    between atoms: C_3  and  S_4
REMARK    3  A    between atoms: S_4  and  C_5
REMARK    4  A    between atoms: N_11  and  C_12
REMARK    5  A    between atoms: C_14  and  O_15
REMARK    6  A    between atoms: O_15  and  C_16
REMARK    7  A    between atoms: C_16  and  C_17
REMARK    8  A    between atoms: N_24  and  C_25
REMARK    9  A    between atoms: C_27  and  C_28
REMARK                            x       y       z     vdW  Elec       q    Type
REMARK                         _______ _______ _______ _____ _____    ______ ____
ROOT
ATOM      1  C   UNL     1      -1.384   5.475  -2.278  0.00  0.00    +0.193 A 
ATOM      2  N   UNL     1      -1.491   6.433  -1.324  0.00  0.00    -0.203 NA
ATOM      3  C   UNL     1      -0.399   6.961  -0.717  0.00  0.00    +0.172 A 
ATOM      4  N   UNL     1      -0.558   8.015   0.143  0.00  0.00    -0.220 NA
ATOM      5  C   UNL     1       0.840   6.475  -1.136  0.00  0.00    +0.173 A 
ATOM      6  N   UNL     1       2.106   6.865  -0.876  0.00  0.00    -0.124 NA
ATOM      7  N   UNL     1       2.744   6.868  -2.049  0.00  0.00    -0.062 NA
ATOM      8  N   UNL     1       2.159   6.121  -2.942  0.00  0.00    -0.214 N 
ATOM      9  C   UNL     1       0.972   5.808  -2.350  0.00  0.00    +0.185 A 
ATOM     10  N   UNL     1      -0.136   5.087  -2.653  0.00  0.00    -0.201 NA
ENDROOT
BRANCH   8  11
ATOM     11  C   UNL     1       1.930   6.564  -4.443  0.00  0.00    +0.144 C 
ATOM     12  C   UNL     1       3.362   5.844  -5.059  0.00  0.00    +0.207 C 
ATOM     13  O   UNL     1       4.176   7.118  -4.930  0.00  0.00    -0.218 OA
ATOM     14  C   UNL     1       2.813   6.104  -6.662  0.00  0.00    +0.211 C 
ATOM     15  O   UNL     1       2.758   7.615  -6.560  0.00  0.00    -0.218 OA
ATOM     16  C   UNL     1       1.126   6.065  -6.283  0.00  0.00    +0.150 C 
ATOM     17  C   UNL     1       1.293   5.121  -4.938  0.00  0.00    +0.059 C 
BRANCH  16  18
ATOM     18  O   UNL     1       0.882   4.862  -7.195  0.00  0.00    -0.351 OA
BRANCH  18  19
ATOM     19  C   UNL     1      -0.145   5.371  -7.998  0.00  0.00    +0.178 C 
BRANCH  19  20
ATOM     20  C   UNL     1       0.256   5.516  -9.436  0.00  0.00    +0.214 C 
ATOM     21  O   UNL     1       0.917   6.707  -9.707  0.00  0.00    -0.218 OA
ENDBRANCH  19  20
ENDBRANCH  18  19
ENDBRANCH  16  18
ENDBRANCH   8  11
BRANCH   4  22
ATOM     22  C   UNL     1       0.114   7.984   1.600  0.00  0.00    +0.098 C 
ATOM     23  C   UNL     1       0.944   9.494   1.341  0.00  0.00    +0.044 C 
ATOM     24  C   UNL     1      -0.602   9.479   2.136  0.00  0.00    +0.028 C 
BRANCH  23  25
ATOM     25  C   UNL     1       1.795   9.415   2.742  0.00  0.00    -0.018 A 
ATOM     26  C   UNL     1       2.137  10.688   3.194  0.00  0.00    +0.028 A 
ATOM     27  C   UNL     1       3.455  11.077   3.408  0.00  0.00    +0.167 A 
ATOM     28  F   UNL     1       3.814  12.340   3.750  0.00  0.00    -0.202 F 
ATOM     29  C   UNL     1       4.498  10.270   2.961  0.00  0.00    +0.167 A 
ATOM     30  F   UNL     1       5.498  10.808   2.198  0.00  0.00    -0.202 F 
ATOM     31  C   UNL     1       4.172   8.923   2.901  0.00  0.00    +0.032 A 
ATOM     32  C   UNL     1       2.860   8.521   2.670  0.00  0.00    -0.002 A 
ENDBRANCH  23  25
ENDBRANCH   4  22
BRANCH   1  33
ATOM     33  S   UNL     1      -2.758   5.379  -3.427  0.00  0.00    -0.076 S 
BRANCH  33  34
ATOM     34  C   UNL     1      -2.485   6.218  -4.962  0.00  0.00    +0.065 C 
BRANCH  34  36
ATOM     35  C   UNL     1      -1.910   8.162  -4.529  0.00  0.00    +0.001 C 
ATOM     36  C   UNL     1      -1.846   7.568  -4.867  0.00  0.00    +0.012 C 
ENDBRANCH  34  36
ENDBRANCH  33  34
ENDBRANCH   1  33
TORSDOF 9
ENDMDL
