MODEL 1
REMARK VINA RESULT:      -5.3      0.000      0.000
REMARK  Name = 
REMARK  2 active torsions:
REMARK  status: ('A' for Active; 'I' for Inactive)
REMARK    1  A    between atoms: C_4  and  O_6
REMARK    2  A    between atoms: O_6  and  C_7
REMARK                            x       y       z     vdW  Elec       q    Type
REMARK                         _______ _______ _______ _____ _____    ______ ____
ROOT
ATOM      1  C   UNL     1       0.054   5.517  -5.956  0.00  0.00    +0.219 A 
ATOM      2  C   UNL     1      -0.240   6.673  -5.245  0.00  0.00    +0.328 A 
ATOM      3  N   UNL     1      -1.511   7.103  -5.074  0.00  0.00    -0.151 N 
ATOM      4  C   UNL     1      -1.719   8.339  -4.357  0.00  0.00    +0.409 C 
ATOM      5  C   UNL     1      -2.570   6.509  -5.655  0.00  0.00    +0.290 A 
ATOM      6  C   UNL     1      -2.277   5.579  -6.645  0.00  0.00    +0.079 A 
ATOM      7  C   UNL     1      -0.994   5.054  -6.744  0.00  0.00    +0.050 A 
ENDROOT
BRANCH   1   8
ATOM      8  O   UNL     1       0.898   4.524  -5.444  0.00  0.00    -0.404 OA
BRANCH   8  11
ATOM      9  C   UNL     1       3.150   5.350  -3.901  0.00  0.00    +0.118 C 
ATOM     10  N   UNL     1       3.348   4.798  -5.239  0.00  0.00    -0.242 N 
ATOM     11  C   UNL     1       2.181   4.304  -5.910  0.00  0.00    +0.410 C 
ATOM     12  O   UNL     1       2.260   3.807  -7.073  0.00  0.00    -0.226 OA
ATOM     13  C   UNL     1       4.296   5.553  -6.054  0.00  0.00    +0.118 C 
ENDBRANCH   8  11
ENDBRANCH   1   8
TORSDOF 2
ENDMDL
MODEL 2
REMARK VINA RESULT:      -5.1      1.644      1.715
REMARK  Name = 
REMARK  2 active torsions:
REMARK  status: ('A' for Active; 'I' for Inactive)
REMARK    1  A    between atoms: C_4  and  O_6
REMARK    2  A    between atoms: O_6  and  C_7
REMARK                            x       y       z     vdW  Elec       q    Type
REMARK                         _______ _______ _______ _____ _____    ______ ____
ROOT
ATOM      1  C   UNL     1       0.560   6.326  -6.202  0.00  0.00    +0.219 A 
ATOM      2  C   UNL     1      -0.105   7.046  -5.218  0.00  0.00    +0.328 A 
ATOM      3  N   UNL     1      -1.379   6.762  -4.863  0.00  0.00    -0.151 N 
ATOM      4  C   UNL     1      -2.004   7.590  -3.860  0.00  0.00    +0.409 C 
ATOM      5  C   UNL     1      -2.128   5.839  -5.495  0.00  0.00    +0.290 A 
ATOM      6  C   UNL     1      -1.617   5.361  -6.697  0.00  0.00    +0.079 A 
ATOM      7  C   UNL     1      -0.275   5.557  -7.004  0.00  0.00    +0.050 A 
ENDROOT
BRANCH   1   8
ATOM      8  O   UNL     1       1.842   5.800  -6.000  0.00  0.00    -0.404 OA
BRANCH   8  11
ATOM      9  C   UNL     1       4.140   5.088  -4.467  0.00  0.00    +0.118 C 
ATOM     10  N   UNL     1       4.140   6.323  -5.248  0.00  0.00    -0.242 N 
ATOM     11  C   UNL     1       2.995   6.559  -6.077  0.00  0.00    +0.410 C 
ATOM     12  O   UNL     1       2.911   7.605  -6.789  0.00  0.00    -0.226 OA
ATOM     13  C   UNL     1       4.668   7.477  -4.525  0.00  0.00    +0.118 C 
ENDBRANCH   8  11
ENDBRANCH   1   8
TORSDOF 2
ENDMDL
MODEL 3
REMARK VINA RESULT:      -5.1      4.373      7.246
REMARK  Name = 
REMARK  2 active torsions:
REMARK  status: ('A' for Active; 'I' for Inactive)
REMARK    1  A    between atoms: C_4  and  O_6
REMARK    2  A    between atoms: O_6  and  C_7
REMARK                            x       y       z     vdW  Elec       q    Type
REMARK                         _______ _______ _______ _____ _____    ______ ____
ROOT
ATOM      1  C   UNL     1       4.885   5.298  -9.742  0.00  0.00    +0.219 A 
ATOM      2  C   UNL     1       4.666   5.335 -11.113  0.00  0.00    +0.328 A 
ATOM      3  N   UNL     1       5.687   5.412 -11.996  0.00  0.00    -0.151 N 
ATOM      4  C   UNL     1       5.364   5.488 -13.401  0.00  0.00    +0.409 C 
ATOM      5  C   UNL     1       6.972   5.560 -11.622  0.00  0.00    +0.290 A 
ATOM      6  C   UNL     1       7.182   5.882 -10.286  0.00  0.00    +0.079 A 
ATOM      7  C   UNL     1       6.162   5.691  -9.360  0.00  0.00    +0.050 A 
ENDROOT
BRANCH   1   8
ATOM      8  O   UNL     1       4.286   4.336  -8.919  0.00  0.00    -0.404 OA
BRANCH   8  11
ATOM      9  C   UNL     1       3.896   5.375  -6.291  0.00  0.00    +0.118 C 
ATOM     10  N   UNL     1       2.755   4.871  -7.051  0.00  0.00    -0.242 N 
ATOM     11  C   UNL     1       3.011   4.466  -8.402  0.00  0.00    +0.410 C 
ATOM     12  O   UNL     1       2.079   4.016  -9.135  0.00  0.00    -0.226 OA
ATOM     13  C   UNL     1       1.862   4.015  -6.274  0.00  0.00    +0.118 C 
ENDBRANCH   8  11
ENDBRANCH   1   8
TORSDOF 2
ENDMDL
MODEL 4
REMARK VINA RESULT:      -5.1      4.427      7.388
REMARK  Name = 
REMARK  2 active torsions:
REMARK  status: ('A' for Active; 'I' for Inactive)
REMARK    1  A    between atoms: C_4  and  O_6
REMARK    2  A    between atoms: O_6  and  C_7
REMARK                            x       y       z     vdW  Elec       q    Type
REMARK                         _______ _______ _______ _____ _____    ______ ____
ROOT
ATOM      1  C   UNL     1       4.833   5.631  -9.515  0.00  0.00    +0.219 A 
ATOM      2  C   UNL     1       5.046   6.702 -10.373  0.00  0.00    +0.328 A 
ATOM      3  N   UNL     1       6.288   7.070 -10.761  0.00  0.00    -0.151 N 
ATOM      4  C   UNL     1       6.417   8.222 -11.621  0.00  0.00    +0.409 C 
ATOM      5  C   UNL     1       7.407   6.501 -10.274  0.00  0.00    +0.290 A 
ATOM      6  C   UNL     1       7.238   5.683  -9.163  0.00  0.00    +0.079 A 
ATOM      7  C   UNL     1       5.972   5.213  -8.836  0.00  0.00    +0.050 A 
ENDROOT
BRANCH   1   8
ATOM      8  O   UNL     1       3.906   4.621  -9.802  0.00  0.00    -0.404 OA
BRANCH   8  11
ATOM      9  C   UNL     1       1.470   5.454 -11.030  0.00  0.00    +0.118 C 
ATOM     10  N   UNL     1       1.464   4.986  -9.646  0.00  0.00    -0.242 N 
ATOM     11  C   UNL     1       2.704   4.482  -9.133  0.00  0.00    +0.410 C 
ATOM     12  O   UNL     1       2.790   4.054  -7.943  0.00  0.00    -0.226 OA
ATOM     13  C   UNL     1       0.679   5.825  -8.744  0.00  0.00    +0.118 C 
ENDBRANCH   8  11
ENDBRANCH   1   8
TORSDOF 2
ENDMDL
MODEL 5
REMARK VINA RESULT:      -4.8      3.229      4.811
REMARK  Name = 
REMARK  2 active torsions:
REMARK  status: ('A' for Active; 'I' for Inactive)
REMARK    1  A    between atoms: C_4  and  O_6
REMARK    2  A    between atoms: O_6  and  C_7
REMARK                            x       y       z     vdW  Elec       q    Type
REMARK                         _______ _______ _______ _____ _____    ______ ____
ROOT
ATOM      1  C   UNL     1       3.632   6.338  -5.893  0.00  0.00    +0.219 A 
ATOM      2  C   UNL     1       2.535   6.012  -5.105  0.00  0.00    +0.328 A 
ATOM      3  N   UNL     1       2.323   6.590  -3.902  0.00  0.00    -0.151 N 
ATOM      4  C   UNL     1       1.179   6.158  -3.134  0.00  0.00    +0.409 C 
ATOM      5  C   UNL     1       3.198   7.441  -3.333  0.00  0.00    +0.290 A 
ATOM      6  C   UNL     1       4.453   7.509  -3.926  0.00  0.00    +0.079 A 
ATOM      7  C   UNL     1       4.638   7.015  -5.212  0.00  0.00    +0.050 A 
ENDROOT
BRANCH   1   8
ATOM      8  O   UNL     1       3.503   6.669  -7.247  0.00  0.00    -0.404 OA
BRANCH   8  11
ATOM      9  C   UNL     1       1.825   4.793  -8.590  0.00  0.00    +0.118 C 
ATOM     10  N   UNL     1       1.485   6.214  -8.604  0.00  0.00    -0.242 N 
ATOM     11  C   UNL     1       2.313   7.081  -7.818  0.00  0.00    +0.410 C 
ATOM     12  O   UNL     1       2.091   8.328  -7.771  0.00  0.00    -0.226 OA
ATOM     13  C   UNL     1       1.086   6.711  -9.918  0.00  0.00    +0.118 C 
ENDBRANCH   8  11
ENDBRANCH   1   8
TORSDOF 2
ENDMDL
MODEL 6
REMARK VINA RESULT:      -4.7      1.433      4.868
REMARK  Name = 
REMARK  2 active torsions:
REMARK  status: ('A' for Active; 'I' for Inactive)
REMARK    1  A    between atoms: C_4  and  O_6
REMARK    2  A    between atoms: O_6  and  C_7
REMARK                            x       y       z     vdW  Elec       q    Type
REMARK                         _______ _______ _______ _____ _____    ______ ____
ROOT
ATOM      1  C   UNL     1       1.460   5.074  -5.953  0.00  0.00    +0.219 A 
ATOM      2  C   UNL     1       2.629   4.712  -5.295  0.00  0.00    +0.328 A 
ATOM      3  N   UNL     1       3.631   5.595  -5.083  0.00  0.00    -0.151 N 
ATOM      4  C   UNL     1       4.826   5.120  -4.427  0.00  0.00    +0.409 C 
ATOM      5  C   UNL     1       3.619   6.849  -5.573  0.00  0.00    +0.290 A 
ATOM      6  C   UNL     1       2.642   7.121  -6.523  0.00  0.00    +0.079 A 
ATOM      7  C   UNL     1       1.552   6.268  -6.658  0.00  0.00    +0.050 A 
ENDROOT
BRANCH   1   8
ATOM      8  O   UNL     1       0.193   4.786  -5.430  0.00  0.00    -0.404 OA
BRANCH   8  11
ATOM      9  C   UNL     1      -2.306   5.913  -6.219  0.00  0.00    +0.118 C 
ATOM     10  N   UNL     1      -1.687   6.326  -4.962  0.00  0.00    -0.242 N 
ATOM     11  C   UNL     1      -0.488   5.638  -4.580  0.00  0.00    +0.410 C 
ATOM     12  O   UNL     1       0.116   5.930  -3.505  0.00  0.00    -0.226 OA
ATOM     13  C   UNL     1      -1.706   7.769  -4.742  0.00  0.00    +0.118 C 
ENDBRANCH   8  11
ENDBRANCH   1   8
TORSDOF 2
ENDMDL
MODEL 7
REMARK VINA RESULT:      -4.7      2.605      3.254
REMARK  Name = 
REMARK  2 active torsions:
REMARK  status: ('A' for Active; 'I' for Inactive)
REMARK    1  A    between atoms: C_4  and  O_6
REMARK    2  A    between atoms: O_6  and  C_7
REMARK                            x       y       z     vdW  Elec       q    Type
REMARK                         _______ _______ _______ _____ _____    ______ ____
ROOT
ATOM      1  C   UNL     1       1.983   7.371  -7.116  0.00  0.00    +0.219 A 
ATOM      2  C   UNL     1       0.867   6.694  -6.640  0.00  0.00    +0.328 A 
ATOM      3  N   UNL     1       0.184   5.816  -7.408  0.00  0.00    -0.151 N 
ATOM      4  C   UNL     1      -0.989   5.191  -6.844  0.00  0.00    +0.409 C 
ATOM      5  C   UNL     1       0.466   5.604  -8.708  0.00  0.00    +0.290 A 
ATOM      6  C   UNL     1       1.334   6.515  -9.297  0.00  0.00    +0.079 A 
ATOM      7  C   UNL     1       2.120   7.338  -8.499  0.00  0.00    +0.050 A 
ENDROOT
BRANCH   1   8
ATOM      8  O   UNL     1       3.186   7.417  -6.399  0.00  0.00    -0.404 OA
BRANCH   8  11
ATOM      9  C   UNL     1       2.938   7.117  -3.574  0.00  0.00    +0.118 C 
ATOM     10  N   UNL     1       3.744   6.168  -4.338  0.00  0.00    -0.242 N 
ATOM     11  C   UNL     1       3.733   6.318  -5.764  0.00  0.00    +0.410 C 
ATOM     12  O   UNL     1       4.403   5.538  -6.505  0.00  0.00    -0.226 OA
ATOM     13  C   UNL     1       5.035   5.865  -3.726  0.00  0.00    +0.118 C 
ENDBRANCH   8  11
ENDBRANCH   1   8
TORSDOF 2
ENDMDL
MODEL 8
REMARK VINA RESULT:      -4.7      2.115      2.581
REMARK  Name = 
REMARK  2 active torsions:
REMARK  status: ('A' for Active; 'I' for Inactive)
REMARK    1  A    between atoms: C_4  and  O_6
REMARK    2  A    between atoms: O_6  and  C_7
REMARK                            x       y       z     vdW  Elec       q    Type
REMARK                         _______ _______ _______ _____ _____    ______ ____
ROOT
ATOM      1  C   UNL     1      -0.394   6.447  -5.277  0.00  0.00    +0.219 A 
ATOM      2  C   UNL     1       0.159   6.067  -4.061  0.00  0.00    +0.328 A 
ATOM      3  N   UNL     1      -0.594   5.547  -3.065  0.00  0.00    -0.151 N 
ATOM      4  C   UNL     1       0.060   5.220  -1.821  0.00  0.00    +0.409 C 
ATOM      5  C   UNL     1      -1.935   5.452  -3.134  0.00  0.00    +0.290 A 
ATOM      6  C   UNL     1      -2.541   6.143  -4.177  0.00  0.00    +0.079 A 
ATOM      7  C   UNL     1      -1.778   6.575  -5.255  0.00  0.00    +0.050 A 
ENDROOT
BRANCH   1   8
ATOM      8  O   UNL     1       0.147   6.034  -6.502  0.00  0.00    -0.404 OA
BRANCH   8  11
ATOM      9  C   UNL     1       2.064   3.923  -6.518  0.00  0.00    +0.118 C 
ATOM     10  N   UNL     1       2.489   5.293  -6.794  0.00  0.00    -0.242 N 
ATOM     11  C   UNL     1       1.454   6.282  -6.876  0.00  0.00    +0.410 C 
ATOM     12  O   UNL     1       1.731   7.496  -7.113  0.00  0.00    -0.226 OA
ATOM     13  C   UNL     1       3.709   5.685  -6.092  0.00  0.00    +0.118 C 
ENDBRANCH   8  11
ENDBRANCH   1   8
TORSDOF 2
ENDMDL
MODEL 9
REMARK VINA RESULT:      -4.6      2.113      4.600
REMARK  Name = 
REMARK  2 active torsions:
REMARK  status: ('A' for Active; 'I' for Inactive)
REMARK    1  A    between atoms: C_4  and  O_6
REMARK    2  A    between atoms: O_6  and  C_7
REMARK                            x       y       z     vdW  Elec       q    Type
REMARK                         _______ _______ _______ _____ _____    ______ ____
ROOT
ATOM      1  C   UNL     1       3.978   5.556  -4.966  0.00  0.00    +0.219 A 
ATOM      2  C   UNL     1       3.120   5.466  -3.877  0.00  0.00    +0.328 A 
ATOM      3  N   UNL     1       2.914   6.511  -3.044  0.00  0.00    -0.151 N 
ATOM      4  C   UNL     1       2.037   6.314  -1.914  0.00  0.00    +0.409 C 
ATOM      5  C   UNL     1       3.588   7.672  -3.142  0.00  0.00    +0.290 A 
ATOM      6  C   UNL     1       4.692   7.664  -3.987  0.00  0.00    +0.079 A 
ATOM      7  C   UNL     1       4.840   6.646  -4.922  0.00  0.00    +0.050 A 
ENDROOT
BRANCH   1   8
ATOM      8  O   UNL     1       3.593   5.152  -6.251  0.00  0.00    -0.404 OA
BRANCH   8  11
ATOM      9  C   UNL     1       1.603   7.061  -6.978  0.00  0.00    +0.118 C 
ATOM     10  N   UNL     1       1.240   5.655  -6.824  0.00  0.00    -0.242 N 
ATOM     11  C   UNL     1       2.312   4.739  -6.564  0.00  0.00    +0.410 C 
ATOM     12  O   UNL     1       2.089   3.500  -6.418  0.00  0.00    -0.226 OA
ATOM     13  C   UNL     1       0.008   5.444  -6.069  0.00  0.00    +0.118 C 
ENDBRANCH   8  11
ENDBRANCH   1   8
TORSDOF 2
ENDMDL
