MODEL 1
REMARK VINA RESULT:      -4.8      0.000      0.000
REMARK  Name = 
REMARK  5 active torsions:
REMARK  status: ('A' for Active; 'I' for Inactive)
REMARK    1  A    between atoms: NE_4  and  CD_5
REMARK    2  A    between atoms: CD_5  and  CG_6
REMARK    3  A    between atoms: CG_6  and  CB_7
REMARK    4  A    between atoms: CB_7  and  CA_8
REMARK    5  A    between atoms: CA_8  and  C_10
REMARK                            x       y       z     vdW  Elec       q    Type
REMARK                         _______ _______ _______ _____ _____    ______ ____
ROOT
ATOM      1  CG  ARG A   1       5.754   5.279  -8.612  0.00  0.00    +0.049 C 
ENDROOT
BRANCH   1   2
ATOM      2  CD  ARG A   1       4.409   5.258  -7.909  0.00  0.00    +0.220 C 
BRANCH   2   5
ATOM      3  NH1 ARG A   1       2.069   6.234  -7.012  0.00  0.00    +0.135 NA
ATOM      4  CZ  ARG A   1       2.525   6.864  -7.765  0.00  0.00    +0.535 C 
ATOM      5  NE  ARG A   1       3.639   6.335  -8.462  0.00  0.00    -0.087 NA
ATOM      6  NH2 ARG A   1       2.165   8.245  -7.898  0.00  0.00    +0.135 NA
ENDBRANCH   2   5
ENDBRANCH   1   2
BRANCH   1   7
ATOM      7  CB  ARG A   1       5.590   5.939  -9.962  0.00  0.00    +0.034 C 
BRANCH   7   8
ATOM      8  CA  ARG A   1       7.155   5.877 -10.528  0.00  0.00    +0.194 C 
ATOM      9  N   ARG A   1       7.108   7.404 -10.978  0.00  0.00    -0.121 NA
BRANCH   8  10
ATOM     10  C   ARG A   1       6.754   5.370 -12.022  0.00  0.00    +0.382 C 
ATOM     11  OXT ARG A   1       7.776   4.606 -12.589  0.00  0.00    -0.244 OA
ATOM     12  O   ARG A   1       5.572   5.268 -12.306  0.00  0.00    -0.244 OA
ENDBRANCH   8  10
ENDBRANCH   7   8
ENDBRANCH   1   7
TORSDOF 5
ENDMDL
MODEL 2
REMARK VINA RESULT:      -4.8      1.610      2.164
REMARK  Name = 
REMARK  5 active torsions:
REMARK  status: ('A' for Active; 'I' for Inactive)
REMARK    1  A    between atoms: NE_4  and  CD_5
REMARK    2  A    between atoms: CD_5  and  CG_6
REMARK    3  A    between atoms: CG_6  and  CB_7
REMARK    4  A    between atoms: CB_7  and  CA_8
REMARK    5  A    between atoms: CA_8  and  C_10
REMARK                            x       y       z     vdW  Elec       q    Type
REMARK                         _______ _______ _______ _____ _____    ______ ____
ROOT
ATOM      1  CG  ARG A   1       5.703   5.699  -9.826  0.00  0.00    +0.049 C 
ENDROOT
BRANCH   1   2
ATOM      2  CD  ARG A   1       5.305   5.186  -8.455  0.00  0.00    +0.220 C 
BRANCH   2   5
ATOM      3  NH1 ARG A   1       3.019   3.793  -8.709  0.00  0.00    +0.135 NA
ATOM      4  CZ  ARG A   1       2.879   4.739  -8.203  0.00  0.00    +0.535 C 
ATOM      5  NE  ARG A   1       3.967   5.646  -8.216  0.00  0.00    -0.087 NA
ATOM      6  NH2 ARG A   1       1.735   4.977  -7.373  0.00  0.00    +0.135 NA
ENDBRANCH   2   5
ENDBRANCH   1   2
BRANCH   1   7
ATOM      7  CB  ARG A   1       7.203   5.882  -9.863  0.00  0.00    +0.034 C 
BRANCH   7   8
ATOM      8  CA  ARG A   1       7.381   6.677 -11.316  0.00  0.00    +0.194 C 
ATOM      9  N   ARG A   1       6.116   5.936 -11.936  0.00  0.00    -0.121 NA
BRANCH   8  10
ATOM     10  C   ARG A   1       8.402   5.584 -11.960  0.00  0.00    +0.382 C 
ATOM     11  OXT ARG A   1       7.710   4.603 -12.673  0.00  0.00    -0.244 OA
ATOM     12  O   ARG A   1       9.553   5.922 -12.183  0.00  0.00    -0.244 OA
ENDBRANCH   8  10
ENDBRANCH   7   8
ENDBRANCH   1   7
TORSDOF 5
ENDMDL
MODEL 3
REMARK VINA RESULT:      -4.8      6.519      8.743
REMARK  Name = 
REMARK  5 active torsions:
REMARK  status: ('A' for Active; 'I' for Inactive)
REMARK    1  A    between atoms: NE_4  and  CD_5
REMARK    2  A    between atoms: CD_5  and  CG_6
REMARK    3  A    between atoms: CG_6  and  CB_7
REMARK    4  A    between atoms: CB_7  and  CA_8
REMARK    5  A    between atoms: CA_8  and  C_10
REMARK                            x       y       z     vdW  Elec       q    Type
REMARK                         _______ _______ _______ _____ _____    ______ ____
ROOT
ATOM      1  CG  ARG A   1       0.942   5.212  -4.321  0.00  0.00    +0.049 C 
ENDROOT
BRANCH   1   2
ATOM      2  CD  ARG A   1       1.633   5.158  -5.671  0.00  0.00    +0.220 C 
BRANCH   2   5
ATOM      3  NH1 ARG A   1       3.212   7.273  -6.185  0.00  0.00    +0.135 NA
ATOM      4  CZ  ARG A   1       2.275   7.308  -6.727  0.00  0.00    +0.535 C 
ATOM      5  NE  ARG A   1       1.282   6.366  -6.361  0.00  0.00    -0.087 NA
ATOM      6  NH2 ARG A   1       2.124   8.114  -7.903  0.00  0.00    +0.135 NA
ENDBRANCH   2   5
ENDBRANCH   1   2
BRANCH   1   7
ATOM      7  CB  ARG A   1      -0.520   5.532  -4.532  0.00  0.00    +0.034 C 
BRANCH   7   8
ATOM      8  CA  ARG A   1      -0.907   6.200  -3.056  0.00  0.00    +0.194 C 
ATOM      9  N   ARG A   1      -0.246   4.980  -2.273  0.00  0.00    -0.121 NA
BRANCH   8  10
ATOM     10  C   ARG A   1      -2.385   5.523  -2.968  0.00  0.00    +0.382 C 
ATOM     11  OXT ARG A   1      -2.915   5.296  -4.240  0.00  0.00    -0.244 OA
ATOM     12  O   ARG A   1      -2.675   4.882  -1.971  0.00  0.00    -0.244 OA
ENDBRANCH   8  10
ENDBRANCH   7   8
ENDBRANCH   1   7
TORSDOF 5
ENDMDL
MODEL 4
REMARK VINA RESULT:      -4.7      1.839      2.117
REMARK  Name = 
REMARK  5 active torsions:
REMARK  status: ('A' for Active; 'I' for Inactive)
REMARK    1  A    between atoms: NE_4  and  CD_5
REMARK    2  A    between atoms: CD_5  and  CG_6
REMARK    3  A    between atoms: CG_6  and  CB_7
REMARK    4  A    between atoms: CB_7  and  CA_8
REMARK    5  A    between atoms: CA_8  and  C_10
REMARK                            x       y       z     vdW  Elec       q    Type
REMARK                         _______ _______ _______ _____ _____    ______ ____
ROOT
ATOM      1  CG  ARG A   1       4.350   6.735 -10.538  0.00  0.00    +0.049 C 
ENDROOT
BRANCH   1   2
ATOM      2  CD  ARG A   1       3.102   6.410  -9.739  0.00  0.00    +0.220 C 
BRANCH   2   5
ATOM      3  NH1 ARG A   1       2.176   8.118  -7.880  0.00  0.00    +0.135 NA
ATOM      4  CZ  ARG A   1       2.752   7.306  -7.453  0.00  0.00    +0.535 C 
ATOM      5  NE  ARG A   1       3.470   6.481  -8.354  0.00  0.00    -0.087 NA
ATOM      6  NH2 ARG A   1       2.621   6.945  -6.073  0.00  0.00    +0.135 NA
ENDBRANCH   2   5
ENDBRANCH   1   2
BRANCH   1   7
ATOM      7  CB  ARG A   1       4.859   5.469 -11.188  0.00  0.00    +0.034 C 
BRANCH   7   8
ATOM      8  CA  ARG A   1       5.833   6.103 -12.380  0.00  0.00    +0.194 C 
ATOM      9  N   ARG A   1       5.518   4.887 -13.358  0.00  0.00    -0.121 NA
BRANCH   8  10
ATOM     10  C   ARG A   1       7.199   5.392 -11.852  0.00  0.00    +0.382 C 
ATOM     11  OXT ARG A   1       7.765   4.585 -12.840  0.00  0.00    -0.244 OA
ATOM     12  O   ARG A   1       7.824   5.926 -10.950  0.00  0.00    -0.244 OA
ENDBRANCH   8  10
ENDBRANCH   7   8
ENDBRANCH   1   7
TORSDOF 5
ENDMDL
MODEL 5
REMARK VINA RESULT:      -4.7      5.164      6.989
REMARK  Name = 
REMARK  5 active torsions:
REMARK  status: ('A' for Active; 'I' for Inactive)
REMARK    1  A    between atoms: NE_4  and  CD_5
REMARK    2  A    between atoms: CD_5  and  CG_6
REMARK    3  A    between atoms: CG_6  and  CB_7
REMARK    4  A    between atoms: CB_7  and  CA_8
REMARK    5  A    between atoms: CA_8  and  C_10
REMARK                            x       y       z     vdW  Elec       q    Type
REMARK                         _______ _______ _______ _____ _____    ______ ____
ROOT
ATOM      1  CG  ARG A   1      -0.842   6.074  -6.288  0.00  0.00    +0.049 C 
ENDROOT
BRANCH   1   2
ATOM      2  CD  ARG A   1      -1.752   5.684  -5.138  0.00  0.00    +0.220 C 
BRANCH   2   5
ATOM      3  NH1 ARG A   1      -2.425   4.972  -2.633  0.00  0.00    +0.135 NA
ATOM      4  CZ  ARG A   1      -1.401   5.316  -2.710  0.00  0.00    +0.535 C 
ATOM      5  NE  ARG A   1      -1.014   5.924  -3.930  0.00  0.00    -0.087 NA
ATOM      6  NH2 ARG A   1      -0.425   4.979  -1.717  0.00  0.00    +0.135 NA
ENDBRANCH   2   5
ENDBRANCH   1   2
BRANCH   1   7
ATOM      7  CB  ARG A   1       0.513   6.453  -5.734  0.00  0.00    +0.034 C 
BRANCH   7   8
ATOM      8  CA  ARG A   1       1.508   5.907  -6.952  0.00  0.00    +0.194 C 
ATOM      9  N   ARG A   1       2.433   5.125  -5.918  0.00  0.00    -0.121 NA
BRANCH   8  10
ATOM     10  C   ARG A   1       2.493   7.203  -6.932  0.00  0.00    +0.382 C 
ATOM     11  OXT ARG A   1       2.021   8.211  -7.776  0.00  0.00    -0.244 OA
ATOM     12  O   ARG A   1       3.191   7.391  -5.949  0.00  0.00    -0.244 OA
ENDBRANCH   8  10
ENDBRANCH   7   8
ENDBRANCH   1   7
TORSDOF 5
ENDMDL
MODEL 6
REMARK VINA RESULT:      -4.6      6.251      7.950
REMARK  Name = 
REMARK  5 active torsions:
REMARK  status: ('A' for Active; 'I' for Inactive)
REMARK    1  A    between atoms: NE_4  and  CD_5
REMARK    2  A    between atoms: CD_5  and  CG_6
REMARK    3  A    between atoms: CG_6  and  CB_7
REMARK    4  A    between atoms: CB_7  and  CA_8
REMARK    5  A    between atoms: CA_8  and  C_10
REMARK                            x       y       z     vdW  Elec       q    Type
REMARK                         _______ _______ _______ _____ _____    ______ ____
ROOT
ATOM      1  CG  ARG A   1      -1.565   6.197  -5.875  0.00  0.00    +0.049 C 
ENDROOT
BRANCH   1   2
ATOM      2  CD  ARG A   1      -2.460   5.995  -4.666  0.00  0.00    +0.220 C 
BRANCH   2   5
ATOM      3  NH1 ARG A   1      -2.728   4.913  -2.219  0.00  0.00    +0.135 NA
ATOM      4  CZ  ARG A   1      -1.791   5.441  -2.343  0.00  0.00    +0.535 C 
ATOM      5  NE  ARG A   1      -1.646   6.233  -3.508  0.00  0.00    -0.087 NA
ATOM      6  NH2 ARG A   1      -0.670   5.180  -1.489  0.00  0.00    +0.135 NA
ENDBRANCH   2   5
ENDBRANCH   1   2
BRANCH   1   7
ATOM      7  CB  ARG A   1      -0.271   6.836  -5.425  0.00  0.00    +0.034 C 
BRANCH   7   8
ATOM      8  CA  ARG A   1       0.817   6.057  -6.416  0.00  0.00    +0.194 C 
ATOM      9  N   ARG A   1      -0.346   5.259  -7.155  0.00  0.00    -0.121 NA
BRANCH   8  10
ATOM     10  C   ARG A   1       1.090   4.818  -5.395  0.00  0.00    +0.382 C 
ATOM     11  OXT ARG A   1       1.409   3.650  -6.090  0.00  0.00    -0.244 OA
ATOM     12  O   ARG A   1       1.450   5.069  -4.257  0.00  0.00    -0.244 OA
ENDBRANCH   8  10
ENDBRANCH   7   8
ENDBRANCH   1   7
TORSDOF 5
ENDMDL
MODEL 7
REMARK VINA RESULT:      -4.5      3.227      4.212
REMARK  Name = 
REMARK  5 active torsions:
REMARK  status: ('A' for Active; 'I' for Inactive)
REMARK    1  A    between atoms: NE_4  and  CD_5
REMARK    2  A    between atoms: CD_5  and  CG_6
REMARK    3  A    between atoms: CG_6  and  CB_7
REMARK    4  A    between atoms: CB_7  and  CA_8
REMARK    5  A    between atoms: CA_8  and  C_10
REMARK                            x       y       z     vdW  Elec       q    Type
REMARK                         _______ _______ _______ _____ _____    ______ ____
ROOT
ATOM      1  CG  ARG A   1       4.733   6.876 -11.296  0.00  0.00    +0.049 C 
ENDROOT
BRANCH   1   2
ATOM      2  CD  ARG A   1       4.054   5.608 -11.779  0.00  0.00    +0.220 C 
BRANCH   2   5
ATOM      3  NH1 ARG A   1       3.692   5.551 -14.443  0.00  0.00    +0.135 NA
ATOM      4  CZ  ARG A   1       2.776   5.745 -13.900  0.00  0.00    +0.535 C 
ATOM      5  NE  ARG A   1       2.892   6.018 -12.515  0.00  0.00    -0.087 NA
ATOM      6  NH2 ARG A   1       1.493   5.520 -14.498  0.00  0.00    +0.135 NA
ENDBRANCH   2   5
ENDBRANCH   1   2
BRANCH   1   7
ATOM      7  CB  ARG A   1       6.145   6.910 -11.834  0.00  0.00    +0.034 C 
BRANCH   7   8
ATOM      8  CA  ARG A   1       6.833   5.661 -10.973  0.00  0.00    +0.194 C 
ATOM      9  N   ARG A   1       7.814   6.657 -10.211  0.00  0.00    -0.121 NA
BRANCH   8  10
ATOM     10  C   ARG A   1       7.967   5.317 -12.090  0.00  0.00    +0.382 C 
ATOM     11  OXT ARG A   1       7.400   4.735 -13.226  0.00  0.00    -0.244 OA
ATOM     12  O   ARG A   1       9.006   5.957 -12.083  0.00  0.00    -0.244 OA
ENDBRANCH   8  10
ENDBRANCH   7   8
ENDBRANCH   1   7
TORSDOF 5
ENDMDL
MODEL 8
REMARK VINA RESULT:      -4.4      6.876      8.993
REMARK  Name = 
REMARK  5 active torsions:
REMARK  status: ('A' for Active; 'I' for Inactive)
REMARK    1  A    between atoms: NE_4  and  CD_5
REMARK    2  A    between atoms: CD_5  and  CG_6
REMARK    3  A    between atoms: CG_6  and  CB_7
REMARK    4  A    between atoms: CB_7  and  CA_8
REMARK    5  A    between atoms: CA_8  and  C_10
REMARK                            x       y       z     vdW  Elec       q    Type
REMARK                         _______ _______ _______ _____ _____    ______ ____
ROOT
ATOM      1  CG  ARG A   1       0.208   6.753  -5.437  0.00  0.00    +0.049 C 
ENDROOT
BRANCH   1   2
ATOM      2  CD  ARG A   1       0.241   5.341  -5.992  0.00  0.00    +0.220 C 
BRANCH   2   5
ATOM      3  NH1 ARG A   1       2.203   3.547  -6.391  0.00  0.00    +0.135 NA
ATOM      4  CZ  ARG A   1       2.070   4.215  -7.232  0.00  0.00    +0.535 C 
ATOM      5  NE  ARG A   1       1.222   5.334  -7.039  0.00  0.00    -0.087 NA
ATOM      6  NH2 ARG A   1       2.545   3.872  -8.540  0.00  0.00    +0.135 NA
ENDBRANCH   2   5
ENDBRANCH   1   2
BRANCH   1   7
ATOM      7  CB  ARG A   1      -0.650   6.770  -4.192  0.00  0.00    +0.034 C 
BRANCH   7   8
ATOM      8  CA  ARG A   1      -2.027   6.023  -4.757  0.00  0.00    +0.194 C 
ATOM      9  N   ARG A   1      -2.686   7.419  -5.149  0.00  0.00    -0.121 NA
BRANCH   8  10
ATOM     10  C   ARG A   1      -2.790   6.008  -3.318  0.00  0.00    +0.382 C 
ATOM     11  OXT ARG A   1      -2.785   4.730  -2.756  0.00  0.00    -0.244 OA
ATOM     12  O   ARG A   1      -2.854   7.047  -2.681  0.00  0.00    -0.244 OA
ENDBRANCH   8  10
ENDBRANCH   7   8
ENDBRANCH   1   7
TORSDOF 5
ENDMDL
MODEL 9
REMARK VINA RESULT:      -4.4      2.317      2.661
REMARK  Name = 
REMARK  5 active torsions:
REMARK  status: ('A' for Active; 'I' for Inactive)
REMARK    1  A    between atoms: NE_4  and  CD_5
REMARK    2  A    between atoms: CD_5  and  CG_6
REMARK    3  A    between atoms: CG_6  and  CB_7
REMARK    4  A    between atoms: CB_7  and  CA_8
REMARK    5  A    between atoms: CA_8  and  C_10
REMARK                            x       y       z     vdW  Elec       q    Type
REMARK                         _______ _______ _______ _____ _____    ______ ____
ROOT
ATOM      1  CG  ARG A   1       4.467   6.865 -10.418  0.00  0.00    +0.049 C 
ENDROOT
BRANCH   1   2
ATOM      2  CD  ARG A   1       3.311   6.477  -9.514  0.00  0.00    +0.220 C 
BRANCH   2   5
ATOM      3  NH1 ARG A   1       0.979   5.342  -8.806  0.00  0.00    +0.135 NA
ATOM      4  CZ  ARG A   1       1.321   5.022  -9.782  0.00  0.00    +0.535 C 
ATOM      5  NE  ARG A   1       2.640   5.381 -10.153  0.00  0.00    -0.087 NA
ATOM      6  NH2 ARG A   1       0.417   4.456 -10.740  0.00  0.00    +0.135 NA
ENDBRANCH   2   5
ENDBRANCH   1   2
BRANCH   1   7
ATOM      7  CB  ARG A   1       5.216   5.615 -10.819  0.00  0.00    +0.034 C 
BRANCH   7   8
ATOM      8  CA  ARG A   1       5.911   6.117 -12.247  0.00  0.00    +0.194 C 
ATOM      9  N   ARG A   1       5.291   4.885 -13.043  0.00  0.00    -0.121 NA
BRANCH   8  10
ATOM     10  C   ARG A   1       7.316   5.327 -12.015  0.00  0.00    +0.382 C 
ATOM     11  OXT ARG A   1       7.728   4.673 -13.178  0.00  0.00    -0.244 OA
ATOM     12  O   ARG A   1       8.066   5.716 -11.135  0.00  0.00    -0.244 OA
ENDBRANCH   8  10
ENDBRANCH   7   8
ENDBRANCH   1   7
TORSDOF 5
ENDMDL
