MODEL 1
REMARK VINA RESULT:     -10.2      0.000      0.000
REMARK  Name = 
REMARK  7 active torsions:
REMARK  status: ('A' for Active; 'I' for Inactive)
REMARK    1  A    between atoms: C_5  and  C_6
REMARK    2  A    between atoms: N_8  and  C_9
REMARK    3  A    between atoms: C_12  and  C_13
REMARK    4  A    between atoms: C_13  and  N_14
REMARK    5  A    between atoms: C_21  and  C_22
REMARK    6  A    between atoms: C_28  and  C_29
REMARK    7  A    between atoms: C_30  and  C_31
REMARK                            x       y       z     vdW  Elec       q    Type
REMARK                         _______ _______ _______ _____ _____    ______ ____
ROOT
ATOM      1  C   UNL     1       3.584   5.703 -10.195  0.00  0.00    +0.269 C 
ATOM      2  N   UNL     1       3.176   5.259  -8.917  0.00  0.00    -0.175 NA
ATOM      3  O   UNL     1       2.864   6.611 -10.712  0.00  0.00    -0.268 OA
ENDROOT
BRANCH   1   8
ATOM      4  C   UNL     1       8.932   5.874 -12.070  0.00  0.00    +0.032 C 
ATOM      5  C   UNL     1       7.515   5.922 -11.618  0.00  0.00    -0.014 A 
ATOM      6  C   UNL     1       6.451   5.977 -12.510  0.00  0.00    +0.038 A 
ATOM      7  C   UNL     1       5.196   5.546 -12.096  0.00  0.00    +0.013 A 
ATOM      8  C   UNL     1       4.910   5.420 -10.762  0.00  0.00    +0.056 A 
ATOM      9  C   UNL     1       5.973   5.575  -9.880  0.00  0.00    +0.004 A 
ATOM     10  C   UNL     1       7.230   5.952 -10.268  0.00  0.00    -0.004 A 
BRANCH   6  11
ATOM     11  C   UNL     1       6.757   6.172 -13.909  0.00  0.00    -0.059 C 
ATOM     12  C   UNL     1       6.894   6.573 -15.048  0.00  0.00    -0.039 C 
BRANCH  12  13
ATOM     13  C   UNL     1       7.020   7.409 -16.213  0.00  0.00    +0.145 A 
ATOM     14  N   UNL     1       6.010   8.202 -16.633  0.00  0.00    -0.203 N 
ATOM     15  C   UNL     1       6.522   9.028 -17.551  0.00  0.00    +0.165 A 
ATOM     16  C   UNL     1       5.666   9.990 -18.072  0.00  0.00    +0.040 A 
ATOM     17  C   UNL     1       4.422  10.149 -17.483  0.00  0.00    +0.026 A 
ATOM     18  C   UNL     1       3.839   9.065 -16.840  0.00  0.00    +0.121 A 
ATOM     19  N   UNL     1       7.668   8.466 -18.004  0.00  0.00    -0.223 NA
ATOM     20  N   UNL     1       4.697   8.088 -16.459  0.00  0.00    -0.162 NA
ATOM     21  C   UNL     1       8.082   7.596 -17.056  0.00  0.00    +0.128 A 
ENDBRANCH  12  13
ENDBRANCH   6  11
ENDBRANCH   1   8
BRANCH   2  22
ATOM     22  C   UNL     1       2.566   6.110  -7.942  0.00  0.00    +0.074 A 
ATOM     23  C   UNL     1       3.278   6.714  -6.920  0.00  0.00    +0.020 A 
ATOM     24  C   UNL     1       2.858   6.707  -5.605  0.00  0.00    +0.070 A 
ATOM     25  C   UNL     1       1.528   6.393  -5.358  0.00  0.00    -0.002 A 
ATOM     26  C   UNL     1       0.692   6.009  -6.400  0.00  0.00    -0.002 A 
ATOM     27  C   UNL     1       1.212   5.931  -7.687  0.00  0.00    +0.016 A 
BRANCH  24  28
ATOM     28  C   UNL     1       3.798   6.893  -4.456  0.00  0.00    +0.418 C 
ATOM     29  F   UNL     1       3.502   8.018  -3.723  0.00  0.00    -0.166 F 
ATOM     30  F   UNL     1       3.898   5.764  -3.681  0.00  0.00    -0.166 F 
ATOM     31  F   UNL     1       5.053   7.102  -5.021  0.00  0.00    -0.166 F 
ENDBRANCH  24  28
BRANCH  25  32
ATOM     32  C   UNL     1       1.038   6.534  -3.959  0.00  0.00    +0.099 C 
BRANCH  32  33
ATOM     33  N   UNL     1      -0.359   6.113  -3.975  0.00  0.00    -0.267 NA
ATOM     34  C   UNL     1      -0.624   5.360  -2.751  0.00  0.00    +0.090 C 
ATOM     35  C   UNL     1      -2.130   5.187  -2.686  0.00  0.00    +0.090 C 
ATOM     36  N   UNL     1      -2.682   6.462  -2.297  0.00  0.00    -0.269 NA
ATOM     37  C   UNL     1      -4.066   6.496  -2.750  0.00  0.00    +0.090 C 
ATOM     38  C   UNL     1      -1.948   7.587  -2.818  0.00  0.00    +0.090 C 
ATOM     39  C   UNL     1      -1.199   7.282  -4.086  0.00  0.00    +0.090 C 
ENDBRANCH  32  33
ENDBRANCH  25  32
ENDBRANCH   2  22
TORSDOF 7
ENDMDL
MODEL 2
REMARK VINA RESULT:     -10.1      2.460      3.436
REMARK  Name = 
REMARK  7 active torsions:
REMARK  status: ('A' for Active; 'I' for Inactive)
REMARK    1  A    between atoms: C_5  and  C_6
REMARK    2  A    between atoms: N_8  and  C_9
REMARK    3  A    between atoms: C_12  and  C_13
REMARK    4  A    between atoms: C_13  and  N_14
REMARK    5  A    between atoms: C_21  and  C_22
REMARK    6  A    between atoms: C_28  and  C_29
REMARK    7  A    between atoms: C_30  and  C_31
REMARK                            x       y       z     vdW  Elec       q    Type
REMARK                         _______ _______ _______ _____ _____    ______ ____
ROOT
ATOM      1  C   UNL     1       3.466   5.468  -8.846  0.00  0.00    +0.269 C 
ATOM      2  N   UNL     1       2.602   4.441  -8.405  0.00  0.00    -0.175 NA
ATOM      3  O   UNL     1       3.319   6.589  -8.270  0.00  0.00    -0.268 OA
ENDROOT
BRANCH   1   8
ATOM      4  C   UNL     1       8.361   5.786 -11.690  0.00  0.00    +0.032 C 
ATOM      5  C   UNL     1       7.052   5.793 -10.983  0.00  0.00    -0.014 A 
ATOM      6  C   UNL     1       5.839   5.784 -11.661  0.00  0.00    +0.038 A 
ATOM      7  C   UNL     1       4.702   5.319 -11.011  0.00  0.00    +0.013 A 
ATOM      8  C   UNL     1       4.674   5.219  -9.645  0.00  0.00    +0.056 A 
ATOM      9  C   UNL     1       5.875   5.438  -8.980  0.00  0.00    +0.004 A 
ATOM     10  C   UNL     1       7.021   5.849  -9.604  0.00  0.00    -0.004 A 
BRANCH   6  11
ATOM     11  C   UNL     1       5.871   5.953 -13.096  0.00  0.00    -0.059 C 
ATOM     12  C   UNL     1       5.860   6.352 -14.243  0.00  0.00    -0.039 C 
BRANCH  12  13
ATOM     13  C   UNL     1       5.952   7.175 -15.421  0.00  0.00    +0.145 A 
ATOM     14  N   UNL     1       4.856   7.708 -16.005  0.00  0.00    -0.203 N 
ATOM     15  C   UNL     1       5.289   8.614 -16.888  0.00  0.00    +0.165 A 
ATOM     16  C   UNL     1       4.319   9.345 -17.560  0.00  0.00    +0.040 A 
ATOM     17  C   UNL     1       3.002   9.225 -17.144  0.00  0.00    +0.026 A 
ATOM     18  C   UNL     1       2.596   8.047 -16.530  0.00  0.00    +0.121 A 
ATOM     19  N   UNL     1       6.583   8.321 -17.163  0.00  0.00    -0.223 NA
ATOM     20  N   UNL     1       3.592   7.300 -15.996  0.00  0.00    -0.162 NA
ATOM     21  C   UNL     1       7.049   7.586 -16.129  0.00  0.00    +0.128 A 
ENDBRANCH  12  13
ENDBRANCH   6  11
ENDBRANCH   1   8
BRANCH   2  22
ATOM     22  C   UNL     1       2.143   4.318  -7.056  0.00  0.00    +0.074 A 
ATOM     23  C   UNL     1       0.880   4.711  -6.652  0.00  0.00    +0.020 A 
ATOM     24  C   UNL     1       0.654   5.472  -5.523  0.00  0.00    +0.070 A 
ATOM     25  C   UNL     1       1.677   5.549  -4.586  0.00  0.00    -0.002 A 
ATOM     26  C   UNL     1       2.908   4.954  -4.840  0.00  0.00    -0.002 A 
ATOM     27  C   UNL     1       3.101   4.296  -6.049  0.00  0.00    +0.016 A 
BRANCH  24  28
ATOM     28  C   UNL     1      -0.576   6.303  -5.342  0.00  0.00    +0.418 C 
ATOM     29  F   UNL     1      -1.342   5.872  -4.284  0.00  0.00    -0.166 F 
ATOM     30  F   UNL     1      -0.290   7.645  -5.279  0.00  0.00    -0.166 F 
ATOM     31  F   UNL     1      -1.338   6.111  -6.491  0.00  0.00    -0.166 F 
ENDBRANCH  24  28
BRANCH  25  32
ATOM     32  C   UNL     1       1.380   6.242  -3.302  0.00  0.00    +0.099 C 
BRANCH  32  33
ATOM     33  N   UNL     1       2.624   6.229  -2.539  0.00  0.00    -0.267 NA
ATOM     34  C   UNL     1       3.261   7.537  -2.681  0.00  0.00    +0.090 C 
ATOM     35  C   UNL     1       4.386   7.566  -1.665  0.00  0.00    +0.090 C 
ATOM     36  N   UNL     1       3.778   7.745  -0.369  0.00  0.00    -0.269 NA
ATOM     37  C   UNL     1       4.711   7.236   0.627  0.00  0.00    +0.090 C 
ATOM     38  C   UNL     1       2.497   7.098  -0.244  0.00  0.00    +0.090 C 
ATOM     39  C   UNL     1       2.326   5.918  -1.161  0.00  0.00    +0.090 C 
ENDBRANCH  32  33
ENDBRANCH  25  32
ENDBRANCH   2  22
TORSDOF 7
ENDMDL
MODEL 3
REMARK VINA RESULT:     -10.0      3.554      6.082
REMARK  Name = 
REMARK  7 active torsions:
REMARK  status: ('A' for Active; 'I' for Inactive)
REMARK    1  A    between atoms: C_5  and  C_6
REMARK    2  A    between atoms: N_8  and  C_9
REMARK    3  A    between atoms: C_12  and  C_13
REMARK    4  A    between atoms: C_13  and  N_14
REMARK    5  A    between atoms: C_21  and  C_22
REMARK    6  A    between atoms: C_28  and  C_29
REMARK    7  A    between atoms: C_30  and  C_31
REMARK                            x       y       z     vdW  Elec       q    Type
REMARK                         _______ _______ _______ _____ _____    ______ ____
ROOT
ATOM      1  C   UNL     1       2.130   5.787  -6.074  0.00  0.00    +0.269 C 
ATOM      2  N   UNL     1       1.844   6.530  -4.907  0.00  0.00    -0.175 NA
ATOM      3  O   UNL     1       2.650   4.646  -5.878  0.00  0.00    -0.268 OA
ENDROOT
BRANCH   1   8
ATOM      4  C   UNL     1      -0.211   5.736 -11.238  0.00  0.00    +0.032 C 
ATOM      5  C   UNL     1       0.456   5.666  -9.909  0.00  0.00    -0.014 A 
ATOM      6  C   UNL     1       1.830   5.803  -9.757  0.00  0.00    +0.038 A 
ATOM      7  C   UNL     1       2.339   6.204  -8.527  0.00  0.00    +0.013 A 
ATOM      8  C   UNL     1       1.574   6.112  -7.394  0.00  0.00    +0.056 A 
ATOM      9  C   UNL     1       0.238   5.770  -7.572  0.00  0.00    +0.004 A 
ATOM     10  C   UNL     1      -0.299   5.418  -8.780  0.00  0.00    -0.004 A 
BRANCH   6  11
ATOM     11  C   UNL     1       2.638   5.836 -10.955  0.00  0.00    -0.059 C 
ATOM     12  C   UNL     1       3.521   5.846 -11.789  0.00  0.00    -0.039 C 
BRANCH  12  13
ATOM     13  C   UNL     1       4.772   5.672 -12.479  0.00  0.00    +0.145 A 
ATOM     14  N   UNL     1       5.959   5.839 -11.855  0.00  0.00    -0.203 N 
ATOM     15  C   UNL     1       6.899   5.355 -12.673  0.00  0.00    +0.165 A 
ATOM     16  C   UNL     1       8.204   5.358 -12.198  0.00  0.00    +0.040 A 
ATOM     17  C   UNL     1       8.415   5.680 -10.866  0.00  0.00    +0.026 A 
ATOM     18  C   UNL     1       7.503   6.506 -10.221  0.00  0.00    +0.121 A 
ATOM     19  N   UNL     1       6.368   5.319 -13.919  0.00  0.00    -0.223 NA
ATOM     20  N   UNL     1       6.277   6.571 -10.793  0.00  0.00    -0.162 NA
ATOM     21  C   UNL     1       5.024   5.311 -13.775  0.00  0.00    +0.128 A 
ENDBRANCH  12  13
ENDBRANCH   6  11
ENDBRANCH   1   8
BRANCH   2  22
ATOM     22  C   UNL     1       1.439   5.938  -3.670  0.00  0.00    +0.074 A 
ATOM     23  C   UNL     1       0.136   5.550  -3.413  0.00  0.00    +0.020 A 
ATOM     24  C   UNL     1      -0.524   5.861  -2.241  0.00  0.00    +0.070 A 
ATOM     25  C   UNL     1       0.247   6.267  -1.159  0.00  0.00    -0.002 A 
ATOM     26  C   UNL     1       1.619   6.441  -1.300  0.00  0.00    -0.002 A 
ATOM     27  C   UNL     1       2.202   6.215  -2.542  0.00  0.00    +0.016 A 
BRANCH  24  28
ATOM     28  C   UNL     1      -2.016   5.900  -2.139  0.00  0.00    +0.418 C 
ATOM     29  F   UNL     1      -2.484   5.141  -1.092  0.00  0.00    -0.166 F 
ATOM     30  F   UNL     1      -2.500   7.185  -2.124  0.00  0.00    -0.166 F 
ATOM     31  F   UNL     1      -2.492   5.308  -3.306  0.00  0.00    -0.166 F 
ENDBRANCH  24  28
BRANCH  25  32
ATOM     32  C   UNL     1      -0.446   6.455   0.146  0.00  0.00    +0.099 C 
BRANCH  32  33
ATOM     33  N   UNL     1      -0.115   7.805   0.588  0.00  0.00    -0.267 NA
ATOM     34  C   UNL     1      -1.363   8.520   0.848  0.00  0.00    +0.090 C 
ATOM     35  C   UNL     1      -0.970   9.802   1.558  0.00  0.00    +0.090 C 
ATOM     36  N   UNL     1      -0.622   9.442   2.912  0.00  0.00    -0.269 NA
ATOM     37  C   UNL     1       0.253  10.485   3.430  0.00  0.00    +0.090 C 
ATOM     38  C   UNL     1       0.005   8.151   3.018  0.00  0.00    +0.090 C 
ATOM     39  C   UNL     1       0.718   7.722   1.764  0.00  0.00    +0.090 C 
ENDBRANCH  32  33
ENDBRANCH  25  32
ENDBRANCH   2  22
TORSDOF 7
ENDMDL
MODEL 4
REMARK VINA RESULT:      -9.9      4.676      8.426
REMARK  Name = 
REMARK  7 active torsions:
REMARK  status: ('A' for Active; 'I' for Inactive)
REMARK    1  A    between atoms: C_5  and  C_6
REMARK    2  A    between atoms: N_8  and  C_9
REMARK    3  A    between atoms: C_12  and  C_13
REMARK    4  A    between atoms: C_13  and  N_14
REMARK    5  A    between atoms: C_21  and  C_22
REMARK    6  A    between atoms: C_28  and  C_29
REMARK    7  A    between atoms: C_30  and  C_31
REMARK                            x       y       z     vdW  Elec       q    Type
REMARK                         _______ _______ _______ _____ _____    ______ ____
ROOT
ATOM      1  C   UNL     1      -1.926   6.899  -3.337  0.00  0.00    +0.269 C 
ATOM      2  N   UNL     1      -1.941   5.776  -2.480  0.00  0.00    -0.175 NA
ATOM      3  O   UNL     1      -1.969   8.027  -2.757  0.00  0.00    -0.268 OA
ENDROOT
BRANCH   1   8
ATOM      4  C   UNL     1      -0.307   5.340  -8.543  0.00  0.00    +0.032 C 
ATOM      5  C   UNL     1      -0.660   5.687  -7.139  0.00  0.00    -0.014 A 
ATOM      6  C   UNL     1       0.231   6.320  -6.281  0.00  0.00    +0.038 A 
ATOM      7  C   UNL     1      -0.264   7.034  -5.197  0.00  0.00    +0.013 A 
ATOM      8  C   UNL     1      -1.544   6.829  -4.754  0.00  0.00    +0.056 A 
ATOM      9  C   UNL     1      -2.352   6.016  -5.541  0.00  0.00    +0.004 A 
ATOM     10  C   UNL     1      -1.901   5.340  -6.643  0.00  0.00    -0.004 A 
BRANCH   6  11
ATOM     11  C   UNL     1       1.596   6.477  -6.728  0.00  0.00    -0.059 C 
ATOM     12  C   UNL     1       2.716   6.355  -7.182  0.00  0.00    -0.039 C 
BRANCH  12  13
ATOM     13  C   UNL     1       3.863   5.915  -7.933  0.00  0.00    +0.145 A 
ATOM     14  N   UNL     1       3.879   5.933  -9.284  0.00  0.00    -0.203 N 
ATOM     15  C   UNL     1       5.145   5.726  -9.659  0.00  0.00    +0.165 A 
ATOM     16  C   UNL     1       5.410   5.777 -11.022  0.00  0.00    +0.040 A 
ATOM     17  C   UNL     1       4.403   6.214 -11.869  0.00  0.00    +0.026 A 
ATOM     18  C   UNL     1       3.079   6.041 -11.486  0.00  0.00    +0.121 A 
ATOM     19  N   UNL     1       5.787   5.153  -8.613  0.00  0.00    -0.223 NA
ATOM     20  N   UNL     1       2.879   5.869 -10.157  0.00  0.00    -0.162 NA
ATOM     21  C   UNL     1       5.078   5.454  -7.502  0.00  0.00    +0.128 A 
ENDBRANCH  12  13
ENDBRANCH   6  11
ENDBRANCH   1   8
BRANCH   2  22
ATOM     22  C   UNL     1      -1.333   5.761  -1.186  0.00  0.00    +0.074 A 
ATOM     23  C   UNL     1      -1.952   6.269  -0.057  0.00  0.00    +0.020 A 
ATOM     24  C   UNL     1      -1.315   7.105   0.838  0.00  0.00    +0.070 A 
ATOM     25  C   UNL     1       0.073   7.154   0.793  0.00  0.00    -0.002 A 
ATOM     26  C   UNL     1       0.769   6.457  -0.186  0.00  0.00    -0.002 A 
ATOM     27  C   UNL     1       0.055   5.722  -1.126  0.00  0.00    +0.016 A 
BRANCH  24  28
ATOM     28  C   UNL     1      -2.058   8.034   1.744  0.00  0.00    +0.418 C 
ATOM     29  F   UNL     1      -1.775   7.802   3.069  0.00  0.00    -0.166 F 
ATOM     30  F   UNL     1      -1.890   9.350   1.386  0.00  0.00    -0.166 F 
ATOM     31  F   UNL     1      -3.407   7.742   1.566  0.00  0.00    -0.166 F 
ENDBRANCH  24  28
BRANCH  25  32
ATOM     32  C   UNL     1       0.765   7.936   1.855  0.00  0.00    +0.099 C 
BRANCH  32  33
ATOM     33  N   UNL     1       1.853   8.645   1.190  0.00  0.00    -0.267 NA
ATOM     34  C   UNL     1       1.395   9.997   0.879  0.00  0.00    +0.090 C 
ATOM     35  C   UNL     1       2.629  10.767   0.448  0.00  0.00    +0.090 C 
ATOM     36  N   UNL     1       3.387  11.049   1.643  0.00  0.00    -0.269 NA
ATOM     37  C   UNL     1       4.770  11.268   1.244  0.00  0.00    +0.090 C 
ATOM     38  C   UNL     1       3.302  10.007   2.634  0.00  0.00    +0.090 C 
ATOM     39  C   UNL     1       3.008   8.650   2.056  0.00  0.00    +0.090 C 
ENDBRANCH  32  33
ENDBRANCH  25  32
ENDBRANCH   2  22
TORSDOF 7
ENDMDL
MODEL 5
REMARK VINA RESULT:      -9.8      3.671      5.022
REMARK  Name = 
REMARK  7 active torsions:
REMARK  status: ('A' for Active; 'I' for Inactive)
REMARK    1  A    between atoms: C_5  and  C_6
REMARK    2  A    between atoms: N_8  and  C_9
REMARK    3  A    between atoms: C_12  and  C_13
REMARK    4  A    between atoms: C_13  and  N_14
REMARK    5  A    between atoms: C_21  and  C_22
REMARK    6  A    between atoms: C_28  and  C_29
REMARK    7  A    between atoms: C_30  and  C_31
REMARK                            x       y       z     vdW  Elec       q    Type
REMARK                         _______ _______ _______ _____ _____    ______ ____
ROOT
ATOM      1  C   UNL     1       0.851   6.168  -9.134  0.00  0.00    +0.269 C 
ATOM      2  N   UNL     1      -0.353   5.581  -8.686  0.00  0.00    -0.175 NA
ATOM      3  O   UNL     1       1.416   6.949  -8.309  0.00  0.00    -0.268 OA
ENDROOT
BRANCH   1   8
ATOM      4  C   UNL     1       4.420   5.415 -13.475  0.00  0.00    +0.032 C 
ATOM      5  C   UNL     1       3.476   5.711 -12.363  0.00  0.00    -0.014 A 
ATOM      6  C   UNL     1       2.166   6.116 -12.587  0.00  0.00    +0.038 A 
ATOM      7  C   UNL     1       1.216   5.918 -11.592  0.00  0.00    +0.013 A 
ATOM      8  C   UNL     1       1.602   5.681 -10.299  0.00  0.00    +0.056 A 
ATOM      9  C   UNL     1       2.960   5.480 -10.082  0.00  0.00    +0.004 A 
ATOM     10  C   UNL     1       3.911   5.620 -11.056  0.00  0.00    -0.004 A 
BRANCH   6  11
ATOM     11  C   UNL     1       1.782   6.426 -13.945  0.00  0.00    -0.059 C 
ATOM     12  C   UNL     1       1.268   6.831 -14.969  0.00  0.00    -0.039 C 
BRANCH  12  13
ATOM     13  C   UNL     1       0.532   7.607 -15.932  0.00  0.00    +0.145 A 
ATOM     14  N   UNL     1       0.588   8.957 -15.951  0.00  0.00    -0.203 N 
ATOM     15  C   UNL     1       0.027   9.352 -17.100  0.00  0.00    +0.165 A 
ATOM     16  C   UNL     1       0.041  10.715 -17.366  0.00  0.00    +0.040 A 
ATOM     17  C   UNL     1       0.784  11.538 -16.534  0.00  0.00    +0.026 A 
ATOM     18  C   UNL     1       0.999  11.146 -15.218  0.00  0.00    +0.121 A 
ATOM     19  N   UNL     1      -0.744   8.329 -17.543  0.00  0.00    -0.223 NA
ATOM     20  N   UNL     1       0.851   9.821 -14.977  0.00  0.00    -0.162 NA
ATOM     21  C   UNL     1      -0.281   7.203 -16.956  0.00  0.00    +0.128 A 
ENDBRANCH  12  13
ENDBRANCH   6  11
ENDBRANCH   1   8
BRANCH   2  22
ATOM     22  C   UNL     1      -0.601   5.225  -7.322  0.00  0.00    +0.074 A 
ATOM     23  C   UNL     1      -1.583   5.826  -6.555  0.00  0.00    +0.020 A 
ATOM     24  C   UNL     1      -1.361   6.282  -5.271  0.00  0.00    +0.070 A 
ATOM     25  C   UNL     1      -0.231   5.814  -4.611  0.00  0.00    -0.002 A 
ATOM     26  C   UNL     1       0.679   4.997  -5.271  0.00  0.00    -0.002 A 
ATOM     27  C   UNL     1       0.447   4.667  -6.601  0.00  0.00    +0.016 A 
BRANCH  24  28
ATOM     28  C   UNL     1      -2.204   7.338  -4.631  0.00  0.00    +0.418 C 
ATOM     29  F   UNL     1      -2.911   6.854  -3.554  0.00  0.00    -0.166 F 
ATOM     30  F   UNL     1      -1.482   8.466  -4.330  0.00  0.00    -0.166 F 
ATOM     31  F   UNL     1      -3.143   7.709  -5.590  0.00  0.00    -0.166 F 
ENDBRANCH  24  28
BRANCH  25  32
ATOM     32  C   UNL     1      -0.071   6.185  -3.177  0.00  0.00    +0.099 C 
BRANCH  32  33
ATOM     33  N   UNL     1       1.297   5.828  -2.818  0.00  0.00    -0.267 NA
ATOM     34  C   UNL     1       2.168   6.949  -3.165  0.00  0.00    +0.090 C 
ATOM     35  C   UNL     1       3.511   6.646  -2.529  0.00  0.00    +0.090 C 
ATOM     36  N   UNL     1       3.371   6.891  -1.114  0.00  0.00    -0.269 NA
ATOM     37  C   UNL     1       4.397   6.115  -0.431  0.00  0.00    +0.090 C 
ATOM     38  C   UNL     1       2.063   6.567  -0.604  0.00  0.00    +0.090 C 
ATOM     39  C   UNL     1       1.346   5.519  -1.408  0.00  0.00    +0.090 C 
ENDBRANCH  32  33
ENDBRANCH  25  32
ENDBRANCH   2  22
TORSDOF 7
ENDMDL
MODEL 6
REMARK VINA RESULT:      -9.7      3.842      5.753
REMARK  Name = 
REMARK  7 active torsions:
REMARK  status: ('A' for Active; 'I' for Inactive)
REMARK    1  A    between atoms: C_5  and  C_6
REMARK    2  A    between atoms: N_8  and  C_9
REMARK    3  A    between atoms: C_12  and  C_13
REMARK    4  A    between atoms: C_13  and  N_14
REMARK    5  A    between atoms: C_21  and  C_22
REMARK    6  A    between atoms: C_28  and  C_29
REMARK    7  A    between atoms: C_30  and  C_31
REMARK                            x       y       z     vdW  Elec       q    Type
REMARK                         _______ _______ _______ _____ _____    ______ ____
ROOT
ATOM      1  C   UNL     1       1.751   5.885  -5.940  0.00  0.00    +0.269 C 
ATOM      2  N   UNL     1       3.040   5.368  -5.684  0.00  0.00    -0.175 NA
ATOM      3  O   UNL     1       1.142   6.354  -4.931  0.00  0.00    -0.268 OA
ENDROOT
BRANCH   1   8
ATOM      4  C   UNL     1      -0.223   5.762 -11.254  0.00  0.00    +0.032 C 
ATOM      5  C   UNL     1       0.356   5.716  -9.884  0.00  0.00    -0.014 A 
ATOM      6  C   UNL     1       1.700   5.969  -9.634  0.00  0.00    +0.038 A 
ATOM      7  C   UNL     1       2.087   6.382  -8.365  0.00  0.00    +0.013 A 
ATOM      8  C   UNL     1       1.259   6.194  -7.290  0.00  0.00    +0.056 A 
ATOM      9  C   UNL     1      -0.026   5.741  -7.566  0.00  0.00    +0.004 A 
ATOM     10  C   UNL     1      -0.447   5.375  -8.815  0.00  0.00    -0.004 A 
BRANCH   6  11
ATOM     11  C   UNL     1       2.580   6.103 -10.772  0.00  0.00    -0.059 C 
ATOM     12  C   UNL     1       3.492   6.084 -11.574  0.00  0.00    -0.039 C 
BRANCH  12  13
ATOM     13  C   UNL     1       4.685   5.738 -12.302  0.00  0.00    +0.145 A 
ATOM     14  N   UNL     1       5.918   6.014 -11.821  0.00  0.00    -0.203 N 
ATOM     15  C   UNL     1       6.790   5.343 -12.581  0.00  0.00    +0.165 A 
ATOM     16  C   UNL     1       8.128   5.424 -12.218  0.00  0.00    +0.040 A 
ATOM     17  C   UNL     1       8.443   6.026 -11.010  0.00  0.00    +0.026 A 
ATOM     18  C   UNL     1       7.587   6.992 -10.495  0.00  0.00    +0.121 A 
ATOM     19  N   UNL     1       6.163   5.045 -13.744  0.00  0.00    -0.223 NA
ATOM     20  N   UNL     1       6.320   6.955 -10.973  0.00  0.00    -0.162 NA
ATOM     21  C   UNL     1       4.835   5.096 -13.501  0.00  0.00    +0.128 A 
ENDBRANCH  12  13
ENDBRANCH   6  11
ENDBRANCH   1   8
BRANCH   2  22
ATOM     22  C   UNL     1       3.927   5.904  -4.698  0.00  0.00    +0.074 A 
ATOM     23  C   UNL     1       4.303   5.205  -3.565  0.00  0.00    +0.020 A 
ATOM     24  C   UNL     1       4.291   5.760  -2.300  0.00  0.00    +0.070 A 
ATOM     25  C   UNL     1       4.236   7.146  -2.209  0.00  0.00    -0.002 A 
ATOM     26  C   UNL     1       4.101   7.921  -3.355  0.00  0.00    -0.002 A 
ATOM     27  C   UNL     1       4.009   7.287  -4.589  0.00  0.00    +0.016 A 
BRANCH  24  28
ATOM     28  C   UNL     1       4.204   4.935  -1.057  0.00  0.00    +0.418 C 
ATOM     29  F   UNL     1       4.853   5.524   0.003  0.00  0.00    -0.166 F 
ATOM     30  F   UNL     1       2.910   4.582  -0.759  0.00  0.00    -0.166 F 
ATOM     31  F   UNL     1       4.885   3.753  -1.336  0.00  0.00    -0.166 F 
ENDBRANCH  24  28
BRANCH  25  32
ATOM     32  C   UNL     1       4.376   7.749  -0.854  0.00  0.00    +0.099 C 
BRANCH  32  33
ATOM     33  N   UNL     1       3.122   8.446  -0.591  0.00  0.00    -0.267 NA
ATOM     34  C   UNL     1       2.210   7.513   0.068  0.00  0.00    +0.090 C 
ATOM     35  C   UNL     1       1.044   8.348   0.562  0.00  0.00    +0.090 C 
ATOM     36  N   UNL     1       1.508   9.074   1.719  0.00  0.00    -0.269 NA
ATOM     37  C   UNL     1       0.655  10.245   1.872  0.00  0.00    +0.090 C 
ATOM     38  C   UNL     1       2.893   9.461   1.635  0.00  0.00    +0.090 C 
ATOM     39  C   UNL     1       3.392   9.607   0.224  0.00  0.00    +0.090 C 
ENDBRANCH  32  33
ENDBRANCH  25  32
ENDBRANCH   2  22
TORSDOF 7
ENDMDL
MODEL 7
REMARK VINA RESULT:      -9.6      3.766     12.161
REMARK  Name = 
REMARK  7 active torsions:
REMARK  status: ('A' for Active; 'I' for Inactive)
REMARK    1  A    between atoms: C_5  and  C_6
REMARK    2  A    between atoms: N_8  and  C_9
REMARK    3  A    between atoms: C_12  and  C_13
REMARK    4  A    between atoms: C_13  and  N_14
REMARK    5  A    between atoms: C_21  and  C_22
REMARK    6  A    between atoms: C_28  and  C_29
REMARK    7  A    between atoms: C_30  and  C_31
REMARK                            x       y       z     vdW  Elec       q    Type
REMARK                         _______ _______ _______ _____ _____    ______ ____
ROOT
ATOM      1  C   UNL     1       1.492   5.241  -6.449  0.00  0.00    +0.269 C 
ATOM      2  N   UNL     1       2.186   4.167  -7.048  0.00  0.00    -0.175 NA
ATOM      3  O   UNL     1       1.714   6.384  -6.954  0.00  0.00    -0.268 OA
ENDROOT
BRANCH   1   8
ATOM      4  C   UNL     1      -3.165   5.809  -3.264  0.00  0.00    +0.032 C 
ATOM      5  C   UNL     1      -1.913   5.752  -4.067  0.00  0.00    -0.014 A 
ATOM      6  C   UNL     1      -0.653   5.740  -3.481  0.00  0.00    +0.038 A 
ATOM      7  C   UNL     1       0.420   5.217  -4.193  0.00  0.00    +0.013 A 
ATOM      8  C   UNL     1       0.342   5.059  -5.552  0.00  0.00    +0.056 A 
ATOM      9  C   UNL     1      -0.900   5.280  -6.134  0.00  0.00    +0.004 A 
ATOM     10  C   UNL     1      -1.986   5.748  -5.445  0.00  0.00    -0.004 A 
BRANCH   6  11
ATOM     11  C   UNL     1      -0.573   5.970  -2.057  0.00  0.00    -0.059 C 
ATOM     12  C   UNL     1      -0.274   6.281  -0.921  0.00  0.00    -0.039 C 
BRANCH  12  13
ATOM     13  C   UNL     1       0.304   6.929   0.228  0.00  0.00    +0.145 A 
ATOM     14  N   UNL     1       1.636   7.123   0.341  0.00  0.00    -0.203 N 
ATOM     15  C   UNL     1       1.819   7.967   1.362  0.00  0.00    +0.165 A 
ATOM     16  C   UNL     1       3.125   8.368   1.616  0.00  0.00    +0.040 A 
ATOM     17  C   UNL     1       4.105   8.024   0.698  0.00  0.00    +0.026 A 
ATOM     18  C   UNL     1       3.931   6.885  -0.078  0.00  0.00    +0.121 A 
ATOM     19  N   UNL     1       0.699   7.926   2.123  0.00  0.00    -0.223 NA
ATOM     20  N   UNL     1       2.652   6.455  -0.196  0.00  0.00    -0.162 NA
ATOM     21  C   UNL     1      -0.297   7.464   1.335  0.00  0.00    +0.128 A 
ENDBRANCH  12  13
ENDBRANCH   6  11
ENDBRANCH   1   8
BRANCH   2  22
ATOM     22  C   UNL     1       2.501   4.108  -8.442  0.00  0.00    +0.074 A 
ATOM     23  C   UNL     1       3.759   4.395  -8.942  0.00  0.00    +0.020 A 
ATOM     24  C   UNL     1       3.966   5.219 -10.031  0.00  0.00    +0.070 A 
ATOM     25  C   UNL     1       2.876   5.483 -10.851  0.00  0.00    -0.002 A 
ATOM     26  C   UNL     1       1.614   5.006 -10.518  0.00  0.00    -0.002 A 
ATOM     27  C   UNL     1       1.459   4.274  -9.346  0.00  0.00    +0.016 A 
BRANCH  24  28
ATOM     28  C   UNL     1       5.261   5.925 -10.275  0.00  0.00    +0.418 C 
ATOM     29  F   UNL     1       5.925   5.424 -11.371  0.00  0.00    -0.166 F 
ATOM     30  F   UNL     1       5.107   7.289 -10.324  0.00  0.00    -0.166 F 
ATOM     31  F   UNL     1       6.058   5.653  -9.166  0.00  0.00    -0.166 F 
ENDBRANCH  24  28
BRANCH  25  32
ATOM     32  C   UNL     1       3.130   6.245 -12.105  0.00  0.00    +0.099 C 
BRANCH  32  33
ATOM     33  N   UNL     1       1.907   6.145 -12.894  0.00  0.00    -0.267 NA
ATOM     34  C   UNL     1       1.165   7.396 -12.749  0.00  0.00    +0.090 C 
ATOM     35  C   UNL     1       0.062   7.350 -13.788  0.00  0.00    +0.090 C 
ATOM     36  N   UNL     1       0.680   7.596 -15.068  0.00  0.00    -0.269 NA
ATOM     37  C   UNL     1      -0.189   7.028 -16.090  0.00  0.00    +0.090 C 
ATOM     38  C   UNL     1       2.011   7.054 -15.174  0.00  0.00    +0.090 C 
ATOM     39  C   UNL     1       2.256   5.879 -14.270  0.00  0.00    +0.090 C 
ENDBRANCH  32  33
ENDBRANCH  25  32
ENDBRANCH   2  22
TORSDOF 7
ENDMDL
MODEL 8
REMARK VINA RESULT:      -9.5      2.975      4.529
REMARK  Name = 
REMARK  7 active torsions:
REMARK  status: ('A' for Active; 'I' for Inactive)
REMARK    1  A    between atoms: C_5  and  C_6
REMARK    2  A    between atoms: N_8  and  C_9
REMARK    3  A    between atoms: C_12  and  C_13
REMARK    4  A    between atoms: C_13  and  N_14
REMARK    5  A    between atoms: C_21  and  C_22
REMARK    6  A    between atoms: C_28  and  C_29
REMARK    7  A    between atoms: C_30  and  C_31
REMARK                            x       y       z     vdW  Elec       q    Type
REMARK                         _______ _______ _______ _____ _____    ______ ____
ROOT
ATOM      1  C   UNL     1       2.546   6.226  -7.308  0.00  0.00    +0.269 C 
ATOM      2  N   UNL     1       1.824   6.727  -6.202  0.00  0.00    -0.175 NA
ATOM      3  O   UNL     1       3.269   5.210  -7.071  0.00  0.00    -0.268 OA
ENDROOT
BRANCH   1   8
ATOM      4  C   UNL     1       0.805   6.477 -12.698  0.00  0.00    +0.032 C 
ATOM      5  C   UNL     1       1.286   6.313 -11.299  0.00  0.00    -0.014 A 
ATOM      6  C   UNL     1       2.610   6.018 -10.997  0.00  0.00    +0.038 A 
ATOM      7  C   UNL     1       3.106   6.341  -9.739  0.00  0.00    +0.013 A 
ATOM      8  C   UNL     1       2.251   6.596  -8.699  0.00  0.00    +0.056 A 
ATOM      9  C   UNL     1       0.899   6.683  -9.011  0.00  0.00    +0.004 A 
ATOM     10  C   UNL     1       0.391   6.418 -10.254  0.00  0.00    -0.004 A 
BRANCH   6  11
ATOM     11  C   UNL     1       3.492   5.688 -12.093  0.00  0.00    -0.059 C 
ATOM     12  C   UNL     1       4.294   5.671 -13.005  0.00  0.00    -0.039 C 
BRANCH  12  13
ATOM     13  C   UNL     1       5.382   5.983 -13.895  0.00  0.00    +0.145 A 
ATOM     14  N   UNL     1       5.204   6.739 -15.001  0.00  0.00    -0.203 N 
ATOM     15  C   UNL     1       6.421   7.060 -15.450  0.00  0.00    +0.165 A 
ATOM     16  C   UNL     1       6.478   7.905 -16.552  0.00  0.00    +0.040 A 
ATOM     17  C   UNL     1       5.302   8.496 -16.985  0.00  0.00    +0.026 A 
ATOM     18  C   UNL     1       4.095   7.852 -16.742  0.00  0.00    +0.121 A 
ATOM     19  N   UNL     1       7.294   6.169 -14.921  0.00  0.00    -0.223 NA
ATOM     20  N   UNL     1       4.118   6.942 -15.739  0.00  0.00    -0.162 NA
ATOM     21  C   UNL     1       6.707   5.648 -13.822  0.00  0.00    +0.128 A 
ENDBRANCH  12  13
ENDBRANCH   6  11
ENDBRANCH   1   8
BRANCH   2  22
ATOM     22  C   UNL     1       1.299   5.901  -5.159  0.00  0.00    +0.074 A 
ATOM     23  C   UNL     1      -0.037   5.550  -5.078  0.00  0.00    +0.020 A 
ATOM     24  C   UNL     1      -0.767   5.633  -3.909  0.00  0.00    +0.070 A 
ATOM     25  C   UNL     1      -0.059   5.737  -2.718  0.00  0.00    -0.002 A 
ATOM     26  C   UNL     1       1.326   5.849  -2.731  0.00  0.00    -0.002 A 
ATOM     27  C   UNL     1       1.988   5.869  -3.954  0.00  0.00    +0.016 A 
BRANCH  24  28
ATOM     28  C   UNL     1      -2.258   5.745  -3.893  0.00  0.00    +0.418 C 
ATOM     29  F   UNL     1      -2.848   4.706  -3.213  0.00  0.00    -0.166 F 
ATOM     30  F   UNL     1      -2.680   6.977  -3.455  0.00  0.00    -0.166 F 
ATOM     31  F   UNL     1      -2.662   5.634  -5.221  0.00  0.00    -0.166 F 
ENDBRANCH  24  28
BRANCH  25  32
ATOM     32  C   UNL     1      -0.838   5.674  -1.449  0.00  0.00    +0.099 C 
BRANCH  32  33
ATOM     33  N   UNL     1      -0.667   6.972  -0.805  0.00  0.00    -0.267 NA
ATOM     34  C   UNL     1      -1.965   7.401  -0.290  0.00  0.00    +0.090 C 
ATOM     35  C   UNL     1      -1.686   8.600   0.597  0.00  0.00    +0.090 C 
ATOM     36  N   UNL     1      -1.109   8.093   1.819  0.00  0.00    -0.269 NA
ATOM     37  C   UNL     1      -0.346   9.176   2.424  0.00  0.00    +0.090 C 
ATOM     38  C   UNL     1      -0.278   6.934   1.621  0.00  0.00    +0.090 C 
ATOM     39  C   UNL     1       0.319   6.848   0.243  0.00  0.00    +0.090 C 
ENDBRANCH  32  33
ENDBRANCH  25  32
ENDBRANCH   2  22
TORSDOF 7
ENDMDL
MODEL 9
REMARK VINA RESULT:      -9.3      2.915      4.779
REMARK  Name = 
REMARK  7 active torsions:
REMARK  status: ('A' for Active; 'I' for Inactive)
REMARK    1  A    between atoms: C_5  and  C_6
REMARK    2  A    between atoms: N_8  and  C_9
REMARK    3  A    between atoms: C_12  and  C_13
REMARK    4  A    between atoms: C_13  and  N_14
REMARK    5  A    between atoms: C_21  and  C_22
REMARK    6  A    between atoms: C_28  and  C_29
REMARK    7  A    between atoms: C_30  and  C_31
REMARK                            x       y       z     vdW  Elec       q    Type
REMARK                         _______ _______ _______ _____ _____    ______ ____
ROOT
ATOM      1  C   UNL     1       0.608   5.804  -8.606  0.00  0.00    +0.269 C 
ATOM      2  N   UNL     1       1.679   5.703  -7.690  0.00  0.00    -0.175 NA
ATOM      3  O   UNL     1      -0.552   5.742  -8.097  0.00  0.00    -0.268 OA
ENDROOT
BRANCH   1   8
ATOM      4  C   UNL     1       0.717   6.491 -14.234  0.00  0.00    +0.032 C 
ATOM      5  C   UNL     1       0.721   6.215 -12.771  0.00  0.00    -0.014 A 
ATOM      6  C   UNL     1       1.885   5.919 -12.072  0.00  0.00    +0.038 A 
ATOM      7  C   UNL     1       1.927   6.140 -10.701  0.00  0.00    +0.013 A 
ATOM      8  C   UNL     1       0.768   6.288  -9.984  0.00  0.00    +0.056 A 
ATOM      9  C   UNL     1      -0.410   6.377 -10.717  0.00  0.00    +0.004 A 
ATOM     10  C   UNL     1      -0.471   6.212 -12.074  0.00  0.00    -0.004 A 
BRANCH   6  11
ATOM     11  C   UNL     1       3.090   5.701 -12.838  0.00  0.00    -0.059 C 
ATOM     12  C   UNL     1       4.195   5.729 -13.344  0.00  0.00    -0.039 C 
BRANCH  12  13
ATOM     13  C   UNL     1       5.594   5.953 -13.596  0.00  0.00    +0.145 A 
ATOM     14  N   UNL     1       6.506   5.950 -12.599  0.00  0.00    -0.203 N 
ATOM     15  C   UNL     1       7.712   5.917 -13.177  0.00  0.00    +0.165 A 
ATOM     16  C   UNL     1       8.809   5.835 -12.330  0.00  0.00    +0.040 A 
ATOM     17  C   UNL     1       8.581   5.607 -10.982  0.00  0.00    +0.026 A 
ATOM     18  C   UNL     1       7.379   6.023 -10.423  0.00  0.00    +0.121 A 
ATOM     19  N   UNL     1       7.558   6.344 -14.454  0.00  0.00    -0.223 NA
ATOM     20  N   UNL     1       6.367   6.213 -11.304  0.00  0.00    -0.162 NA
ATOM     21  C   UNL     1       6.257   6.168 -14.774  0.00  0.00    +0.128 A 
ENDBRANCH  12  13
ENDBRANCH   6  11
ENDBRANCH   1   8
BRANCH   2  22
ATOM     22  C   UNL     1       1.628   6.213  -6.355  0.00  0.00    +0.074 A 
ATOM     23  C   UNL     1       2.662   6.936  -5.786  0.00  0.00    +0.020 A 
ATOM     24  C   UNL     1       3.153   6.680  -4.521  0.00  0.00    +0.070 A 
ATOM     25  C   UNL     1       2.364   5.915  -3.671  0.00  0.00    -0.002 A 
ATOM     26  C   UNL     1       1.176   5.357  -4.127  0.00  0.00    -0.002 A 
ATOM     27  C   UNL     1       0.797   5.566  -5.449  0.00  0.00    +0.016 A 
BRANCH  24  28
ATOM     28  C   UNL     1       4.529   7.078  -4.093  0.00  0.00    +0.418 C 
ATOM     29  F   UNL     1       4.548   8.318  -3.499  0.00  0.00    -0.166 F 
ATOM     30  F   UNL     1       5.132   6.111  -3.326  0.00  0.00    -0.166 F 
ATOM     31  F   UNL     1       5.276   7.184  -5.262  0.00  0.00    -0.166 F 
ENDBRANCH  24  28
BRANCH  25  32
ATOM     32  C   UNL     1       2.821   5.766  -2.261  0.00  0.00    +0.099 C 
BRANCH  32  33
ATOM     33  N   UNL     1       2.057   6.736  -1.484  0.00  0.00    -0.267 NA
ATOM     34  C   UNL     1       1.169   6.004  -0.584  0.00  0.00    +0.090 C 
ATOM     35  C   UNL     1       0.610   7.034   0.379  0.00  0.00    +0.090 C 
ATOM     36  N   UNL     1       1.666   7.357   1.308  0.00  0.00    -0.269 NA
ATOM     37  C   UNL     1       1.377   8.674   1.858  0.00  0.00    +0.090 C 
ATOM     38  C   UNL     1       2.978   7.329   0.715  0.00  0.00    +0.090 C 
ATOM     39  C   UNL     1       2.975   7.588  -0.766  0.00  0.00    +0.090 C 
ENDBRANCH  32  33
ENDBRANCH  25  32
ENDBRANCH   2  22
TORSDOF 7
ENDMDL
