MODEL 1
REMARK VINA RESULT:      -9.9      0.000      0.000
REMARK  Name = 
REMARK  4 active torsions:
REMARK  status: ('A' for Active; 'I' for Inactive)
REMARK    1  A    between atoms: C_2  and  C_5
REMARK    2  A    between atoms: C_7  and  C_8
REMARK    3  A    between atoms: C_12  and  N_13
REMARK    4  A    between atoms: C_14  and  C_16
REMARK                            x       y       z     vdW  Elec       q    Type
REMARK                         _______ _______ _______ _____ _____    ______ ____
ROOT
ATOM      1  C   UNL     1      -1.313   6.656  -5.230  0.00  0.00    +0.016 A 
ATOM      2  C   UNL     1      -1.680   5.664  -6.130  0.00  0.00    +0.193 A 
ATOM      3  O   UNL     1      -2.799   4.875  -5.849  0.00  0.00    -0.287 OA
ATOM      4  C   UNL     1      -0.679   5.221  -6.985  0.00  0.00    +0.058 A 
ATOM      5  C   UNL     1       0.637   5.618  -6.786  0.00  0.00    +0.073 A 
ATOM      6  C   UNL     1       1.016   6.255  -5.610  0.00  0.00    -0.008 A 
ATOM      7  C   UNL     1       0.008   6.931  -4.932  0.00  0.00    -0.004 A 
ENDROOT
BRANCH   1   9
ATOM      8  C   UNL     1      -1.899   8.802  -4.142  0.00  0.00    +0.004 C 
ATOM      9  C   UNL     1      -2.423   7.454  -4.623  0.00  0.00    +0.022 C 
ATOM     10  C   UNL     1      -3.017   6.708  -3.460  0.00  0.00    +0.004 C 
ATOM     11  C   UNL     1      -3.451   7.762  -5.701  0.00  0.00    +0.004 C 
ENDBRANCH   1   9
BRANCH   6  12
ATOM     12  C   UNL     1       2.311   5.926  -4.954  0.00  0.00    +0.020 C 
ATOM     13  C   UNL     1       2.088   6.079  -3.454  0.00  0.00    +0.004 C 
ATOM     14  C   UNL     1       2.712   4.480  -5.208  0.00  0.00    +0.004 C 
ATOM     15  C   UNL     1       3.408   6.890  -5.332  0.00  0.00    +0.004 C 
ENDBRANCH   6  12
BRANCH   5  16
ATOM     16  N   UNL     1       1.662   5.322  -7.708  0.00  0.00    -0.176 NA
ATOM     17  C   UNL     1       2.015   6.234  -8.754  0.00  0.00    +0.274 C 
ATOM     18  O   UNL     1       1.813   7.461  -8.511  0.00  0.00    -0.268 OA
BRANCH  17  19
ATOM     19  C   UNL     1       3.042   5.886  -9.745  0.00  0.00    +0.113 A 
ATOM     20  C   UNL     1       4.318   5.556  -9.299  0.00  0.00    +0.203 A 
ATOM     21  O   UNL     1       4.433   4.974  -8.184  0.00  0.00    -0.286 OA
ATOM     22  C   UNL     1       5.425   5.846 -10.088  0.00  0.00    +0.057 A 
ATOM     23  C   UNL     1       5.277   6.645 -11.216  0.00  0.00    +0.084 A 
ATOM     24  C   UNL     1       6.166   7.670 -11.516  0.00  0.00    +0.019 A 
ATOM     25  C   UNL     1       7.423   7.582 -10.932  0.00  0.00    +0.002 A 
ATOM     26  C   UNL     1       7.750   6.498 -10.127  0.00  0.00    +0.000 A 
ATOM     27  N   UNL     1       4.052   6.579 -11.793  0.00  0.00    -0.243 NA
ATOM     28  C   UNL     1       6.690   5.847  -9.512  0.00  0.00    +0.005 A 
ATOM     29  C   UNL     1       2.943   6.281 -11.073  0.00  0.00    +0.107 A 
ENDBRANCH  17  19
ENDBRANCH   5  16
TORSDOF 4
ENDMDL
MODEL 2
REMARK VINA RESULT:      -9.4      1.769      8.176
REMARK  Name = 
REMARK  4 active torsions:
REMARK  status: ('A' for Active; 'I' for Inactive)
REMARK    1  A    between atoms: C_2  and  C_5
REMARK    2  A    between atoms: C_7  and  C_8
REMARK    3  A    between atoms: C_12  and  N_13
REMARK    4  A    between atoms: C_14  and  C_16
REMARK                            x       y       z     vdW  Elec       q    Type
REMARK                         _______ _______ _______ _____ _____    ______ ____
ROOT
ATOM      1  C   UNL     1       5.547   6.361 -10.173  0.00  0.00    +0.016 A 
ATOM      2  C   UNL     1       5.839   5.592  -9.054  0.00  0.00    +0.193 A 
ATOM      3  O   UNL     1       6.875   4.656  -9.128  0.00  0.00    -0.287 OA
ATOM      4  C   UNL     1       4.820   5.468  -8.119  0.00  0.00    +0.058 A 
ATOM      5  C   UNL     1       3.542   5.926  -8.414  0.00  0.00    +0.073 A 
ATOM      6  C   UNL     1       3.199   6.286  -9.711  0.00  0.00    -0.008 A 
ATOM      7  C   UNL     1       4.251   6.677 -10.533  0.00  0.00    -0.004 A 
ENDROOT
BRANCH   1   9
ATOM      8  C   UNL     1       6.392   8.251 -11.531  0.00  0.00    +0.004 C 
ATOM      9  C   UNL     1       6.713   6.877 -10.954  0.00  0.00    +0.022 C 
ATOM     10  C   UNL     1       7.039   5.931 -12.077  0.00  0.00    +0.004 C 
ATOM     11  C   UNL     1       7.886   7.081 -10.008  0.00  0.00    +0.004 C 
ENDBRANCH   1   9
BRANCH   6  12
ATOM     12  C   UNL     1       1.867   5.929 -10.270  0.00  0.00    +0.020 C 
ATOM     13  C   UNL     1       1.947   6.172 -11.773  0.00  0.00    +0.004 C 
ATOM     14  C   UNL     1       1.555   4.453 -10.065  0.00  0.00    +0.004 C 
ATOM     15  C   UNL     1       0.766   6.816  -9.744  0.00  0.00    +0.004 C 
ENDBRANCH   6  12
BRANCH   5  16
ATOM     16  N   UNL     1       2.513   5.964  -7.450  0.00  0.00    -0.176 NA
ATOM     17  C   UNL     1       1.987   4.767  -6.867  0.00  0.00    +0.274 C 
ATOM     18  O   UNL     1       2.786   3.786  -6.799  0.00  0.00    -0.268 OA
BRANCH  17  19
ATOM     19  C   UNL     1       0.873   4.819  -5.910  0.00  0.00    +0.113 A 
ATOM     20  C   UNL     1      -0.398   5.132  -6.380  0.00  0.00    +0.203 A 
ATOM     21  O   UNL     1      -0.714   4.768  -7.548  0.00  0.00    -0.286 OA
ATOM     22  C   UNL     1      -1.295   5.808  -5.560  0.00  0.00    +0.057 A 
ATOM     23  C   UNL     1      -0.854   6.350  -4.358  0.00  0.00    +0.084 A 
ATOM     24  C   UNL     1      -1.210   7.629  -3.951  0.00  0.00    +0.019 A 
ATOM     25  C   UNL     1      -2.353   8.162  -4.533  0.00  0.00    +0.002 A 
ATOM     26  C   UNL     1      -3.092   7.416  -5.442  0.00  0.00    +0.000 A 
ATOM     27  N   UNL     1       0.192   5.694  -3.797  0.00  0.00    -0.243 NA
ATOM     28  C   UNL     1      -2.405   6.423  -6.126  0.00  0.00    +0.005 A 
ATOM     29  C   UNL     1       1.083   5.004  -4.550  0.00  0.00    +0.107 A 
ENDBRANCH  17  19
ENDBRANCH   5  16
TORSDOF 4
ENDMDL
MODEL 3
REMARK VINA RESULT:      -9.2      2.003      8.372
REMARK  Name = 
REMARK  4 active torsions:
REMARK  status: ('A' for Active; 'I' for Inactive)
REMARK    1  A    between atoms: C_2  and  C_5
REMARK    2  A    between atoms: C_7  and  C_8
REMARK    3  A    between atoms: C_12  and  N_13
REMARK    4  A    between atoms: C_14  and  C_16
REMARK                            x       y       z     vdW  Elec       q    Type
REMARK                         _______ _______ _______ _____ _____    ______ ____
ROOT
ATOM      1  C   UNL     1       4.811   6.126 -10.050  0.00  0.00    +0.016 A 
ATOM      2  C   UNL     1       4.767   5.686  -8.733  0.00  0.00    +0.193 A 
ATOM      3  O   UNL     1       5.684   4.719  -8.313  0.00  0.00    -0.287 OA
ATOM      4  C   UNL     1       3.563   5.878  -8.068  0.00  0.00    +0.058 A 
ATOM      5  C   UNL     1       2.438   6.295  -8.768  0.00  0.00    +0.073 A 
ATOM      6  C   UNL     1       2.425   6.295 -10.158  0.00  0.00    -0.008 A 
ATOM      7  C   UNL     1       3.666   6.390 -10.777  0.00  0.00    -0.004 A 
ENDROOT
BRANCH   1   9
ATOM      8  C   UNL     1       6.407   5.373 -11.786  0.00  0.00    +0.004 C 
ATOM      9  C   UNL     1       6.168   6.347 -10.638  0.00  0.00    +0.022 C 
ATOM     10  C   UNL     1       7.223   6.145  -9.587  0.00  0.00    +0.004 C 
ATOM     11  C   UNL     1       6.217   7.738 -11.249  0.00  0.00    +0.004 C 
ENDBRANCH   1   9
BRANCH   6  12
ATOM     12  C   UNL     1       1.214   5.861 -10.905  0.00  0.00    +0.020 C 
ATOM     13  C   UNL     1       1.624   5.746 -12.368  0.00  0.00    +0.004 C 
ATOM     14  C   UNL     1       0.747   4.483 -10.455  0.00  0.00    +0.004 C 
ATOM     15  C   UNL     1       0.103   6.879 -10.842  0.00  0.00    +0.004 C 
ENDBRANCH   6  12
BRANCH   5  16
ATOM     16  N   UNL     1       1.236   6.650  -8.121  0.00  0.00    -0.176 NA
ATOM     17  C   UNL     1       0.599   5.772  -7.186  0.00  0.00    +0.274 C 
ATOM     18  O   UNL     1       1.366   4.983  -6.557  0.00  0.00    -0.268 OA
BRANCH  17  19
ATOM     19  C   UNL     1      -0.684   6.129  -6.567  0.00  0.00    +0.113 A 
ATOM     20  C   UNL     1      -0.681   6.959  -5.452  0.00  0.00    +0.203 A 
ATOM     21  O   UNL     1       0.219   7.840  -5.361  0.00  0.00    -0.286 OA
ATOM     22  C   UNL     1      -1.668   6.822  -4.482  0.00  0.00    +0.057 A 
ATOM     23  C   UNL     1      -2.527   5.730  -4.523  0.00  0.00    +0.084 A 
ATOM     24  C   UNL     1      -2.847   4.999  -3.386  0.00  0.00    +0.019 A 
ATOM     25  C   UNL     1      -2.660   5.644  -2.170  0.00  0.00    +0.002 A 
ATOM     26  C   UNL     1      -2.211   6.958  -2.133  0.00  0.00    +0.000 A 
ATOM     27  N   UNL     1      -2.748   5.236  -5.767  0.00  0.00    -0.243 NA
ATOM     28  C   UNL     1      -1.473   7.386  -3.227  0.00  0.00    +0.005 A 
ATOM     29  C   UNL     1      -1.826   5.360  -6.753  0.00  0.00    +0.107 A 
ENDBRANCH  17  19
ENDBRANCH   5  16
TORSDOF 4
ENDMDL
MODEL 4
REMARK VINA RESULT:      -8.6      3.053      6.682
REMARK  Name = 
REMARK  4 active torsions:
REMARK  status: ('A' for Active; 'I' for Inactive)
REMARK    1  A    between atoms: C_2  and  C_5
REMARK    2  A    between atoms: C_7  and  C_8
REMARK    3  A    between atoms: C_12  and  N_13
REMARK    4  A    between atoms: C_14  and  C_16
REMARK                            x       y       z     vdW  Elec       q    Type
REMARK                         _______ _______ _______ _____ _____    ______ ____
ROOT
ATOM      1  C   UNL     1       1.069   6.182 -10.258  0.00  0.00    +0.016 A 
ATOM      2  C   UNL     1       2.443   5.978 -10.281  0.00  0.00    +0.193 A 
ATOM      3  O   UNL     1       2.988   5.154 -11.270  0.00  0.00    -0.287 OA
ATOM      4  C   UNL     1       3.111   6.212  -9.086  0.00  0.00    +0.058 A 
ATOM      5  C   UNL     1       2.395   6.433  -7.917  0.00  0.00    +0.073 A 
ATOM      6  C   UNL     1       1.028   6.190  -7.865  0.00  0.00    -0.008 A 
ATOM      7  C   UNL     1       0.352   6.247  -9.079  0.00  0.00    -0.004 A 
ENDROOT
BRANCH   1   9
ATOM      8  C   UNL     1       1.402   6.889 -12.608  0.00  0.00    +0.004 C 
ATOM      9  C   UNL     1       0.399   6.376 -11.581  0.00  0.00    +0.022 C 
ATOM     10  C   UNL     1      -0.726   7.365 -11.448  0.00  0.00    +0.004 C 
ATOM     11  C   UNL     1      -0.074   5.025 -12.094  0.00  0.00    +0.004 C 
ENDBRANCH   1   9
BRANCH   6  12
ATOM     12  C   UNL     1       0.415   5.561  -6.663  0.00  0.00    +0.020 C 
ATOM     13  C   UNL     1      -1.020   5.210  -7.040  0.00  0.00    +0.004 C 
ATOM     14  C   UNL     1       1.118   4.261  -6.296  0.00  0.00    +0.004 C 
ATOM     15  C   UNL     1       0.339   6.510  -5.493  0.00  0.00    +0.004 C 
ENDBRANCH   6  12
BRANCH   5  16
ATOM     16  N   UNL     1       3.017   6.825  -6.714  0.00  0.00    -0.176 NA
ATOM     17  C   UNL     1       4.057   6.041  -6.118  0.00  0.00    +0.274 C 
ATOM     18  O   UNL     1       4.759   5.353  -6.917  0.00  0.00    -0.268 OA
BRANCH  17  19
ATOM     19  C   UNL     1       4.653   6.429  -4.832  0.00  0.00    +0.113 A 
ATOM     20  C   UNL     1       4.370   5.665  -3.705  0.00  0.00    +0.203 A 
ATOM     21  O   UNL     1       4.179   4.425  -3.853  0.00  0.00    -0.286 OA
ATOM     22  C   UNL     1       4.326   6.265  -2.452  0.00  0.00    +0.057 A 
ATOM     23  C   UNL     1       4.359   7.651  -2.351  0.00  0.00    +0.084 A 
ATOM     24  C   UNL     1       3.508   8.350  -1.504  0.00  0.00    +0.019 A 
ATOM     25  C   UNL     1       2.959   7.626  -0.453  0.00  0.00    +0.002 A 
ATOM     26  C   UNL     1       3.292   6.290  -0.270  0.00  0.00    +0.000 A 
ATOM     27  N   UNL     1       5.019   8.272  -3.360  0.00  0.00    -0.243 NA
ATOM     28  C   UNL     1       3.709   5.600  -1.400  0.00  0.00    +0.005 A 
ATOM     29  C   UNL     1       5.108   7.720  -4.595  0.00  0.00    +0.107 A 
ENDBRANCH  17  19
ENDBRANCH   5  16
TORSDOF 4
ENDMDL
MODEL 5
REMARK VINA RESULT:      -8.5      2.101      4.043
REMARK  Name = 
REMARK  4 active torsions:
REMARK  status: ('A' for Active; 'I' for Inactive)
REMARK    1  A    between atoms: C_2  and  C_5
REMARK    2  A    between atoms: C_7  and  C_8
REMARK    3  A    between atoms: C_12  and  N_13
REMARK    4  A    between atoms: C_14  and  C_16
REMARK                            x       y       z     vdW  Elec       q    Type
REMARK                         _______ _______ _______ _____ _____    ______ ____
ROOT
ATOM      1  C   UNL     1       2.524   6.601  -2.404  0.00  0.00    +0.016 A 
ATOM      2  C   UNL     1       3.561   7.436  -2.801  0.00  0.00    +0.193 A 
ATOM      3  O   UNL     1       3.951   8.479  -1.956  0.00  0.00    -0.287 OA
ATOM      4  C   UNL     1       3.821   7.474  -4.165  0.00  0.00    +0.058 A 
ATOM      5  C   UNL     1       2.950   6.866  -5.059  0.00  0.00    +0.073 A 
ATOM      6  C   UNL     1       1.699   6.425  -4.644  0.00  0.00    -0.008 A 
ATOM      7  C   UNL     1       1.576   6.129  -3.292  0.00  0.00    -0.004 A 
ENDROOT
BRANCH   1   9
ATOM      8  C   UNL     1       1.751   4.880  -0.800  0.00  0.00    +0.004 C 
ATOM      9  C   UNL     1       2.505   6.195  -0.965  0.00  0.00    +0.022 C 
ATOM     10  C   UNL     1       1.836   7.258  -0.139  0.00  0.00    +0.004 C 
ATOM     11  C   UNL     1       3.931   5.921  -0.514  0.00  0.00    +0.004 C 
ENDBRANCH   1   9
BRANCH   6  12
ATOM     12  C   UNL     1       0.504   6.611  -5.512  0.00  0.00    +0.020 C 
ATOM     13  C   UNL     1       0.010   5.215  -5.874  0.00  0.00    +0.004 C 
ATOM     14  C   UNL     1      -0.622   7.311  -4.765  0.00  0.00    +0.004 C 
ATOM     15  C   UNL     1       0.837   7.305  -6.809  0.00  0.00    +0.004 C 
ENDBRANCH   6  12
BRANCH   5  16
ATOM     16  N   UNL     1       3.244   6.743  -6.433  0.00  0.00    -0.176 NA
ATOM     17  C   UNL     1       3.685   5.504  -6.999  0.00  0.00    +0.274 C 
ATOM     18  O   UNL     1       3.284   4.454  -6.413  0.00  0.00    -0.268 OA
BRANCH  17  19
ATOM     19  C   UNL     1       4.047   5.407  -8.419  0.00  0.00    +0.113 A 
ATOM     20  C   UNL     1       5.383   5.219  -8.758  0.00  0.00    +0.203 A 
ATOM     21  O   UNL     1       6.113   4.550  -7.974  0.00  0.00    -0.286 OA
ATOM     22  C   UNL     1       5.877   5.743  -9.947  0.00  0.00    +0.057 A 
ATOM     23  C   UNL     1       5.098   6.623 -10.689  0.00  0.00    +0.084 A 
ATOM     24  C   UNL     1       5.618   7.789 -11.236  0.00  0.00    +0.019 A 
ATOM     25  C   UNL     1       6.995   7.822 -11.411  0.00  0.00    +0.002 A 
ATOM     26  C   UNL     1       7.773   6.721 -11.079  0.00  0.00    +0.000 A 
ATOM     27  N   UNL     1       3.761   6.441 -10.551  0.00  0.00    -0.243 NA
ATOM     28  C   UNL     1       7.250   5.866 -10.118  0.00  0.00    +0.005 A 
ATOM     29  C   UNL     1       3.229   5.917  -9.420  0.00  0.00    +0.107 A 
ENDBRANCH  17  19
ENDBRANCH   5  16
TORSDOF 4
ENDMDL
MODEL 6
REMARK VINA RESULT:      -8.3      2.900      5.238
REMARK  Name = 
REMARK  4 active torsions:
REMARK  status: ('A' for Active; 'I' for Inactive)
REMARK    1  A    between atoms: C_2  and  C_5
REMARK    2  A    between atoms: C_7  and  C_8
REMARK    3  A    between atoms: C_12  and  N_13
REMARK    4  A    between atoms: C_14  and  C_16
REMARK                            x       y       z     vdW  Elec       q    Type
REMARK                         _______ _______ _______ _____ _____    ______ ____
ROOT
ATOM      1  C   UNL     1       3.582   6.458  -5.068  0.00  0.00    +0.016 A 
ATOM      2  C   UNL     1       2.207   6.271  -4.994  0.00  0.00    +0.193 A 
ATOM      3  O   UNL     1       1.679   5.561  -3.912  0.00  0.00    -0.287 OA
ATOM      4  C   UNL     1       1.513   6.386  -6.191  0.00  0.00    +0.058 A 
ATOM      5  C   UNL     1       2.204   6.477  -7.393  0.00  0.00    +0.073 A 
ATOM      6  C   UNL     1       3.567   6.215  -7.449  0.00  0.00    -0.008 A 
ATOM      7  C   UNL     1       4.271   6.393  -6.264  0.00  0.00    -0.004 A 
ENDROOT
BRANCH   1   9
ATOM      8  C   UNL     1       4.421   5.528  -2.933  0.00  0.00    +0.004 C 
ATOM      9  C   UNL     1       4.284   6.782  -3.788  0.00  0.00    +0.022 C 
ATOM     10  C   UNL     1       3.509   7.821  -3.025  0.00  0.00    +0.004 C 
ATOM     11  C   UNL     1       5.700   7.232  -4.106  0.00  0.00    +0.004 C 
ENDBRANCH   1   9
BRANCH   6  12
ATOM     12  C   UNL     1       4.147   5.458  -8.592  0.00  0.00    +0.020 C 
ATOM     13  C   UNL     1       5.594   5.152  -8.221  0.00  0.00    +0.004 C 
ATOM     14  C   UNL     1       3.439   4.125  -8.793  0.00  0.00    +0.004 C 
ATOM     15  C   UNL     1       4.185   6.272  -9.862  0.00  0.00    +0.004 C 
ENDBRANCH   6  12
BRANCH   5  16
ATOM     16  N   UNL     1       1.556   6.747  -8.616  0.00  0.00    -0.176 NA
ATOM     17  C   UNL     1       0.535   5.885  -9.131  0.00  0.00    +0.274 C 
ATOM     18  O   UNL     1      -0.137   5.246  -8.267  0.00  0.00    -0.268 OA
BRANCH  17  19
ATOM     19  C   UNL     1      -0.086   6.146 -10.436  0.00  0.00    +0.113 A 
ATOM     20  C   UNL     1       0.290   5.365 -11.524  0.00  0.00    +0.203 A 
ATOM     21  O   UNL     1       0.613   4.162 -11.317  0.00  0.00    -0.286 OA
ATOM     22  C   UNL     1       0.281   5.908 -12.804  0.00  0.00    +0.057 A 
ATOM     23  C   UNL     1       0.099   7.276 -12.971  0.00  0.00    +0.084 A 
ATOM     24  C   UNL     1       0.878   8.023 -13.846  0.00  0.00    +0.019 A 
ATOM     25  C   UNL     1       1.512   7.315 -14.858  0.00  0.00    +0.002 A 
ATOM     26  C   UNL     1       1.328   5.944 -14.979  0.00  0.00    +0.000 A 
ATOM     27  N   UNL     1      -0.635   7.867 -11.996  0.00  0.00    -0.243 NA
ATOM     28  C   UNL     1       0.977   5.266 -13.821  0.00  0.00    +0.005 A 
ATOM     29  C   UNL     1      -0.677   7.367 -10.736  0.00  0.00    +0.107 A 
ENDBRANCH  17  19
ENDBRANCH   5  16
TORSDOF 4
ENDMDL
MODEL 7
REMARK VINA RESULT:      -8.2      3.785      8.860
REMARK  Name = 
REMARK  4 active torsions:
REMARK  status: ('A' for Active; 'I' for Inactive)
REMARK    1  A    between atoms: C_2  and  C_5
REMARK    2  A    between atoms: C_7  and  C_8
REMARK    3  A    between atoms: C_12  and  N_13
REMARK    4  A    between atoms: C_14  and  C_16
REMARK                            x       y       z     vdW  Elec       q    Type
REMARK                         _______ _______ _______ _____ _____    ______ ____
ROOT
ATOM      1  C   UNL     1       1.255   5.524  -7.038  0.00  0.00    +0.016 A 
ATOM      2  C   UNL     1       1.819   4.588  -6.181  0.00  0.00    +0.193 A 
ATOM      3  O   UNL     1       2.235   3.358  -6.700  0.00  0.00    -0.287 OA
ATOM      4  C   UNL     1       1.516   4.738  -4.833  0.00  0.00    +0.058 A 
ATOM      5  C   UNL     1       0.546   5.649  -4.434  0.00  0.00    +0.073 A 
ATOM      6  C   UNL     1      -0.298   6.241  -5.365  0.00  0.00    -0.008 A 
ATOM      7  C   UNL     1       0.186   6.315  -6.665  0.00  0.00    -0.004 A 
ENDROOT
BRANCH   1   9
ATOM      8  C   UNL     1       1.726   7.097  -8.891  0.00  0.00    +0.004 C 
ATOM      9  C   UNL     1       1.893   5.669  -8.383  0.00  0.00    +0.022 C 
ATOM     10  C   UNL     1       1.258   4.718  -9.359  0.00  0.00    +0.004 C 
ATOM     11  C   UNL     1       3.389   5.444  -8.243  0.00  0.00    +0.004 C 
ENDBRANCH   1   9
BRANCH   6  12
ATOM     12  C   UNL     1      -1.741   6.442  -5.059  0.00  0.00    +0.020 C 
ATOM     13  C   UNL     1      -2.503   6.144  -6.345  0.00  0.00    +0.004 C 
ATOM     14  C   UNL     1      -2.229   5.458  -4.005  0.00  0.00    +0.004 C 
ATOM     15  C   UNL     1      -2.057   7.870  -4.686  0.00  0.00    +0.004 C 
ENDBRANCH   6  12
BRANCH   5  16
ATOM     16  N   UNL     1       0.308   5.950  -3.076  0.00  0.00    -0.176 NA
ATOM     17  C   UNL     1       1.378   6.277  -2.182  0.00  0.00    +0.274 C 
ATOM     18  O   UNL     1       2.395   6.819  -2.710  0.00  0.00    -0.268 OA
BRANCH  17  19
ATOM     19  C   UNL     1       1.121   6.527  -0.757  0.00  0.00    +0.113 A 
ATOM     20  C   UNL     1      -0.183   6.430  -0.285  0.00  0.00    +0.203 A 
ATOM     21  O   UNL     1      -0.958   5.594  -0.828  0.00  0.00    -0.286 OA
ATOM     22  C   UNL     1      -0.598   7.227   0.776  0.00  0.00    +0.057 A 
ATOM     23  C   UNL     1       0.220   8.257   1.224  0.00  0.00    +0.084 A 
ATOM     24  C   UNL     1      -0.277   9.523   1.512  0.00  0.00    +0.019 A 
ATOM     25  C   UNL     1      -1.638   9.601   1.774  0.00  0.00    +0.002 A 
ATOM     26  C   UNL     1      -2.421   8.454   1.776  0.00  0.00    +0.000 A 
ATOM     27  N   UNL     1       1.546   8.044   1.035  0.00  0.00    -0.243 NA
ATOM     28  C   UNL     1      -1.957   7.392   1.013  0.00  0.00    +0.005 A 
ATOM     29  C   UNL     1       2.002   7.261   0.028  0.00  0.00    +0.107 A 
ENDBRANCH  17  19
ENDBRANCH   5  16
TORSDOF 4
ENDMDL
MODEL 8
REMARK VINA RESULT:      -8.1      2.748      4.798
REMARK  Name = 
REMARK  4 active torsions:
REMARK  status: ('A' for Active; 'I' for Inactive)
REMARK    1  A    between atoms: C_2  and  C_5
REMARK    2  A    between atoms: C_7  and  C_8
REMARK    3  A    between atoms: C_12  and  N_13
REMARK    4  A    between atoms: C_14  and  C_16
REMARK                            x       y       z     vdW  Elec       q    Type
REMARK                         _______ _______ _______ _____ _____    ______ ____
ROOT
ATOM      1  C   UNL     1       2.150   6.182  -3.156  0.00  0.00    +0.016 A 
ATOM      2  C   UNL     1       2.949   6.846  -4.078  0.00  0.00    +0.193 A 
ATOM      3  O   UNL     1       3.767   7.890  -3.637  0.00  0.00    -0.287 OA
ATOM      4  C   UNL     1       2.550   6.751  -5.406  0.00  0.00    +0.058 A 
ATOM      5  C   UNL     1       1.319   6.196  -5.727  0.00  0.00    +0.073 A 
ATOM      6  C   UNL     1       0.371   5.951  -4.741  0.00  0.00    -0.008 A 
ATOM      7  C   UNL     1       0.864   5.772  -3.454  0.00  0.00    -0.004 A 
ENDROOT
BRANCH   1   9
ATOM      8  C   UNL     1       1.889   4.917  -1.044  0.00  0.00    +0.004 C 
ATOM      9  C   UNL     1       2.767   5.887  -1.826  0.00  0.00    +0.022 C 
ATOM     10  C   UNL     1       2.925   7.159  -1.039  0.00  0.00    +0.004 C 
ATOM     11  C   UNL     1       4.090   5.173  -2.047  0.00  0.00    +0.004 C 
ENDBRANCH   1   9
BRANCH   6  12
ATOM     12  C   UNL     1      -1.071   6.224  -4.990  0.00  0.00    +0.020 C 
ATOM     13  C   UNL     1      -1.837   5.610  -3.825  0.00  0.00    +0.004 C 
ATOM     14  C   UNL     1      -1.362   7.718  -4.988  0.00  0.00    +0.004 C 
ATOM     15  C   UNL     1      -1.575   5.553  -6.244  0.00  0.00    +0.004 C 
ENDBRANCH   6  12
BRANCH   5  16
ATOM     16  N   UNL     1       0.932   5.937  -7.059  0.00  0.00    -0.176 NA
ATOM     17  C   UNL     1       1.637   4.993  -7.874  0.00  0.00    +0.274 C 
ATOM     18  O   UNL     1       2.204   4.043  -7.257  0.00  0.00    -0.268 OA
BRANCH  17  19
ATOM     19  C   UNL     1       1.261   4.780  -9.279  0.00  0.00    +0.113 A 
ATOM     20  C   UNL     1       2.166   5.134 -10.274  0.00  0.00    +0.203 A 
ATOM     21  O   UNL     1       3.400   5.028 -10.029  0.00  0.00    -0.286 OA
ATOM     22  C   UNL     1       1.702   5.568 -11.511  0.00  0.00    +0.057 A 
ATOM     23  C   UNL     1       0.351   5.845 -11.680  0.00  0.00    +0.084 A 
ATOM     24  C   UNL     1      -0.092   6.984 -12.343  0.00  0.00    +0.019 A 
ATOM     25  C   UNL     1       0.816   7.583 -13.206  0.00  0.00    +0.002 A 
ATOM     26  C   UNL     1       2.075   7.028 -13.398  0.00  0.00    +0.000 A 
ATOM     27  N   UNL     1      -0.475   5.127 -10.879  0.00  0.00    -0.243 NA
ATOM     28  C   UNL     1       2.566   6.245 -12.363  0.00  0.00    +0.005 A 
ATOM     29  C   UNL     1      -0.066   4.664  -9.673  0.00  0.00    +0.107 A 
ENDBRANCH  17  19
ENDBRANCH   5  16
TORSDOF 4
ENDMDL
MODEL 9
REMARK VINA RESULT:      -8.0      3.151      7.497
REMARK  Name = 
REMARK  4 active torsions:
REMARK  status: ('A' for Active; 'I' for Inactive)
REMARK    1  A    between atoms: C_2  and  C_5
REMARK    2  A    between atoms: C_7  and  C_8
REMARK    3  A    between atoms: C_12  and  N_13
REMARK    4  A    between atoms: C_14  and  C_16
REMARK                            x       y       z     vdW  Elec       q    Type
REMARK                         _______ _______ _______ _____ _____    ______ ____
ROOT
ATOM      1  C   UNL     1       1.187   5.469  -8.557  0.00  0.00    +0.016 A 
ATOM      2  C   UNL     1       2.262   4.746  -8.057  0.00  0.00    +0.193 A 
ATOM      3  O   UNL     1       2.588   3.522  -8.648  0.00  0.00    -0.287 OA
ATOM      4  C   UNL     1       2.639   5.042  -6.753  0.00  0.00    +0.058 A 
ATOM      5  C   UNL     1       1.842   5.863  -5.966  0.00  0.00    +0.073 A 
ATOM      6  C   UNL     1       0.556   6.202  -6.368  0.00  0.00    -0.008 A 
ATOM      7  C   UNL     1       0.314   6.157  -7.736  0.00  0.00    -0.004 A 
ENDROOT
BRANCH   1   9
ATOM      8  C   UNL     1       0.263   6.750 -10.464  0.00  0.00    +0.004 C 
ATOM      9  C   UNL     1       1.040   5.508 -10.045  0.00  0.00    +0.022 C 
ATOM     10  C   UNL     1       0.313   4.282 -10.523  0.00  0.00    +0.004 C 
ATOM     11  C   UNL     1       2.420   5.645 -10.670  0.00  0.00    +0.004 C 
ENDBRANCH   1   9
BRANCH   6  12
ATOM     12  C   UNL     1      -0.559   6.251  -5.382  0.00  0.00    +0.020 C 
ATOM     13  C   UNL     1      -1.824   5.864  -6.138  0.00  0.00    +0.004 C 
ATOM     14  C   UNL     1      -0.364   5.228  -4.272  0.00  0.00    +0.004 C 
ATOM     15  C   UNL     1      -0.783   7.639  -4.836  0.00  0.00    +0.004 C 
ENDBRANCH   6  12
BRANCH   5  16
ATOM     16  N   UNL     1       2.251   6.317  -4.694  0.00  0.00    -0.176 NA
ATOM     17  C   UNL     1       2.997   5.480  -3.804  0.00  0.00    +0.274 C 
ATOM     18  O   UNL     1       3.729   4.602  -4.351  0.00  0.00    -0.268 OA
BRANCH  17  19
ATOM     19  C   UNL     1       3.363   5.945  -2.459  0.00  0.00    +0.113 A 
ATOM     20  C   UNL     1       2.369   6.040  -1.490  0.00  0.00    +0.203 A 
ATOM     21  O   UNL     1       1.412   5.216  -1.529  0.00  0.00    -0.286 OA
ATOM     22  C   UNL     1       2.458   7.009  -0.498  0.00  0.00    +0.057 A 
ATOM     23  C   UNL     1       3.421   8.007  -0.594  0.00  0.00    +0.084 A 
ATOM     24  C   UNL     1       3.129   9.341  -0.341  0.00  0.00    +0.019 A 
ATOM     25  C   UNL     1       2.002   9.586   0.433  0.00  0.00    +0.002 A 
ATOM     26  C   UNL     1       1.254   8.531   0.939  0.00  0.00    +0.000 A 
ATOM     27  N   UNL     1       4.541   7.643  -1.265  0.00  0.00    -0.243 NA
ATOM     28  C   UNL     1       1.326   7.335   0.239  0.00  0.00    +0.005 A 
ATOM     29  C   UNL     1       4.513   6.689  -2.228  0.00  0.00    +0.107 A 
ENDBRANCH  17  19
ENDBRANCH   5  16
TORSDOF 4
ENDMDL
