MODEL 1
REMARK VINA RESULT:      -9.6      0.000      0.000
REMARK  Name = 
REMARK  6 active torsions:
REMARK  status: ('A' for Active; 'I' for Inactive)
REMARK    1  A    between atoms: C_3  and  C_5
REMARK    2  A    between atoms: C_7  and  O_8
REMARK    3  A    between atoms: O_8  and  C_9
REMARK    4  A    between atoms: C_12  and  N_13
REMARK    5  A    between atoms: N_16  and  C_17
REMARK    6  A    between atoms: C_22  and  C_23
REMARK                            x       y       z     vdW  Elec       q    Type
REMARK                         _______ _______ _______ _____ _____    ______ ____
ROOT
ATOM      1  C   UNL     1       4.842   5.807 -10.194  0.00  0.00    +0.148 A 
ATOM      2  C   UNL     1       3.862   6.773  -9.998  0.00  0.00    +0.068 A 
ATOM      3  C   UNL     1       3.252   6.916  -8.756  0.00  0.00    +0.158 A 
ATOM      4  F   UNL     1       2.226   7.786  -8.546  0.00  0.00    -0.203 F 
ATOM      5  C   UNL     1       3.555   6.072  -7.692  0.00  0.00    +0.103 A 
ATOM      6  C   UNL     1       4.749   5.379  -7.804  0.00  0.00    +0.022 A 
ATOM      7  C   UNL     1       5.416   5.329  -9.022  0.00  0.00    +0.039 A 
ENDROOT
BRANCH   5   8
ATOM      8  N   UNL     1       2.467   5.630  -6.894  0.00  0.00    -0.158 NA
ATOM      9  C   UNL     1       2.427   5.924  -5.509  0.00  0.00    +0.348 C 
ATOM     10  N   UNL     1       1.998   5.035  -4.501  0.00  0.00    -0.161 NA
ATOM     11  O   UNL     1       2.781   7.070  -5.158  0.00  0.00    -0.248 OA
BRANCH  10  12
ATOM     12  C   UNL     1       1.045   5.511  -3.549  0.00  0.00    +0.075 A 
ATOM     13  C   UNL     1      -0.204   5.824  -4.072  0.00  0.00    +0.021 A 
ATOM     14  C   UNL     1      -1.210   6.372  -3.285  0.00  0.00    +0.083 A 
ATOM     15  C   UNL     1      -0.915   6.500  -1.935  0.00  0.00    +0.062 A 
ATOM     16 CL   UNL     1      -2.121   7.281  -0.923  0.00  0.00    -0.082 Cl
ATOM     17  C   UNL     1       0.268   6.011  -1.398  0.00  0.00    +0.013 A 
ATOM     18  C   UNL     1       1.346   5.845  -2.259  0.00  0.00    +0.018 A 
BRANCH  14  19
ATOM     19  C   UNL     1      -2.274   7.199  -3.916  0.00  0.00    +0.419 C 
ATOM     20  F   UNL     1      -2.284   7.035  -5.290  0.00  0.00    -0.166 F 
ATOM     21  F   UNL     1      -2.054   8.556  -3.695  0.00  0.00    -0.166 F 
ATOM     22  F   UNL     1      -3.537   6.852  -3.456  0.00  0.00    -0.166 F 
ENDBRANCH  14  19
ENDBRANCH  10  12
ENDBRANCH   5   8
BRANCH   1  23
ATOM     23  O   UNL     1       4.819   5.064 -11.374  0.00  0.00    -0.453 OA
BRANCH  23  28
ATOM     24  C   UNL     1       6.042   6.494 -14.459  0.00  0.00    +0.139 A 
ATOM     25  N   UNL     1       7.366   6.402 -14.223  0.00  0.00    -0.239 NA
ATOM     26  C   UNL     1       7.889   5.936 -13.088  0.00  0.00    +0.102 A 
ATOM     27  C   UNL     1       6.995   5.562 -12.094  0.00  0.00    +0.058 A 
ATOM     28  C   UNL     1       5.677   5.279 -12.438  0.00  0.00    +0.149 A 
ATOM     29  C   UNL     1       5.176   6.076 -13.462  0.00  0.00    +0.061 A 
BRANCH  24  32
ATOM     30  C   UNL     1       3.991   7.801 -17.354  0.00  0.00    +0.139 C 
ATOM     31  N   UNL     1       4.321   7.146 -16.117  0.00  0.00    -0.198 NA
ATOM     32  C   UNL     1       5.628   7.314 -15.582  0.00  0.00    +0.283 C 
ATOM     33  O   UNL     1       6.249   8.400 -15.784  0.00  0.00    -0.267 OA
ENDBRANCH  24  32
ENDBRANCH  23  28
ENDBRANCH   1  23
TORSDOF 6
ENDMDL
MODEL 2
REMARK VINA RESULT:      -9.5      5.418      9.963
REMARK  Name = 
REMARK  6 active torsions:
REMARK  status: ('A' for Active; 'I' for Inactive)
REMARK    1  A    between atoms: C_3  and  C_5
REMARK    2  A    between atoms: C_7  and  O_8
REMARK    3  A    between atoms: O_8  and  C_9
REMARK    4  A    between atoms: C_12  and  N_13
REMARK    5  A    between atoms: N_16  and  C_17
REMARK    6  A    between atoms: C_22  and  C_23
REMARK                            x       y       z     vdW  Elec       q    Type
REMARK                         _______ _______ _______ _____ _____    ______ ____
ROOT
ATOM      1  C   UNL     1       1.262   5.435  -0.941  0.00  0.00    +0.148 A 
ATOM      2  C   UNL     1       2.333   4.556  -1.063  0.00  0.00    +0.068 A 
ATOM      3  C   UNL     1       3.531   4.981  -1.628  0.00  0.00    +0.158 A 
ATOM      4  F   UNL     1       4.571   4.131  -1.850  0.00  0.00    -0.203 F 
ATOM      5  C   UNL     1       3.683   6.266  -2.138  0.00  0.00    +0.103 A 
ATOM      6  C   UNL     1       2.758   7.195  -1.693  0.00  0.00    +0.022 A 
ATOM      7  C   UNL     1       1.611   6.777  -1.029  0.00  0.00    +0.039 A 
ENDROOT
BRANCH   5   8
ATOM      8  N   UNL     1       4.389   6.391  -3.364  0.00  0.00    -0.158 NA
ATOM      9  C   UNL     1       3.850   5.860  -4.561  0.00  0.00    +0.348 C 
ATOM     10  N   UNL     1       4.588   5.193  -5.561  0.00  0.00    -0.161 NA
ATOM     11  O   UNL     1       2.624   6.013  -4.752  0.00  0.00    -0.248 OA
BRANCH  10  12
ATOM     12  C   UNL     1       4.410   5.611  -6.915  0.00  0.00    +0.075 A 
ATOM     13  C   UNL     1       5.434   5.253  -7.783  0.00  0.00    +0.021 A 
ATOM     14  C   UNL     1       5.440   5.654  -9.113  0.00  0.00    +0.083 A 
ATOM     15  C   UNL     1       4.319   6.355  -9.535  0.00  0.00    +0.062 A 
ATOM     16 CL   UNL     1       4.331   6.970 -11.182  0.00  0.00    -0.082 Cl
ATOM     17  C   UNL     1       3.222   6.544  -8.704  0.00  0.00    +0.013 A 
ATOM     18  C   UNL     1       3.432   6.470  -7.332  0.00  0.00    +0.018 A 
BRANCH  14  19
ATOM     19  C   UNL     1       6.730   5.767  -9.845  0.00  0.00    +0.419 C 
ATOM     20  F   UNL     1       6.648   5.176 -11.095  0.00  0.00    -0.166 F 
ATOM     21  F   UNL     1       7.750   5.099  -9.175  0.00  0.00    -0.166 F 
ATOM     22  F   UNL     1       7.094   7.092 -10.046  0.00  0.00    -0.166 F 
ENDBRANCH  14  19
ENDBRANCH  10  12
ENDBRANCH   5   8
BRANCH   1  23
ATOM     23  O   UNL     1      -0.018   4.973  -1.245  0.00  0.00    -0.453 OA
BRANCH  23  28
ATOM     24  C   UNL     1      -1.703   5.888  -4.310  0.00  0.00    +0.139 A 
ATOM     25  N   UNL     1      -2.898   6.237  -3.795  0.00  0.00    -0.239 NA
ATOM     26  C   UNL     1      -3.206   6.150  -2.501  0.00  0.00    +0.102 A 
ATOM     27  C   UNL     1      -2.230   5.635  -1.658  0.00  0.00    +0.058 A 
ATOM     28  C   UNL     1      -0.902   5.639  -2.074  0.00  0.00    +0.149 A 
ATOM     29  C   UNL     1      -0.736   5.413  -3.437  0.00  0.00    +0.061 A 
BRANCH  24  32
ATOM     30  C   UNL     1      -0.258   5.437  -7.774  0.00  0.00    +0.139 C 
ATOM     31  N   UNL     1      -0.377   5.388  -6.342  0.00  0.00    -0.198 NA
ATOM     32  C   UNL     1      -1.626   5.723  -5.749  0.00  0.00    +0.283 C 
ATOM     33  O   UNL     1      -2.699   5.476  -6.375  0.00  0.00    -0.267 OA
ENDBRANCH  24  32
ENDBRANCH  23  28
ENDBRANCH   1  23
TORSDOF 6
ENDMDL
MODEL 3
REMARK VINA RESULT:      -9.4      4.324     11.474
REMARK  Name = 
REMARK  6 active torsions:
REMARK  status: ('A' for Active; 'I' for Inactive)
REMARK    1  A    between atoms: C_3  and  C_5
REMARK    2  A    between atoms: C_7  and  O_8
REMARK    3  A    between atoms: O_8  and  C_9
REMARK    4  A    between atoms: C_12  and  N_13
REMARK    5  A    between atoms: N_16  and  C_17
REMARK    6  A    between atoms: C_22  and  C_23
REMARK                            x       y       z     vdW  Elec       q    Type
REMARK                         _______ _______ _______ _____ _____    ______ ____
ROOT
ATOM      1  C   UNL     1      -0.921   6.077  -4.916  0.00  0.00    +0.148 A 
ATOM      2  C   UNL     1       0.141   6.941  -5.163  0.00  0.00    +0.068 A 
ATOM      3  C   UNL     1       0.806   6.906  -6.384  0.00  0.00    +0.158 A 
ATOM      4  F   UNL     1       1.906   7.669  -6.633  0.00  0.00    -0.203 F 
ATOM      5  C   UNL     1       0.478   5.981  -7.370  0.00  0.00    +0.103 A 
ATOM      6  C   UNL     1      -0.771   5.397  -7.244  0.00  0.00    +0.022 A 
ATOM      7  C   UNL     1      -1.487   5.525  -6.059  0.00  0.00    +0.039 A 
ENDROOT
BRANCH   5   8
ATOM      8  N   UNL     1       1.557   5.377  -8.068  0.00  0.00    -0.158 NA
ATOM      9  C   UNL     1       1.907   5.817  -9.368  0.00  0.00    +0.348 C 
ATOM     10  N   UNL     1       2.287   4.978 -10.436  0.00  0.00    -0.161 NA
ATOM     11  O   UNL     1       1.896   7.049  -9.576  0.00  0.00    -0.248 OA
BRANCH  10  12
ATOM     12  C   UNL     1       3.477   5.306 -11.155  0.00  0.00    +0.075 A 
ATOM     13  C   UNL     1       4.655   5.208 -10.423  0.00  0.00    +0.021 A 
ATOM     14  C   UNL     1       5.883   5.570 -10.962  0.00  0.00    +0.083 A 
ATOM     15  C   UNL     1       5.867   5.947 -12.298  0.00  0.00    +0.062 A 
ATOM     16 CL   UNL     1       7.382   6.510 -12.989  0.00  0.00    -0.082 Cl
ATOM     17  C   UNL     1       4.712   5.863 -13.065  0.00  0.00    +0.013 A 
ATOM     18  C   UNL     1       3.493   5.874 -12.397  0.00  0.00    +0.018 A 
BRANCH  14  19
ATOM     19  C   UNL     1       6.988   5.997 -10.062  0.00  0.00    +0.419 C 
ATOM     20  F   UNL     1       6.639   5.836  -8.732  0.00  0.00    -0.166 F 
ATOM     21  F   UNL     1       7.271   7.351 -10.219  0.00  0.00    -0.166 F 
ATOM     22  F   UNL     1       8.141   5.253 -10.272  0.00  0.00    -0.166 F 
ENDBRANCH  14  19
ENDBRANCH  10  12
ENDBRANCH   5   8
BRANCH   1  23
ATOM     23  O   UNL     1      -1.004   5.462  -3.668  0.00  0.00    -0.453 OA
BRANCH  23  28
ATOM     24  C   UNL     1      -0.475   6.783  -0.345  0.00  0.00    +0.139 A 
ATOM     25  N   UNL     1       0.673   6.143  -0.045  0.00  0.00    -0.239 NA
ATOM     26  C   UNL     1       1.269   5.264  -0.853  0.00  0.00    +0.102 A 
ATOM     27  C   UNL     1       0.630   4.985  -2.054  0.00  0.00    +0.058 A 
ATOM     28  C   UNL     1      -0.306   5.886  -2.551  0.00  0.00    +0.149 A 
ATOM     29  C   UNL     1      -1.067   6.511  -1.568  0.00  0.00    +0.061 A 
BRANCH  24  32
ATOM     30  C   UNL     1      -1.885   9.526   1.841  0.00  0.00    +0.139 C 
ATOM     31  N   UNL     1      -1.396   8.845   0.673  0.00  0.00    -0.198 NA
ATOM     32  C   UNL     1      -1.167   7.443   0.746  0.00  0.00    +0.283 C 
ATOM     33  O   UNL     1      -1.890   6.732   1.504  0.00  0.00    -0.267 OA
ENDBRANCH  24  32
ENDBRANCH  23  28
ENDBRANCH   1  23
TORSDOF 6
ENDMDL
MODEL 4
REMARK VINA RESULT:      -9.4      4.179     11.079
REMARK  Name = 
REMARK  6 active torsions:
REMARK  status: ('A' for Active; 'I' for Inactive)
REMARK    1  A    between atoms: C_3  and  C_5
REMARK    2  A    between atoms: C_7  and  O_8
REMARK    3  A    between atoms: O_8  and  C_9
REMARK    4  A    between atoms: C_12  and  N_13
REMARK    5  A    between atoms: N_16  and  C_17
REMARK    6  A    between atoms: C_22  and  C_23
REMARK                            x       y       z     vdW  Elec       q    Type
REMARK                         _______ _______ _______ _____ _____    ______ ____
ROOT
ATOM      1  C   UNL     1      -2.024   5.946  -4.982  0.00  0.00    +0.148 A 
ATOM      2  C   UNL     1      -0.954   6.826  -4.856  0.00  0.00    +0.068 A 
ATOM      3  C   UNL     1       0.080   6.816  -5.786  0.00  0.00    +0.158 A 
ATOM      4  F   UNL     1       1.187   7.595  -5.649  0.00  0.00    -0.203 F 
ATOM      5  C   UNL     1       0.112   5.900  -6.832  0.00  0.00    +0.103 A 
ATOM      6  C   UNL     1      -1.098   5.298  -7.133  0.00  0.00    +0.022 A 
ATOM      7  C   UNL     1      -2.169   5.402  -6.253  0.00  0.00    +0.039 A 
ENDROOT
BRANCH   5   8
ATOM      8  N   UNL     1       1.371   5.318  -7.137  0.00  0.00    -0.158 NA
ATOM      9  C   UNL     1       2.072   5.697  -8.309  0.00  0.00    +0.348 C 
ATOM     10  N   UNL     1       2.783   4.817  -9.152  0.00  0.00    -0.161 NA
ATOM     11  O   UNL     1       2.076   6.911  -8.605  0.00  0.00    -0.248 OA
BRANCH  10  12
ATOM     12  C   UNL     1       4.118   5.171  -9.515  0.00  0.00    +0.075 A 
ATOM     13  C   UNL     1       4.304   5.475 -10.858  0.00  0.00    +0.021 A 
ATOM     14  C   UNL     1       5.560   5.761 -11.377  0.00  0.00    +0.083 A 
ATOM     15  C   UNL     1       6.595   5.811 -10.454  0.00  0.00    +0.062 A 
ATOM     16 CL   UNL     1       8.216   6.069 -11.082  0.00  0.00    -0.082 Cl
ATOM     17  C   UNL     1       6.362   5.687  -9.090  0.00  0.00    +0.013 A 
ATOM     18  C   UNL     1       5.200   5.037  -8.691  0.00  0.00    +0.018 A 
BRANCH  14  19
ATOM     19  C   UNL     1       5.836   5.524 -12.820  0.00  0.00    +0.419 C 
ATOM     20  F   UNL     1       4.754   4.924 -13.442  0.00  0.00    -0.166 F 
ATOM     21  F   UNL     1       6.906   4.651 -12.991  0.00  0.00    -0.166 F 
ATOM     22  F   UNL     1       6.088   6.709 -13.498  0.00  0.00    -0.166 F 
ENDBRANCH  14  19
ENDBRANCH  10  12
ENDBRANCH   5   8
BRANCH   1  23
ATOM     23  O   UNL     1      -2.506   5.314  -3.837  0.00  0.00    -0.453 OA
BRANCH  23  28
ATOM     24  C   UNL     1      -0.053   5.703  -1.211  0.00  0.00    +0.139 A 
ATOM     25  N   UNL     1      -0.720   6.575  -0.429  0.00  0.00    -0.239 NA
ATOM     26  C   UNL     1      -1.916   7.082  -0.730  0.00  0.00    +0.102 A 
ATOM     27  C   UNL     1      -2.470   6.699  -1.945  0.00  0.00    +0.058 A 
ATOM     28  C   UNL     1      -2.013   5.540  -2.565  0.00  0.00    +0.149 A 
ATOM     29  C   UNL     1      -0.651   5.311  -2.398  0.00  0.00    +0.061 A 
BRANCH  24  32
ATOM     30  C   UNL     1       3.550   6.444  -0.338  0.00  0.00    +0.139 C 
ATOM     31  N   UNL     1       2.121   6.587  -0.418  0.00  0.00    -0.198 NA
ATOM     32  C   UNL     1       1.354   5.500  -0.922  0.00  0.00    +0.283 C 
ATOM     33  O   UNL     1       1.754   4.313  -0.732  0.00  0.00    -0.267 OA
ENDBRANCH  24  32
ENDBRANCH  23  28
ENDBRANCH   1  23
TORSDOF 6
ENDMDL
MODEL 5
REMARK VINA RESULT:      -9.2      1.863      2.494
REMARK  Name = 
REMARK  6 active torsions:
REMARK  status: ('A' for Active; 'I' for Inactive)
REMARK    1  A    between atoms: C_3  and  C_5
REMARK    2  A    between atoms: C_7  and  O_8
REMARK    3  A    between atoms: O_8  and  C_9
REMARK    4  A    between atoms: C_12  and  N_13
REMARK    5  A    between atoms: N_16  and  C_17
REMARK    6  A    between atoms: C_22  and  C_23
REMARK                            x       y       z     vdW  Elec       q    Type
REMARK                         _______ _______ _______ _____ _____    ______ ____
ROOT
ATOM      1  C   UNL     1       6.192   5.799 -10.951  0.00  0.00    +0.148 A 
ATOM      2  C   UNL     1       5.052   6.591 -10.863  0.00  0.00    +0.068 A 
ATOM      3  C   UNL     1       4.295   6.606  -9.696  0.00  0.00    +0.158 A 
ATOM      4  F   UNL     1       3.124   7.294  -9.599  0.00  0.00    -0.203 F 
ATOM      5  C   UNL     1       4.612   5.799  -8.609  0.00  0.00    +0.103 A 
ATOM      6  C   UNL     1       5.908   5.310  -8.589  0.00  0.00    +0.022 A 
ATOM      7  C   UNL     1       6.704   5.395  -9.724  0.00  0.00    +0.039 A 
ENDROOT
BRANCH   5   8
ATOM      8  N   UNL     1       3.529   5.169  -7.939  0.00  0.00    -0.158 NA
ATOM      9  C   UNL     1       3.139   5.597  -6.645  0.00  0.00    +0.348 C 
ATOM     10  N   UNL     1       2.750   4.746  -5.590  0.00  0.00    -0.161 NA
ATOM     11  O   UNL     1       3.120   6.829  -6.433  0.00  0.00    -0.248 OA
BRANCH  10  12
ATOM     12  C   UNL     1       1.537   5.048  -4.900  0.00  0.00    +0.075 A 
ATOM     13  C   UNL     1       0.385   4.988  -5.675  0.00  0.00    +0.021 A 
ATOM     14  C   UNL     1      -0.860   5.331  -5.164  0.00  0.00    +0.083 A 
ATOM     15  C   UNL     1      -0.889   5.648  -3.812  0.00  0.00    +0.062 A 
ATOM     16 CL   UNL     1      -2.425   6.185  -3.150  0.00  0.00    -0.082 Cl
ATOM     17  C   UNL     1       0.237   5.523  -3.010  0.00  0.00    +0.013 A 
ATOM     18  C   UNL     1       1.479   5.558  -3.633  0.00  0.00    +0.018 A 
BRANCH  14  19
ATOM     19  C   UNL     1      -1.931   5.805  -6.081  0.00  0.00    +0.419 C 
ATOM     20  F   UNL     1      -3.059   5.008  -5.985  0.00  0.00    -0.166 F 
ATOM     21  F   UNL     1      -1.525   5.731  -7.410  0.00  0.00    -0.166 F 
ATOM     22  F   UNL     1      -2.325   7.103  -5.787  0.00  0.00    -0.166 F 
ENDBRANCH  14  19
ENDBRANCH  10  12
ENDBRANCH   5   8
BRANCH   1  23
ATOM     23  O   UNL     1       6.421   5.088 -12.129  0.00  0.00    -0.453 OA
BRANCH  23  28
ATOM     24  C   UNL     1       3.690   5.848 -14.372  0.00  0.00    +0.139 A 
ATOM     25  N   UNL     1       4.376   6.524 -15.315  0.00  0.00    -0.239 NA
ATOM     26  C   UNL     1       5.681   6.786 -15.243  0.00  0.00    +0.102 A 
ATOM     27  C   UNL     1       6.344   6.356 -14.100  0.00  0.00    +0.058 A 
ATOM     28  C   UNL     1       5.777   5.350 -13.325  0.00  0.00    +0.149 A 
ATOM     29  C   UNL     1       4.388   5.399 -13.262  0.00  0.00    +0.061 A 
BRANCH  24  32
ATOM     30  C   UNL     1       0.215   7.039 -15.266  0.00  0.00    +0.139 C 
ATOM     31  N   UNL     1       1.631   6.804 -15.362  0.00  0.00    -0.198 NA
ATOM     32  C   UNL     1       2.243   5.927 -14.424  0.00  0.00    +0.283 C 
ATOM     33  O   UNL     1       1.579   4.955 -13.955  0.00  0.00    -0.267 OA
ENDBRANCH  24  32
ENDBRANCH  23  28
ENDBRANCH   1  23
TORSDOF 6
ENDMDL
MODEL 6
REMARK VINA RESULT:      -9.2      4.829     11.579
REMARK  Name = 
REMARK  6 active torsions:
REMARK  status: ('A' for Active; 'I' for Inactive)
REMARK    1  A    between atoms: C_3  and  C_5
REMARK    2  A    between atoms: C_7  and  O_8
REMARK    3  A    between atoms: O_8  and  C_9
REMARK    4  A    between atoms: C_12  and  N_13
REMARK    5  A    between atoms: N_16  and  C_17
REMARK    6  A    between atoms: C_22  and  C_23
REMARK                            x       y       z     vdW  Elec       q    Type
REMARK                         _______ _______ _______ _____ _____    ______ ____
ROOT
ATOM      1  C   UNL     1       1.527   5.777  -3.081  0.00  0.00    +0.148 A 
ATOM      2  C   UNL     1       2.839   5.389  -2.832  0.00  0.00    +0.068 A 
ATOM      3  C   UNL     1       3.832   5.617  -3.780  0.00  0.00    +0.158 A 
ATOM      4  F   UNL     1       5.108   5.172  -3.615  0.00  0.00    -0.203 F 
ATOM      5  C   UNL     1       3.544   6.180  -5.018  0.00  0.00    +0.103 A 
ATOM      6  C   UNL     1       2.341   6.862  -5.097  0.00  0.00    +0.022 A 
ATOM      7  C   UNL     1       1.392   6.721  -4.092  0.00  0.00    +0.039 A 
ENDROOT
BRANCH   5   8
ATOM      8  N   UNL     1       4.199   5.619  -6.147  0.00  0.00    -0.158 NA
ATOM      9  C   UNL     1       3.731   5.890  -7.457  0.00  0.00    +0.348 C 
ATOM     10  N   UNL     1       3.659   4.950  -8.505  0.00  0.00    -0.161 NA
ATOM     11  O   UNL     1       3.374   7.062  -7.704  0.00  0.00    -0.248 OA
BRANCH  10  12
ATOM     12  C   UNL     1       4.214   5.314  -9.770  0.00  0.00    +0.075 A 
ATOM     13  C   UNL     1       5.566   5.636  -9.751  0.00  0.00    +0.021 A 
ATOM     14  C   UNL     1       6.228   6.084 -10.887  0.00  0.00    +0.083 A 
ATOM     15  C   UNL     1       5.475   6.102 -12.054  0.00  0.00    +0.062 A 
ATOM     16 CL   UNL     1       6.244   6.758 -13.492  0.00  0.00    -0.082 Cl
ATOM     17  C   UNL     1       4.180   5.603 -12.094  0.00  0.00    +0.013 A 
ATOM     18  C   UNL     1       3.476   5.543 -10.897  0.00  0.00    +0.018 A 
BRANCH  14  19
ATOM     19  C   UNL     1       7.442   6.932 -10.750  0.00  0.00    +0.419 C 
ATOM     20  F   UNL     1       7.951   6.870  -9.464  0.00  0.00    -0.166 F 
ATOM     21  F   UNL     1       7.149   8.273 -10.979  0.00  0.00    -0.166 F 
ATOM     22  F   UNL     1       8.455   6.524 -11.607  0.00  0.00    -0.166 F 
ENDBRANCH  14  19
ENDBRANCH  10  12
ENDBRANCH   5   8
BRANCH   1  23
ATOM     23  O   UNL     1       0.496   4.908  -2.725  0.00  0.00    -0.453 OA
BRANCH  23  28
ATOM     24  C   UNL     1      -1.765   6.937  -0.766  0.00  0.00    +0.139 A 
ATOM     25  N   UNL     1      -2.893   6.738  -1.476  0.00  0.00    -0.239 NA
ATOM     26  C   UNL     1      -2.953   6.008  -2.591  0.00  0.00    +0.102 A 
ATOM     27  C   UNL     1      -1.760   5.460  -3.045  0.00  0.00    +0.058 A 
ATOM     28  C   UNL     1      -0.697   5.318  -2.159  0.00  0.00    +0.149 A 
ATOM     29  C   UNL     1      -0.599   6.344  -1.225  0.00  0.00    +0.061 A 
BRANCH  24  32
ATOM     30  C   UNL     1      -2.777   9.003   2.233  0.00  0.00    +0.139 C 
ATOM     31  N   UNL     1      -2.597   7.863   1.375  0.00  0.00    -0.198 NA
ATOM     32  C   UNL     1      -1.783   8.003   0.217  0.00  0.00    +0.283 C 
ATOM     33  O   UNL     1      -0.804   8.807   0.236  0.00  0.00    -0.267 OA
ENDBRANCH  24  32
ENDBRANCH  23  28
ENDBRANCH   1  23
TORSDOF 6
ENDMDL
MODEL 7
REMARK VINA RESULT:      -9.2      4.457     11.655
REMARK  Name = 
REMARK  6 active torsions:
REMARK  status: ('A' for Active; 'I' for Inactive)
REMARK    1  A    between atoms: C_3  and  C_5
REMARK    2  A    between atoms: C_7  and  O_8
REMARK    3  A    between atoms: O_8  and  C_9
REMARK    4  A    between atoms: C_12  and  N_13
REMARK    5  A    between atoms: N_16  and  C_17
REMARK    6  A    between atoms: C_22  and  C_23
REMARK                            x       y       z     vdW  Elec       q    Type
REMARK                         _______ _______ _______ _____ _____    ______ ____
ROOT
ATOM      1  C   UNL     1      -1.568   6.303  -5.115  0.00  0.00    +0.148 A 
ATOM      2  C   UNL     1      -0.579   7.261  -5.309  0.00  0.00    +0.068 A 
ATOM      3  C   UNL     1       0.386   7.087  -6.296  0.00  0.00    +0.158 A 
ATOM      4  F   UNL     1       1.423   7.953  -6.458  0.00  0.00    -0.203 F 
ATOM      5  C   UNL     1       0.432   5.938  -7.078  0.00  0.00    +0.103 A 
ATOM      6  C   UNL     1      -0.735   5.193  -7.109  0.00  0.00    +0.022 A 
ATOM      7  C   UNL     1      -1.748   5.442  -6.191  0.00  0.00    +0.039 A 
ENDROOT
BRANCH   5   8
ATOM      8  N   UNL     1       1.716   5.390  -7.339  0.00  0.00    -0.158 NA
ATOM      9  C   UNL     1       2.392   5.688  -8.548  0.00  0.00    +0.348 C 
ATOM     10  N   UNL     1       3.139   4.767  -9.311  0.00  0.00    -0.161 NA
ATOM     11  O   UNL     1       2.335   6.868  -8.958  0.00  0.00    -0.248 OA
BRANCH  10  12
ATOM     12  C   UNL     1       4.454   5.147  -9.719  0.00  0.00    +0.075 A 
ATOM     13  C   UNL     1       4.592   5.434 -11.072  0.00  0.00    +0.021 A 
ATOM     14  C   UNL     1       5.825   5.742 -11.633  0.00  0.00    +0.083 A 
ATOM     15  C   UNL     1       6.886   5.833 -10.741  0.00  0.00    +0.062 A 
ATOM     16 CL   UNL     1       8.480   6.120 -11.421  0.00  0.00    -0.082 Cl
ATOM     17  C   UNL     1       6.696   5.726  -9.370  0.00  0.00    +0.013 A 
ATOM     18  C   UNL     1       5.563   5.054  -8.926  0.00  0.00    +0.018 A 
BRANCH  14  19
ATOM     19  C   UNL     1       6.064   5.488 -13.079  0.00  0.00    +0.419 C 
ATOM     20  F   UNL     1       6.141   6.675 -13.788  0.00  0.00    -0.166 F 
ATOM     21  F   UNL     1       5.013   4.774 -13.646  0.00  0.00    -0.166 F 
ATOM     22  F   UNL     1       7.257   4.810 -13.293  0.00  0.00    -0.166 F 
ENDBRANCH  14  19
ENDBRANCH  10  12
ENDBRANCH   5   8
BRANCH   1  23
ATOM     23  O   UNL     1      -1.911   5.953  -3.810  0.00  0.00    -0.453 OA
BRANCH  23  28
ATOM     24  C   UNL     1      -1.239   7.286  -0.519  0.00  0.00    +0.139 A 
ATOM     25  N   UNL     1      -0.193   6.505  -0.185  0.00  0.00    -0.239 NA
ATOM     26  C   UNL     1       0.286   5.530  -0.960  0.00  0.00    +0.102 A 
ATOM     27  C   UNL     1      -0.374   5.305  -2.161  0.00  0.00    +0.058 A 
ATOM     28  C   UNL     1      -1.173   6.311  -2.696  0.00  0.00    +0.149 A 
ATOM     29  C   UNL     1      -1.851   7.062  -1.741  0.00  0.00    +0.061 A 
BRANCH  24  32
ATOM     30  C   UNL     1      -3.307   8.171   2.520  0.00  0.00    +0.139 C 
ATOM     31  N   UNL     1      -2.530   7.393   1.593  0.00  0.00    -0.198 NA
ATOM     32  C   UNL     1      -1.845   8.067   0.544  0.00  0.00    +0.283 C 
ATOM     33  O   UNL     1      -1.413   9.242   0.735  0.00  0.00    -0.267 OA
ENDBRANCH  24  32
ENDBRANCH  23  28
ENDBRANCH   1  23
TORSDOF 6
ENDMDL
MODEL 8
REMARK VINA RESULT:      -9.0      4.516     11.236
REMARK  Name = 
REMARK  6 active torsions:
REMARK  status: ('A' for Active; 'I' for Inactive)
REMARK    1  A    between atoms: C_3  and  C_5
REMARK    2  A    between atoms: C_7  and  O_8
REMARK    3  A    between atoms: O_8  and  C_9
REMARK    4  A    between atoms: C_12  and  N_13
REMARK    5  A    between atoms: N_16  and  C_17
REMARK    6  A    between atoms: C_22  and  C_23
REMARK                            x       y       z     vdW  Elec       q    Type
REMARK                         _______ _______ _______ _____ _____    ______ ____
ROOT
ATOM      1  C   UNL     1      -0.573   5.163  -6.170  0.00  0.00    +0.148 A 
ATOM      2  C   UNL     1      -0.904   5.454  -7.489  0.00  0.00    +0.068 A 
ATOM      3  C   UNL     1       0.070   5.422  -8.482  0.00  0.00    +0.158 A 
ATOM      4  F   UNL     1      -0.191   5.788  -9.767  0.00  0.00    -0.203 F 
ATOM      5  C   UNL     1       1.404   5.158  -8.189  0.00  0.00    +0.103 A 
ATOM      6  C   UNL     1       1.634   4.540  -6.971  0.00  0.00    +0.022 A 
ATOM      7  C   UNL     1       0.624   4.473  -6.019  0.00  0.00    +0.039 A 
ENDROOT
BRANCH   5   8
ATOM      8  N   UNL     1       2.377   5.942  -8.863  0.00  0.00    -0.158 NA
ATOM      9  C   UNL     1       3.733   5.534  -8.893  0.00  0.00    +0.348 C 
ATOM     10  N   UNL     1       4.844   6.392  -8.759  0.00  0.00    -0.161 NA
ATOM     11  O   UNL     1       3.959   4.318  -9.074  0.00  0.00    -0.248 OA
BRANCH  10  12
ATOM     12  C   UNL     1       5.893   6.285  -9.722  0.00  0.00    +0.075 A 
ATOM     13  C   UNL     1       5.545   6.649 -11.017  0.00  0.00    +0.021 A 
ATOM     14  C   UNL     1       6.435   6.524 -12.077  0.00  0.00    +0.083 A 
ATOM     15  C   UNL     1       7.714   6.100 -11.742  0.00  0.00    +0.062 A 
ATOM     16 CL   UNL     1       8.840   5.832 -13.064  0.00  0.00    -0.082 Cl
ATOM     17  C   UNL     1       8.098   5.919 -10.420  0.00  0.00    +0.013 A 
ATOM     18  C   UNL     1       7.098   5.685  -9.484  0.00  0.00    +0.018 A 
BRANCH  14  19
ATOM     19  C   UNL     1       5.917   6.365 -13.462  0.00  0.00    +0.419 C 
ATOM     20  F   UNL     1       6.254   7.454 -14.249  0.00  0.00    -0.166 F 
ATOM     21  F   UNL     1       4.527   6.301 -13.476  0.00  0.00    -0.166 F 
ATOM     22  F   UNL     1       6.442   5.239 -14.082  0.00  0.00    -0.166 F 
ENDBRANCH  14  19
ENDBRANCH  10  12
ENDBRANCH   5   8
BRANCH   1  23
ATOM     23  O   UNL     1      -1.115   5.954  -5.157  0.00  0.00    -0.453 OA
BRANCH  23  28
ATOM     24  C   UNL     1      -0.263   5.789  -1.648  0.00  0.00    +0.139 A 
ATOM     25  N   UNL     1      -1.489   5.540  -1.147  0.00  0.00    -0.239 NA
ATOM     26  C   UNL     1      -2.596   5.464  -1.887  0.00  0.00    +0.102 A 
ATOM     27  C   UNL     1      -2.454   5.693  -3.250  0.00  0.00    +0.058 A 
ATOM     28  C   UNL     1      -1.198   5.562  -3.833  0.00  0.00    +0.149 A 
ATOM     29  C   UNL     1      -0.149   5.974  -3.017  0.00  0.00    +0.061 A 
BRANCH  24  32
ATOM     30  C   UNL     1       1.608   7.725   1.005  0.00  0.00    +0.139 C 
ATOM     31  N   UNL     1       0.516   7.213   0.222  0.00  0.00    -0.198 NA
ATOM     32  C   UNL     1       0.772   6.165  -0.704  0.00  0.00    +0.283 C 
ATOM     33  O   UNL     1       1.680   5.318  -0.452  0.00  0.00    -0.267 OA
ENDBRANCH  24  32
ENDBRANCH  23  28
ENDBRANCH   1  23
TORSDOF 6
ENDMDL
MODEL 9
REMARK VINA RESULT:      -9.0      4.742     10.314
REMARK  Name = 
REMARK  6 active torsions:
REMARK  status: ('A' for Active; 'I' for Inactive)
REMARK    1  A    between atoms: C_3  and  C_5
REMARK    2  A    between atoms: C_7  and  O_8
REMARK    3  A    between atoms: O_8  and  C_9
REMARK    4  A    between atoms: C_12  and  N_13
REMARK    5  A    between atoms: N_16  and  C_17
REMARK    6  A    between atoms: C_22  and  C_23
REMARK                            x       y       z     vdW  Elec       q    Type
REMARK                         _______ _______ _______ _____ _____    ______ ____
ROOT
ATOM      1  C   UNL     1       3.430   6.332  -1.219  0.00  0.00    +0.148 A 
ATOM      2  C   UNL     1       3.476   5.209  -2.038  0.00  0.00    +0.068 A 
ATOM      3  C   UNL     1       3.553   5.349  -3.420  0.00  0.00    +0.158 A 
ATOM      4  F   UNL     1       3.508   4.279  -4.261  0.00  0.00    -0.203 F 
ATOM      5  C   UNL     1       3.529   6.598  -4.031  0.00  0.00    +0.103 A 
ATOM      6  C   UNL     1       3.836   7.668  -3.207  0.00  0.00    +0.022 A 
ATOM      7  C   UNL     1       3.868   7.502  -1.828  0.00  0.00    +0.039 A 
ENDROOT
BRANCH   5   8
ATOM      8  N   UNL     1       2.752   6.720  -5.213  0.00  0.00    -0.158 NA
ATOM      9  C   UNL     1       3.382   6.836  -6.477  0.00  0.00    +0.348 C 
ATOM     10  N   UNL     1       2.962   7.687  -7.520  0.00  0.00    -0.161 NA
ATOM     11  O   UNL     1       4.377   6.110  -6.688  0.00  0.00    -0.248 OA
BRANCH  10  12
ATOM     12  C   UNL     1       2.819   7.126  -8.826  0.00  0.00    +0.075 A 
ATOM     13  C   UNL     1       1.558   6.620  -9.118  0.00  0.00    +0.021 A 
ATOM     14  C   UNL     1       1.288   5.974 -10.317  0.00  0.00    +0.083 A 
ATOM     15  C   UNL     1       2.330   5.947 -11.234  0.00  0.00    +0.062 A 
ATOM     16 CL   UNL     1       2.063   5.052 -12.722  0.00  0.00    -0.082 Cl
ATOM     17  C   UNL     1       3.523   6.618 -11.001  0.00  0.00    +0.013 A 
ATOM     18  C   UNL     1       3.860   6.894  -9.681  0.00  0.00    +0.018 A 
BRANCH  14  19
ATOM     19  C   UNL     1       0.183   4.980 -10.389  0.00  0.00    +0.419 C 
ATOM     20  F   UNL     1      -0.572   4.988  -9.228  0.00  0.00    -0.166 F 
ATOM     21  F   UNL     1       0.677   3.685 -10.513  0.00  0.00    -0.166 F 
ATOM     22  F   UNL     1      -0.684   5.249 -11.439  0.00  0.00    -0.166 F 
ENDBRANCH  14  19
ENDBRANCH  10  12
ENDBRANCH   5   8
BRANCH   1  23
ATOM     23  O   UNL     1       2.546   6.335  -0.140  0.00  0.00    -0.453 OA
BRANCH  23  28
ATOM     24  C   UNL     1      -0.909   6.425  -1.197  0.00  0.00    +0.139 A 
ATOM     25  N   UNL     1      -1.455   6.951  -0.083  0.00  0.00    -0.239 NA
ATOM     26  C   UNL     1      -0.764   7.242   1.020  0.00  0.00    +0.102 A 
ATOM     27  C   UNL     1       0.592   6.944   1.005  0.00  0.00    +0.058 A 
ATOM     28  C   UNL     1       1.238   6.779  -0.216  0.00  0.00    +0.149 A 
ATOM     29  C   UNL     1       0.454   6.174  -1.193  0.00  0.00    +0.061 A 
BRANCH  24  32
ATOM     30  C   UNL     1      -2.512   5.617  -4.524  0.00  0.00    +0.139 C 
ATOM     31  N   UNL     1      -1.510   5.983  -3.559  0.00  0.00    -0.198 NA
ATOM     32  C   UNL     1      -1.820   5.862  -2.176  0.00  0.00    +0.283 C 
ATOM     33  O   UNL     1      -2.614   4.952  -1.792  0.00  0.00    -0.267 OA
ENDBRANCH  24  32
ENDBRANCH  23  28
ENDBRANCH   1  23
TORSDOF 6
ENDMDL
