MODEL 1
REMARK VINA RESULT:      16.9      0.000      0.000
REMARK  Name = 
REMARK  9 active torsions:
REMARK  status: ('A' for Active; 'I' for Inactive)
REMARK    1  A    between atoms: O_2  and  C_3
REMARK    2  A    between atoms: C_5  and  C_6
REMARK    3  A    between atoms: C_6  and  C_7
REMARK    4  A    between atoms: C_7  and  C_9
REMARK    5  A    between atoms: C_20  and  O_21
REMARK    6  A    between atoms: C_37  and  O_38
REMARK    7  A    between atoms: C_64  and  O_65
REMARK    8  A    between atoms: O_65  and  C_66
REMARK    9  A    between atoms: C_66  and  C_67
REMARK                            x       y       z     vdW  Elec       q    Type
REMARK                         _______ _______ _______ _____ _____    ______ ____
ROOT
ATOM      1  C   UNL     1       0.022   6.739  -5.175  0.00  0.00    +0.176 C 
ATOM      2  O   UNL     1       1.082   6.183  -6.104  0.00  0.00    -0.451 OA
ATOM      3  C   UNL     1       2.255   6.596  -6.024  0.00  0.00    +0.335 C 
ATOM      4  O   UNL     1       2.929   7.656  -6.240  0.00  0.00    -0.248 OA
ATOM      5  C   UNL     1       2.896   5.604  -4.903  0.00  0.00    +0.175 C 
ATOM      6  N   UNL     1       4.199   5.419  -5.764  0.00  0.00    -0.265 N 
ATOM      7  C   UNL     1       4.201   5.518  -7.161  0.00  0.00    +0.094 C 
ATOM      8  C   UNL     1       3.199   4.650  -7.806  0.00  0.00    +0.022 C 
ATOM      9  C   UNL     1       2.260   4.101  -6.857  0.00  0.00    +0.004 C 
ATOM     10  C   UNL     1       5.000   4.444  -5.110  0.00  0.00    +0.289 C 
ATOM     11  O   UNL     1       5.915   3.875  -5.789  0.00  0.00    -0.267 OA
ATOM     12  C   UNL     1       5.395   4.880  -3.753  0.00  0.00    +0.279 C 
ATOM     13  O   UNL     1       6.267   4.222  -3.125  0.00  0.00    -0.281 OA
ATOM     14  C   UNL     1       4.991   6.147  -3.172  0.00  0.00    +0.279 C 
ATOM     15  O   UNL     1       4.832   5.979  -1.905  0.00  0.00    -0.329 OA
ATOM     16  C   UNL     1       4.260   7.152  -1.141  0.00  0.00    +0.121 C 
ATOM     17  C   UNL     1       4.480   8.387  -2.217  0.00  0.00    +0.030 C 
ATOM     18  C   UNL     1       5.799   8.435  -2.723  0.00  0.00    +0.008 C 
ATOM     19  C   UNL     1       5.720   7.533  -0.487  0.00  0.00    +0.063 C 
ATOM     20  C   UNL     1       5.913   6.483   0.765  0.00  0.00    +0.136 C 
ATOM     21  C   UNL     1       4.910   7.304   1.756  0.00  0.00    -0.017 C 
ATOM     22  C   UNL     1       5.897   8.219   2.442  0.00  0.00    +0.029 C 
ATOM     23  C   UNL     1       3.833   7.738   1.309  0.00  0.00    -0.006 C 
ATOM     24  C   UNL     1       2.452   7.416   1.546  0.00  0.00    -0.001 C 
ATOM     25  C   UNL     1       2.231   6.949   2.776  0.00  0.00    -0.000 C 
ATOM     26  C   UNL     1       1.604   7.988   3.611  0.00  0.00    -0.005 C 
ATOM     27  C   UNL     1       0.323   8.161   3.318  0.00  0.00    -0.026 C 
ATOM     28  C   UNL     1      -0.464   6.806   3.684  0.00  0.00    +0.022 C 
ATOM     29  C   UNL     1      -0.623   6.372   2.116  0.00  0.00    +0.005 C 
ATOM     30  C   UNL     1      -1.944   7.492   3.750  0.00  0.00    +0.012 C 
ATOM     31  C   UNL     1      -1.914   8.576   2.533  0.00  0.00    +0.061 C 
ATOM     32  C   UNL     1      -2.587   9.733   3.477  0.00  0.00    +0.008 C 
ATOM     33  C   UNL     1      -3.330   8.183   1.865  0.00  0.00    +0.180 C 
ATOM     34  O   UNL     1      -4.014   7.404   2.411  0.00  0.00    -0.293 OA
ATOM     35  C   UNL     1      -2.827   7.895   0.355  0.00  0.00    +0.206 C 
ATOM     36  C   UNL     1      -4.386   7.901  -0.382  0.00  0.00    +0.204 C 
ATOM     37  O   UNL     1      -4.915   6.759   0.454  0.00  0.00    -0.216 OA
ATOM     38  C   UNL     1      -3.947   6.843  -1.523  0.00  0.00    -0.015 C 
ATOM     39  C   UNL     1      -5.244   6.644  -2.286  0.00  0.00    +0.029 C 
ATOM     40  C   UNL     1      -2.944   6.955  -2.231  0.00  0.00    -0.025 C 
ATOM     41  C   UNL     1      -1.436   6.486  -1.971  0.00  0.00    +0.079 C 
ATOM     42  C   UNL     1      -1.832   5.162  -1.079  0.00  0.00    +0.012 C 
ATOM     43  C   UNL     1      -1.341   5.676  -3.363  0.00  0.00    +0.158 C 
ATOM     44  O   UNL     1      -2.085   4.782  -3.554  0.00  0.00    -0.296 OA
ATOM     45  O   UNL     1       4.303   7.007  -3.723  0.00  0.00    -0.187 OA
ATOM     46  C   UNL     1       6.418   6.982  -3.126  0.00  0.00    +0.062 C 
ATOM     47  C   UNL     1       6.450   7.359  -4.713  0.00  0.00    +0.006 C 
ATOM     48  C   UNL     1       2.318   4.163  -5.468  0.00  0.00    +0.031 C 
ATOM     49  C   UNL     1       0.009   5.593  -3.998  0.00  0.00    +0.108 C 
ENDROOT
BRANCH  35  50
ATOM     50  O   UNL     1      -2.681   9.374   0.076  0.00  0.00    -0.343 OA
ATOM     51  C   UNL     1      -1.387   9.721   0.393  0.00  0.00    +0.175 C 
ENDBRANCH  35  50
BRANCH   1  52
ATOM     52  C   UNL     1      -1.136   5.874  -6.116  0.00  0.00    +0.041 C 
ATOM     53  C   UNL     1      -2.268   7.003  -5.906  0.00  0.00    +0.004 C 
BRANCH  52  54
ATOM     54  C   UNL     1      -0.695   6.502  -7.550  0.00  0.00    +0.004 C 
BRANCH  54  59
ATOM     55  C   UNL     1       0.148   6.754 -10.320  0.00  0.00    +0.142 C 
ATOM     56  C   UNL     1       0.970   5.403 -11.047  0.00  0.00    +0.142 C 
ATOM     57  C   UNL     1       0.356   4.239 -10.089  0.00  0.00    +0.032 C 
ATOM     58  C   UNL     1       0.430   4.586  -8.680  0.00  0.00    +0.003 C 
ATOM     59  C   UNL     1      -1.078   5.177  -8.439  0.00  0.00    +0.003 C 
ATOM     60  C   UNL     1      -1.175   5.975  -9.819  0.00  0.00    +0.032 C 
BRANCH  55  62
ATOM     61  C   UNL     1       1.678   7.299  -9.257  0.00  0.00    +0.174 C 
ATOM     62  O   UNL     1       1.050   6.731  -9.105  0.00  0.00    -0.351 OA
ENDBRANCH  55  62
BRANCH  56  63
ATOM     63  O   UNL     1      -0.162   5.250 -12.036  0.00  0.00    -0.351 OA
BRANCH  63  64
ATOM     64  C   UNL     1       0.315   4.492 -13.084  0.00  0.00    +0.178 C 
BRANCH  64  65
ATOM     65  C   UNL     1       1.337   5.317 -13.819  0.00  0.00    +0.214 C 
ATOM     66  O   UNL     1       2.328   4.495 -14.324  0.00  0.00    -0.218 OA
ENDBRANCH  64  65
ENDBRANCH  63  64
ENDBRANCH  56  63
ENDBRANCH  54  59
ENDBRANCH  52  54
ENDBRANCH   1  52
BRANCH  20  67
ATOM     67  O   UNL     1       4.838   5.471   0.372  0.00  0.00    -0.349 OA
ATOM     68  C   UNL     1       5.652   4.324   0.334  0.00  0.00    +0.174 C 
ENDBRANCH  20  67
TORSDOF 9
ENDMDL
MODEL 2
REMARK VINA RESULT:      18.3      2.425     11.327
REMARK  Name = 
REMARK  9 active torsions:
REMARK  status: ('A' for Active; 'I' for Inactive)
REMARK    1  A    between atoms: O_2  and  C_3
REMARK    2  A    between atoms: C_5  and  C_6
REMARK    3  A    between atoms: C_6  and  C_7
REMARK    4  A    between atoms: C_7  and  C_9
REMARK    5  A    between atoms: C_20  and  O_21
REMARK    6  A    between atoms: C_37  and  O_38
REMARK    7  A    between atoms: C_64  and  O_65
REMARK    8  A    between atoms: O_65  and  C_66
REMARK    9  A    between atoms: C_66  and  C_67
REMARK                            x       y       z     vdW  Elec       q    Type
REMARK                         _______ _______ _______ _____ _____    ______ ____
ROOT
ATOM      1  C   UNL     1       3.647   7.236  -3.199  0.00  0.00    +0.176 C 
ATOM      2  O   UNL     1       3.004   7.129  -1.830  0.00  0.00    -0.451 OA
ATOM      3  C   UNL     1       1.867   7.603  -1.640  0.00  0.00    +0.335 C 
ATOM      4  O   UNL     1       1.282   8.733  -1.589  0.00  0.00    -0.248 OA
ATOM      5  C   UNL     1       0.901   6.359  -2.053  0.00  0.00    +0.175 C 
ATOM      6  N   UNL     1      -0.005   6.601  -0.790  0.00  0.00    -0.265 N 
ATOM      7  C   UNL     1       0.487   7.161   0.395  0.00  0.00    +0.094 C 
ATOM      8  C   UNL     1       1.679   6.468   0.915  0.00  0.00    +0.022 C 
ATOM      9  C   UNL     1       2.236   5.544  -0.046  0.00  0.00    +0.004 C 
ATOM     10  C   UNL     1      -0.956   5.545  -0.747  0.00  0.00    +0.289 C 
ATOM     11  O   UNL     1      -1.551   5.327   0.358  0.00  0.00    -0.267 OA
ATOM     12  C   UNL     1      -1.820   5.536  -1.946  0.00  0.00    +0.279 C 
ATOM     13  O   UNL     1      -2.838   4.793  -1.965  0.00  0.00    -0.281 OA
ATOM     14  C   UNL     1      -1.689   6.491  -3.032  0.00  0.00    +0.279 C 
ATOM     15  O   UNL     1      -1.986   5.893  -4.133  0.00  0.00    -0.329 OA
ATOM     16  C   UNL     1      -1.761   6.681  -5.404  0.00  0.00    +0.121 C 
ATOM     17  C   UNL     1      -1.621   8.220  -4.819  0.00  0.00    +0.030 C 
ATOM     18  C   UNL     1      -2.674   8.562  -3.940  0.00  0.00    +0.008 C 
ATOM     19  C   UNL     1      -3.368   6.960  -5.605  0.00  0.00    +0.063 C 
ATOM     20  C   UNL     1      -3.961   5.575  -6.266  0.00  0.00    +0.136 C 
ATOM     21  C   UNL     1      -3.403   5.915  -7.761  0.00  0.00    -0.017 C 
ATOM     22  C   UNL     1      -4.597   6.638  -8.337  0.00  0.00    +0.029 C 
ATOM     23  C   UNL     1      -2.251   6.367  -7.892  0.00  0.00    -0.006 C 
ATOM     24  C   UNL     1      -1.036   5.853  -8.461  0.00  0.00    -0.001 C 
ATOM     25  C   UNL     1      -1.252   4.982  -9.448  0.00  0.00    -0.000 C 
ATOM     26  C   UNL     1      -0.996   5.616 -10.754  0.00  0.00    -0.005 C 
ATOM     27  C   UNL     1       0.300   5.752 -10.999  0.00  0.00    -0.026 C 
ATOM     28  C   UNL     1       0.946   4.284 -11.117  0.00  0.00    +0.022 C 
ATOM     29  C   UNL     1       1.666   4.387  -9.654  0.00  0.00    +0.005 C 
ATOM     30  C   UNL     1       2.284   4.762 -11.922  0.00  0.00    +0.012 C 
ATOM     31  C   UNL     1       2.655   6.189 -11.227  0.00  0.00    +0.061 C 
ATOM     32  C   UNL     1       2.912   6.891 -12.683  0.00  0.00    +0.008 C 
ATOM     33  C   UNL     1       4.228   5.907 -10.994  0.00  0.00    +0.180 C 
ATOM     34  O   UNL     1       4.697   4.928 -11.435  0.00  0.00    -0.293 OA
ATOM     35  C   UNL     1       4.304   6.192  -9.405  0.00  0.00    +0.206 C 
ATOM     36  C   UNL     1       6.022   6.293  -9.299  0.00  0.00    +0.204 C 
ATOM     37  O   UNL     1       6.255   4.892  -9.814  0.00  0.00    -0.216 OA
ATOM     38  C   UNL     1       6.051   5.727  -7.786  0.00  0.00    -0.015 C 
ATOM     39  C   UNL     1       7.541   5.671  -7.497  0.00  0.00    +0.029 C 
ATOM     40  C   UNL     1       5.363   6.166  -6.862  0.00  0.00    -0.025 C 
ATOM     41  C   UNL     1       3.876   5.785  -6.407  0.00  0.00    +0.079 C 
ATOM     42  C   UNL     1       3.969   4.207  -6.861  0.00  0.00    +0.012 C 
ATOM     43  C   UNL     1       4.308   5.501  -4.879  0.00  0.00    +0.158 C 
ATOM     44  O   UNL     1       5.098   4.656  -4.658  0.00  0.00    -0.296 OA
ATOM     45  O   UNL     1      -0.877   7.414  -3.086  0.00  0.00    -0.187 OA
ATOM     46  C   UNL     1      -3.064   7.395  -2.872  0.00  0.00    +0.062 C 
ATOM     47  C   UNL     1      -2.541   8.284  -1.607  0.00  0.00    +0.006 C 
ATOM     48  C   UNL     1       1.686   5.143  -1.259  0.00  0.00    +0.031 C 
ATOM     49  C   UNL     1       3.275   5.767  -3.832  0.00  0.00    +0.108 C 
ENDROOT
BRANCH  35  50
ATOM     50  O   UNL     1       4.221   7.686  -9.625  0.00  0.00    -0.343 OA
ATOM     51  C   UNL     1       3.025   8.109  -9.089  0.00  0.00    +0.175 C 
ENDBRANCH  35  50
BRANCH   1  52
ATOM     52  C   UNL     1       5.090   6.630  -2.475  0.00  0.00    +0.041 C 
ATOM     53  C   UNL     1       6.037   7.452  -3.488  0.00  0.00    +0.004 C 
BRANCH  52  54
ATOM     54  C   UNL     1       5.209   7.783  -1.336  0.00  0.00    +0.004 C 
BRANCH  54  59
ATOM     55  C   UNL     1       5.616   9.192   1.174  0.00  0.00    +0.142 C 
ATOM     56  C   UNL     1       5.017   8.450   2.630  0.00  0.00    +0.142 C 
ATOM     57  C   UNL     1       5.042   6.908   2.110  0.00  0.00    +0.032 C 
ATOM     58  C   UNL     1       4.436   6.755   0.800  0.00  0.00    +0.003 C 
ATOM     59  C   UNL     1       5.769   6.794  -0.152  0.00  0.00    +0.003 C 
ATOM     60  C   UNL     1       6.516   7.960   0.644  0.00  0.00    +0.032 C 
BRANCH  55  62
ATOM     61  C   UNL     1       3.938   9.777   0.393  0.00  0.00    +0.174 C 
ATOM     62  O   UNL     1       4.298   8.998   0.457  0.00  0.00    -0.351 OA
ENDBRANCH  55  62
BRANCH  56  63
ATOM     63  O   UNL     1       6.429   8.345   3.155  0.00  0.00    -0.351 OA
BRANCH  63  64
ATOM     64  C   UNL     1       6.735   9.557   3.737  0.00  0.00    +0.178 C 
BRANCH  64  65
ATOM     65  C   UNL     1       8.233   9.696   3.750  0.00  0.00    +0.214 C 
ATOM     66  O   UNL     1       8.821   8.444   3.707  0.00  0.00    -0.218 OA
ENDBRANCH  64  65
ENDBRANCH  63  64
ENDBRANCH  56  63
ENDBRANCH  54  59
ENDBRANCH  52  54
ENDBRANCH   1  52
BRANCH  20  67
ATOM     67  O   UNL     1      -2.787   4.655  -5.942  0.00  0.00    -0.349 OA
ATOM     68  C   UNL     1      -3.498   3.670  -5.231  0.00  0.00    +0.174 C 
ENDBRANCH  20  67
TORSDOF 9
ENDMDL
