MODEL 1
REMARK VINA RESULT:      11.7      0.000      0.000
REMARK  Name = 
REMARK  6 active torsions:
REMARK  status: ('A' for Active; 'I' for Inactive)
REMARK    1  A    between atoms: O_2  and  C_3
REMARK    2  A    between atoms: C_5  and  C_6
REMARK    3  A    between atoms: C_6  and  C_7
REMARK    4  A    between atoms: C_7  and  C_9
REMARK    5  A    between atoms: C_20  and  O_21
REMARK    6  A    between atoms: C_37  and  O_38
REMARK                            x       y       z     vdW  Elec       q    Type
REMARK                         _______ _______ _______ _____ _____    ______ ____
ROOT
ATOM      1  C   UNL     1       4.212   6.144  -3.941  0.00  0.00    +0.176 C 
ATOM      2  O   UNL     1       5.044   7.426  -3.983  0.00  0.00    -0.451 OA
ATOM      3  C   UNL     1       5.791   7.545  -2.876  0.00  0.00    +0.335 C 
ATOM      4  O   UNL     1       6.973   7.930  -2.968  0.00  0.00    -0.248 OA
ATOM      5  C   UNL     1       5.167   7.307  -1.407  0.00  0.00    +0.175 C 
ATOM      6  N   UNL     1       3.993   8.332  -1.551  0.00  0.00    -0.265 N 
ATOM      7  C   UNL     1       2.601   7.914  -1.577  0.00  0.00    +0.094 C 
ATOM      8  C   UNL     1       2.199   6.807  -0.767  0.00  0.00    +0.022 C 
ATOM      9  C   UNL     1       3.291   5.839  -0.654  0.00  0.00    +0.004 C 
ATOM     10  C   UNL     1       4.502   9.536  -1.060  0.00  0.00    +0.289 C 
ATOM     11  O   UNL     1       3.820  10.531  -1.452  0.00  0.00    -0.267 OA
ATOM     12  C   UNL     1       5.317   9.531   0.164  0.00  0.00    +0.279 C 
ATOM     13  O   UNL     1       5.069  10.631   0.793  0.00  0.00    -0.281 OA
ATOM     14  C   UNL     1       5.619   8.396   1.016  0.00  0.00    +0.279 C 
ATOM     15  O   UNL     1       4.429   8.299   1.755  0.00  0.00    -0.329 OA
ATOM     16  C   UNL     1       4.589   7.098   2.668  0.00  0.00    +0.121 C 
ATOM     17  C   UNL     1       5.528   7.917   3.747  0.00  0.00    +0.030 C 
ATOM     18  C   UNL     1       5.763   9.274   3.290  0.00  0.00    +0.008 C 
ATOM     19  C   UNL     1       3.255   7.358   3.601  0.00  0.00    +0.063 C 
ATOM     20  C   UNL     1       2.278   8.282   2.658  0.00  0.00    +0.136 C 
ATOM     21  C   UNL     1       0.873   7.577   3.092  0.00  0.00    -0.017 C 
ATOM     22  C   UNL     1       0.981   6.131   3.492  0.00  0.00    +0.029 C 
ATOM     23  C   UNL     1       0.139   7.735   1.984  0.00  0.00    -0.006 C 
ATOM     24  C   UNL     1      -0.666   8.951   1.796  0.00  0.00    -0.001 C 
ATOM     25  C   UNL     1      -1.621   9.015   2.692  0.00  0.00    -0.000 C 
ATOM     26  C   UNL     1      -2.998   8.802   2.223  0.00  0.00    -0.005 C 
ATOM     27  C   UNL     1      -3.369   8.827   0.963  0.00  0.00    -0.026 C 
ATOM     28  C   UNL     1      -2.688   7.708   0.038  0.00  0.00    +0.022 C 
ATOM     29  C   UNL     1      -3.341   6.488   0.908  0.00  0.00    +0.005 C 
ATOM     30  C   UNL     1      -3.910   7.654  -1.053  0.00  0.00    +0.012 C 
ATOM     31  C   UNL     1      -3.318   6.302  -1.764  0.00  0.00    +0.061 C 
ATOM     32  C   UNL     1      -4.743   5.508  -1.732  0.00  0.00    +0.008 C 
ATOM     33  C   UNL     1      -3.503   6.877  -3.247  0.00  0.00    +0.180 C 
ATOM     34  O   UNL     1      -4.616   7.335  -3.515  0.00  0.00    -0.293 OA
ATOM     35  C   UNL     1      -3.256   5.756  -4.386  0.00  0.00    +0.206 C 
ATOM     36  C   UNL     1      -2.403   6.892  -5.376  0.00  0.00    +0.204 C 
ATOM     37  O   UNL     1      -3.469   6.770  -6.438  0.00  0.00    -0.216 OA
ATOM     38  C   UNL     1      -1.423   5.825  -6.102  0.00  0.00    -0.015 C 
ATOM     39  C   UNL     1      -2.073   4.513  -6.448  0.00  0.00    +0.029 C 
ATOM     40  C   UNL     1      -0.245   5.955  -5.710  0.00  0.00    -0.025 C 
ATOM     41  C   UNL     1       1.142   6.149  -6.453  0.00  0.00    +0.079 C 
ATOM     42  C   UNL     1       1.117   7.770  -6.188  0.00  0.00    +0.012 C 
ATOM     43  C   UNL     1       2.004   5.796  -5.124  0.00  0.00    +0.158 C 
ATOM     44  O   UNL     1       2.019   4.585  -5.135  0.00  0.00    -0.296 OA
ATOM     45  O   UNL     1       6.265   7.320   0.899  0.00  0.00    -0.187 OA
ATOM     46  C   UNL     1       6.687   9.256   1.948  0.00  0.00    +0.062 C 
ATOM     47  C   UNL     1       7.634   8.051   2.520  0.00  0.00    +0.006 C 
ATOM     48  C   UNL     1       4.226   6.023  -1.843  0.00  0.00    +0.031 C 
ATOM     49  C   UNL     1       3.038   6.764  -4.882  0.00  0.00    +0.108 C 
ENDROOT
BRANCH   1  50
ATOM     50  C   UNL     1       4.942   5.380  -5.296  0.00  0.00    +0.041 C 
ATOM     51  C   UNL     1       4.428   3.870  -4.996  0.00  0.00    +0.004 C 
BRANCH  50  52
ATOM     52  C   UNL     1       3.763   5.602  -6.361  0.00  0.00    +0.004 C 
BRANCH  52  58
ATOM     53  C   UNL     1       3.301   4.519  -9.963  0.00  0.00    +0.146 C 
ATOM     54  C   UNL     1       4.534   5.565 -10.588  0.00  0.00    +0.179 C 
ATOM     55  O   UNL     1       5.630   5.027  -9.691  0.00  0.00    -0.221 OA
ATOM     56  C   UNL     1       4.194   6.912  -9.755  0.00  0.00    +0.035 C 
ATOM     57  C   UNL     1       3.588   6.871  -8.520  0.00  0.00    +0.003 C 
ATOM     58  C   UNL     1       4.503   5.713  -7.823  0.00  0.00    +0.003 C 
ATOM     59  C   UNL     1       3.583   4.543  -8.388  0.00  0.00    +0.032 C 
BRANCH  53  61
ATOM     60  C   UNL     1       1.254   5.009 -10.091  0.00  0.00    +0.174 C 
ATOM     61  O   UNL     1       2.207   5.575  -9.930  0.00  0.00    -0.351 OA
ENDBRANCH  53  61
ENDBRANCH  52  58
ENDBRANCH  50  52
ENDBRANCH   1  50
BRANCH  20  62
ATOM     62  O   UNL     1       2.131   9.337   3.750  0.00  0.00    -0.349 OA
ATOM     63  C   UNL     1       2.294  10.560   3.146  0.00  0.00    +0.174 C 
ENDBRANCH  20  62
BRANCH  35  64
ATOM     64  O   UNL     1      -2.002   5.130  -3.855  0.00  0.00    -0.343 OA
ATOM     65  C   UNL     1      -1.417   5.727  -2.852  0.00  0.00    +0.175 C 
ENDBRANCH  35  64
TORSDOF 6
ENDMDL
