MODEL 1
REMARK VINA RESULT:      -6.8      0.000      0.000
REMARK  Name = 
REMARK  1 active torsions:
REMARK  status: ('A' for Active; 'I' for Inactive)
REMARK    1  A    between atoms: C_3  and  N_4
REMARK                            x       y       z     vdW  Elec       q    Type
REMARK                         _______ _______ _______ _____ _____    ______ ____
ROOT
ATOM      1 BR   UNL     1       3.366   5.939 -12.022  0.00  0.00    -0.044 Br
ATOM      2  C   UNL     1       4.888   5.457 -10.961  0.00  0.00    +0.088 A 
ATOM      3  C   UNL     1       6.114   5.505 -11.616  0.00  0.00    +0.108 A 
ATOM      4  C   UNL     1       7.306   5.626 -10.912  0.00  0.00    +0.100 A 
ATOM      5  N   UNL     1       8.487   5.784 -11.550  0.00  0.00    -0.241 NA
ATOM      6  C   UNL     1       8.401   5.938 -12.891  0.00  0.00    +0.119 A 
ATOM      7  C   UNL     1       7.324   5.437 -13.615  0.00  0.00    +0.119 A 
ATOM      8  C   UNL     1       7.248   5.676  -9.546  0.00  0.00    +0.024 A 
ATOM      9  C   UNL     1       6.028   5.629  -8.906  0.00  0.00    +0.039 A 
ATOM     10  N   UNL     1       6.224   5.099 -12.900  0.00  0.00    -0.240 NA
ATOM     11  C   UNL     1       4.817   5.644  -9.587  0.00  0.00    +0.166 A 
ENDROOT
BRANCH  11  12
ATOM     12  N   UNL     1       3.773   6.431  -9.005  0.00  0.00    -0.070 NA
ATOM     13  C   UNL     1       3.149   6.110  -7.934  0.00  0.00    +0.439 C 
ATOM     14  N   UNL     1       3.413   6.596  -6.613  0.00  0.00    -0.060 NA
ATOM     15  C   UNL     1       2.166   6.812  -5.901  0.00  0.00    +0.251 C 
ATOM     16  C   UNL     1       1.078   6.293  -6.802  0.00  0.00    +0.251 C 
ATOM     17  N   UNL     1       1.794   5.705  -7.909  0.00  0.00    -0.060 NA
ENDBRANCH  11  12
TORSDOF 1
ENDMDL
MODEL 2
REMARK VINA RESULT:      -6.6      4.280      9.363
REMARK  Name = 
REMARK  1 active torsions:
REMARK  status: ('A' for Active; 'I' for Inactive)
REMARK    1  A    between atoms: C_3  and  N_4
REMARK                            x       y       z     vdW  Elec       q    Type
REMARK                         _______ _______ _______ _____ _____    ______ ____
ROOT
ATOM      1 BR   UNL     1       1.794   5.565  -3.711  0.00  0.00    -0.044 Br
ATOM      2  C   UNL     1       0.085   5.239  -4.517  0.00  0.00    +0.088 A 
ATOM      3  C   UNL     1      -1.018   5.535  -3.724  0.00  0.00    +0.108 A 
ATOM      4  C   UNL     1      -2.266   5.780  -4.283  0.00  0.00    +0.100 A 
ATOM      5  N   UNL     1      -3.311   6.176  -3.524  0.00  0.00    -0.241 NA
ATOM      6  C   UNL     1      -3.019   6.431  -2.228  0.00  0.00    +0.119 A 
ATOM      7  C   UNL     1      -1.936   5.832  -1.594  0.00  0.00    +0.119 A 
ATOM      8  C   UNL     1      -2.391   5.702  -5.643  0.00  0.00    +0.024 A 
ATOM      9  C   UNL     1      -1.292   5.407  -6.421  0.00  0.00    +0.039 A 
ATOM     10  N   UNL     1      -1.006   5.264  -2.400  0.00  0.00    -0.240 NA
ATOM     11  C   UNL     1      -0.009   5.291  -5.902  0.00  0.00    +0.166 A 
ENDROOT
BRANCH  11  12
ATOM     12  N   UNL     1       1.046   5.851  -6.689  0.00  0.00    -0.070 NA
ATOM     13  C   UNL     1       1.791   5.168  -7.475  0.00  0.00    +0.439 C 
ATOM     14  N   UNL     1       1.638   5.027  -8.892  0.00  0.00    -0.060 NA
ATOM     15  C   UNL     1       2.937   5.036  -9.539  0.00  0.00    +0.251 C 
ATOM     16  C   UNL     1       3.954   5.043  -8.429  0.00  0.00    +0.251 C 
ATOM     17  N   UNL     1       3.161   4.912  -7.230  0.00  0.00    -0.060 NA
ENDBRANCH  11  12
TORSDOF 1
ENDMDL
MODEL 3
REMARK VINA RESULT:      -6.5      4.592      9.310
REMARK  Name = 
REMARK  1 active torsions:
REMARK  status: ('A' for Active; 'I' for Inactive)
REMARK    1  A    between atoms: C_3  and  N_4
REMARK                            x       y       z     vdW  Elec       q    Type
REMARK                         _______ _______ _______ _____ _____    ______ ____
ROOT
ATOM      1 BR   UNL     1      -2.203   5.738  -6.377  0.00  0.00    -0.044 Br
ATOM      2  C   UNL     1      -0.890   5.900  -4.989  0.00  0.00    +0.088 A 
ATOM      3  C   UNL     1      -1.389   5.933  -3.692  0.00  0.00    +0.108 A 
ATOM      4  C   UNL     1      -0.593   5.601  -2.602  0.00  0.00    +0.100 A 
ATOM      5  N   UNL     1      -1.106   5.525  -1.354  0.00  0.00    -0.241 NA
ATOM      6  C   UNL     1      -2.449   5.669  -1.273  0.00  0.00    +0.119 A 
ATOM      7  C   UNL     1      -3.167   6.369  -2.237  0.00  0.00    +0.119 A 
ATOM      8  C   UNL     1       0.711   5.260  -2.834  0.00  0.00    +0.024 A 
ATOM      9  C   UNL     1       1.197   5.231  -4.124  0.00  0.00    +0.039 A 
ATOM     10  N   UNL     1      -2.529   6.601  -3.410  0.00  0.00    -0.240 NA
ATOM     11  C   UNL     1       0.391   5.425  -5.239  0.00  0.00    +0.166 A 
ENDROOT
BRANCH  11  12
ATOM     12  N   UNL     1       0.657   4.585  -6.366  0.00  0.00    -0.070 NA
ATOM     13  C   UNL     1       1.464   4.892  -7.311  0.00  0.00    +0.439 C 
ATOM     14  N   UNL     1       2.824   4.463  -7.447  0.00  0.00    -0.060 NA
ATOM     15  C   UNL     1       3.122   4.183  -8.840  0.00  0.00    +0.251 C 
ATOM     16  C   UNL     1       1.904   4.601  -9.619  0.00  0.00    +0.251 C 
ATOM     17  N   UNL     1       1.048   5.205  -8.627  0.00  0.00    -0.060 NA
ENDBRANCH  11  12
TORSDOF 1
ENDMDL
MODEL 4
REMARK VINA RESULT:      -6.4      1.117      1.122
REMARK  Name = 
REMARK  1 active torsions:
REMARK  status: ('A' for Active; 'I' for Inactive)
REMARK    1  A    between atoms: C_3  and  N_4
REMARK                            x       y       z     vdW  Elec       q    Type
REMARK                         _______ _______ _______ _____ _____    ______ ____
ROOT
ATOM      1 BR   UNL     1       2.632   5.745 -11.132  0.00  0.00    -0.044 Br
ATOM      2  C   UNL     1       4.360   5.306 -10.429  0.00  0.00    +0.088 A 
ATOM      3  C   UNL     1       5.437   5.610 -11.253  0.00  0.00    +0.108 A 
ATOM      4  C   UNL     1       6.718   5.774 -10.738  0.00  0.00    +0.100 A 
ATOM      5  N   UNL     1       7.744   6.178 -11.520  0.00  0.00    -0.241 NA
ATOM      6  C   UNL     1       7.404   6.523 -12.783  0.00  0.00    +0.119 A 
ATOM      7  C   UNL     1       6.271   6.005 -13.401  0.00  0.00    +0.119 A 
ATOM      8  C   UNL     1       6.900   5.606  -9.393  0.00  0.00    +0.024 A 
ATOM      9  C   UNL     1       5.826   5.305  -8.584  0.00  0.00    +0.039 A 
ATOM     10  N   UNL     1       5.356   5.423 -12.588  0.00  0.00    -0.240 NA
ATOM     11  C   UNL     1       4.517   5.269  -9.049  0.00  0.00    +0.166 A 
ENDROOT
BRANCH  11  12
ATOM     12  N   UNL     1       3.521   5.818  -8.181  0.00  0.00    -0.070 NA
ATOM     13  C   UNL     1       2.793   5.116  -7.395  0.00  0.00    +0.439 C 
ATOM     14  N   UNL     1       3.012   4.895  -5.997  0.00  0.00    -0.060 NA
ATOM     15  C   UNL     1       1.746   4.908  -5.285  0.00  0.00    +0.251 C 
ATOM     16  C   UNL     1       0.677   5.006  -6.340  0.00  0.00    +0.251 C 
ATOM     17  N   UNL     1       1.405   4.916  -7.583  0.00  0.00    -0.060 NA
ENDBRANCH  11  12
TORSDOF 1
ENDMDL
MODEL 5
REMARK VINA RESULT:      -6.3      1.935      2.859
REMARK  Name = 
REMARK  1 active torsions:
REMARK  status: ('A' for Active; 'I' for Inactive)
REMARK    1  A    between atoms: C_3  and  N_4
REMARK                            x       y       z     vdW  Elec       q    Type
REMARK                         _______ _______ _______ _____ _____    ______ ____
ROOT
ATOM      1 BR   UNL     1       1.459   5.960 -10.734  0.00  0.00    -0.044 Br
ATOM      2  C   UNL     1       2.793   5.333  -9.508  0.00  0.00    +0.088 A 
ATOM      3  C   UNL     1       4.109   5.457  -9.940  0.00  0.00    +0.108 A 
ATOM      4  C   UNL     1       5.167   5.476  -9.038  0.00  0.00    +0.100 A 
ATOM      5  N   UNL     1       6.435   5.708  -9.447  0.00  0.00    -0.241 NA
ATOM      6  C   UNL     1       6.569   6.036 -10.752  0.00  0.00    +0.119 A 
ATOM      7  C   UNL     1       5.634   5.642 -11.703  0.00  0.00    +0.119 A 
ATOM      8  C   UNL     1       4.884   5.348  -7.707  0.00  0.00    +0.024 A 
ATOM      9  C   UNL     1       3.576   5.226  -7.288  0.00  0.00    +0.039 A 
ATOM     10  N   UNL     1       4.436   5.221 -11.229  0.00  0.00    -0.240 NA
ATOM     11  C   UNL     1       2.493   5.339  -8.152  0.00  0.00    +0.166 A 
ENDROOT
BRANCH  11  12
ATOM     12  N   UNL     1       1.357   6.051  -7.653  0.00  0.00    -0.070 NA
ATOM     13  C   UNL     1       0.430   5.515  -6.953  0.00  0.00    +0.439 C 
ATOM     14  N   UNL     1       0.307   5.550  -5.526  0.00  0.00    -0.060 NA
ATOM     15  C   UNL     1      -1.085   5.710  -5.148  0.00  0.00    +0.251 C 
ATOM     16  C   UNL     1      -1.875   5.629  -6.426  0.00  0.00    +0.251 C 
ATOM     17  N   UNL     1      -0.887   5.304  -7.426  0.00  0.00    -0.060 NA
ENDBRANCH  11  12
TORSDOF 1
ENDMDL
MODEL 6
REMARK VINA RESULT:      -6.3      3.852      6.069
REMARK  Name = 
REMARK  1 active torsions:
REMARK  status: ('A' for Active; 'I' for Inactive)
REMARK    1  A    between atoms: C_3  and  N_4
REMARK                            x       y       z     vdW  Elec       q    Type
REMARK                         _______ _______ _______ _____ _____    ______ ____
ROOT
ATOM      1 BR   UNL     1      -0.703   5.356  -7.154  0.00  0.00    -0.044 Br
ATOM      2  C   UNL     1       0.942   4.936  -6.265  0.00  0.00    +0.088 A 
ATOM      3  C   UNL     1       2.083   4.992  -7.058  0.00  0.00    +0.108 A 
ATOM      4  C   UNL     1       3.345   5.157  -6.499  0.00  0.00    +0.100 A 
ATOM      5  N   UNL     1       4.440   5.323  -7.273  0.00  0.00    -0.241 NA
ATOM      6  C   UNL     1       4.197   5.439  -8.599  0.00  0.00    +0.119 A 
ATOM      7  C   UNL     1       3.058   4.896  -9.181  0.00  0.00    +0.119 A 
ATOM      8  C   UNL     1       3.443   5.243  -5.138  0.00  0.00    +0.024 A 
ATOM      9  C   UNL     1       2.306   5.187  -4.360  0.00  0.00    +0.039 A 
ATOM     10  N   UNL     1       2.055   4.553  -8.335  0.00  0.00    -0.240 NA
ATOM     11  C   UNL     1       1.024   5.158  -4.896  0.00  0.00    +0.166 A 
ENDROOT
BRANCH  11  12
ATOM     12  N   UNL     1       0.036   5.938  -4.218  0.00  0.00    -0.070 NA
ATOM     13  C   UNL     1      -0.875   5.441  -3.468  0.00  0.00    +0.439 C 
ATOM     14  N   UNL     1      -0.850   5.351  -2.038  0.00  0.00    -0.060 NA
ATOM     15  C   UNL     1      -2.169   5.625  -1.498  0.00  0.00    +0.251 C 
ATOM     16  C   UNL     1      -3.086   5.755  -2.684  0.00  0.00    +0.251 C 
ATOM     17  N   UNL     1      -2.248   5.422  -3.810  0.00  0.00    -0.060 NA
ENDBRANCH  11  12
TORSDOF 1
ENDMDL
MODEL 7
REMARK VINA RESULT:      -6.3      3.229      7.815
REMARK  Name = 
REMARK  1 active torsions:
REMARK  status: ('A' for Active; 'I' for Inactive)
REMARK    1  A    between atoms: C_3  and  N_4
REMARK                            x       y       z     vdW  Elec       q    Type
REMARK                         _______ _______ _______ _____ _____    ______ ____
ROOT
ATOM      1 BR   UNL     1       3.454   5.751  -6.305  0.00  0.00    -0.044 Br
ATOM      2  C   UNL     1       1.637   5.260  -6.665  0.00  0.00    +0.088 A 
ATOM      3  C   UNL     1       0.767   5.346  -5.583  0.00  0.00    +0.108 A 
ATOM      4  C   UNL     1      -0.605   5.463  -5.767  0.00  0.00    +0.100 A 
ATOM      5  N   UNL     1      -1.440   5.660  -4.722  0.00  0.00    -0.241 NA
ATOM      6  C   UNL     1      -0.834   5.854  -3.528  0.00  0.00    +0.119 A 
ATOM      7  C   UNL     1       0.440   5.360  -3.268  0.00  0.00    +0.119 A 
ATOM      8  C   UNL     1      -1.089   5.470  -7.046  0.00  0.00    +0.024 A 
ATOM      9  C   UNL     1      -0.219   5.384  -8.112  0.00  0.00    +0.039 A 
ATOM     10  N   UNL     1       1.170   4.982  -4.346  0.00  0.00    -0.240 NA
ATOM     11  C   UNL     1       1.163   5.402  -7.963  0.00  0.00    +0.166 A 
ENDROOT
BRANCH  11  12
ATOM     12  N   UNL     1       1.895   6.154  -8.934  0.00  0.00    -0.070 NA
ATOM     13  C   UNL     1       2.306   5.674 -10.048  0.00  0.00    +0.439 C 
ATOM     14  N   UNL     1       1.669   5.809 -11.324  0.00  0.00    -0.060 NA
ATOM     15  C   UNL     1       2.666   6.005 -12.361  0.00  0.00    +0.251 C 
ATOM     16  C   UNL     1       4.003   5.840 -11.690  0.00  0.00    +0.251 C 
ATOM     17  N   UNL     1       3.669   5.439 -10.344  0.00  0.00    -0.060 NA
ENDBRANCH  11  12
TORSDOF 1
ENDMDL
MODEL 8
REMARK VINA RESULT:      -6.3      2.387      7.144
REMARK  Name = 
REMARK  1 active torsions:
REMARK  status: ('A' for Active; 'I' for Inactive)
REMARK    1  A    between atoms: C_3  and  N_4
REMARK                            x       y       z     vdW  Elec       q    Type
REMARK                         _______ _______ _______ _____ _____    ______ ____
ROOT
ATOM      1 BR   UNL     1       4.095   5.788  -5.828  0.00  0.00    -0.044 Br
ATOM      2  C   UNL     1       2.674   5.242  -6.993  0.00  0.00    +0.088 A 
ATOM      3  C   UNL     1       1.394   5.326  -6.457  0.00  0.00    +0.108 A 
ATOM      4  C   UNL     1       0.272   5.404  -7.273  0.00  0.00    +0.100 A 
ATOM      5  N   UNL     1      -0.962   5.597  -6.756  0.00  0.00    -0.241 NA
ATOM      6  C   UNL     1      -0.998   5.830  -5.424  0.00  0.00    +0.119 A 
ATOM      7  C   UNL     1       0.006   5.375  -4.576  0.00  0.00    +0.119 A 
ATOM      8  C   UNL     1       0.454   5.373  -8.628  0.00  0.00    +0.024 A 
ATOM      9  C   UNL     1       1.728   5.290  -9.151  0.00  0.00    +0.039 A 
ATOM     10  N   UNL     1       1.165   4.996  -5.167  0.00  0.00    -0.240 NA
ATOM     11  C   UNL     1       2.872   5.348  -8.364  0.00  0.00    +0.166 A 
ENDROOT
BRANCH  11  12
ATOM     12  N   UNL     1       3.967   6.101  -8.893  0.00  0.00    -0.070 NA
ATOM     13  C   UNL     1       4.952   5.582  -9.524  0.00  0.00    +0.439 C 
ATOM     14  N   UNL     1       5.115   5.509 -10.945  0.00  0.00    -0.060 NA
ATOM     15  C   UNL     1       6.502   5.743 -11.302  0.00  0.00    +0.251 C 
ATOM     16  C   UNL     1       7.257   5.828 -10.003  0.00  0.00    +0.251 C 
ATOM     17  N   UNL     1       6.266   5.511  -9.003  0.00  0.00    -0.060 NA
ENDBRANCH  11  12
TORSDOF 1
ENDMDL
MODEL 9
REMARK VINA RESULT:      -6.2      3.579      4.562
REMARK  Name = 
REMARK  1 active torsions:
REMARK  status: ('A' for Active; 'I' for Inactive)
REMARK    1  A    between atoms: C_3  and  N_4
REMARK                            x       y       z     vdW  Elec       q    Type
REMARK                         _______ _______ _______ _____ _____    ______ ____
ROOT
ATOM      1 BR   UNL     1       4.274   6.405 -10.217  0.00  0.00    -0.044 Br
ATOM      2  C   UNL     1       2.448   6.470 -10.799  0.00  0.00    +0.088 A 
ATOM      3  C   UNL     1       2.178   5.820 -11.998  0.00  0.00    +0.108 A 
ATOM      4  C   UNL     1       0.894   5.397 -12.318  0.00  0.00    +0.100 A 
ATOM      5  N   UNL     1       0.650   4.668 -13.430  0.00  0.00    -0.241 NA
ATOM      6  C   UNL     1       1.748   4.286 -14.121  0.00  0.00    +0.119 A 
ATOM      7  C   UNL     1       2.939   5.002 -14.053  0.00  0.00    +0.119 A 
ATOM      8  C   UNL     1      -0.112   5.656 -11.429  0.00  0.00    +0.024 A 
ATOM      9  C   UNL     1       0.165   6.301 -10.243  0.00  0.00    +0.039 A 
ATOM     10  N   UNL     1       3.055   5.878 -13.025  0.00  0.00    -0.240 NA
ATOM     11  C   UNL     1       1.457   6.614  -9.837  0.00  0.00    +0.166 A 
ENDROOT
BRANCH  11  12
ATOM     12  N   UNL     1       1.747   6.428  -8.449  0.00  0.00    -0.070 NA
ATOM     13  C   UNL     1       1.458   5.366  -7.796  0.00  0.00    +0.439 C 
ATOM     14  N   UNL     1       2.342   4.279  -7.496  0.00  0.00    -0.060 NA
ATOM     15  C   UNL     1       2.093   3.789  -6.152  0.00  0.00    +0.251 C 
ATOM     16  C   UNL     1       0.886   4.536  -5.653  0.00  0.00    +0.251 C 
ATOM     17  N   UNL     1       0.459   5.308  -6.795  0.00  0.00    -0.060 NA
ENDBRANCH  11  12
TORSDOF 1
ENDMDL
