MODEL 1
REMARK VINA RESULT:      -9.1      0.000      0.000
REMARK  Name = 
REMARK  3 active torsions:
REMARK  status: ('A' for Active; 'I' for Inactive)
REMARK    1  A    between atoms: C_2  and  O_3
REMARK    2  A    between atoms: C_2  and  C_16
REMARK    3  A    between atoms: O_3  and  C_4
REMARK                            x       y       z     vdW  Elec       q    Type
REMARK                         _______ _______ _______ _____ _____    ______ ____
ROOT
ATOM      1  O   UNL     1       3.057   5.500  -8.990  0.00  0.00    -0.449 OA
ENDROOT
BRANCH   1   2
ATOM      2  C   UNL     1       4.094   5.329  -9.911  0.00  0.00    +0.172 C 
ATOM      3  C   UNL     1       4.088   6.661 -10.664  0.00  0.00    +0.060 C 
ATOM      4  C   UNL     1       5.206   6.618 -11.879  0.00  0.00    +0.062 C 
ATOM      5  N   UNL     1       5.980   5.452 -11.195  0.00  0.00    -0.269 NA
ATOM      6  C   UNL     1       5.993   6.351  -9.889  0.00  0.00    +0.062 C 
ATOM      7  C   UNL     1       7.606   6.233  -9.776  0.00  0.00    +0.024 C 
ATOM      8  C   UNL     1       7.590   7.243 -10.969  0.00  0.00    +0.062 C 
ATOM      9  C   UNL     1       7.969   6.309 -12.088  0.00  0.00    +0.166 C 
ATOM     10  O   UNL     1       9.171   6.046 -12.133  0.00  0.00    -0.295 OA
ATOM     11  C   UNL     1       7.108   5.112 -11.783  0.00  0.00    +0.137 C 
ATOM     12  C   UNL     1       6.241   7.787 -11.340  0.00  0.00    +0.024 C 
ATOM     13  C   UNL     1       5.393   5.071  -9.087  0.00  0.00    +0.060 C 
ENDBRANCH   1   2
BRANCH   1  15
ATOM     14  O   UNL     1       2.570   3.495  -8.601  0.00  0.00    -0.245 OA
ATOM     15  C   UNL     1       2.695   4.454  -8.132  0.00  0.00    +0.343 C 
BRANCH  15  16
ATOM     16  C   UNL     1       2.268   4.830  -6.776  0.00  0.00    +0.096 A 
ATOM     17  C   UNL     1       3.060   5.442  -5.843  0.00  0.00    +0.025 A 
ATOM     18  C   UNL     1       2.264   5.654  -4.727  0.00  0.00    +0.082 A 
ATOM     19  C   UNL     1       2.644   6.625  -3.813  0.00  0.00    +0.019 A 
ATOM     20  C   UNL     1       3.844   7.291  -4.025  0.00  0.00    +0.002 A 
ATOM     21  C   UNL     1       4.693   6.932  -5.064  0.00  0.00    +0.000 A 
ATOM     22  N   UNL     1       1.201   4.827  -4.855  0.00  0.00    -0.244 NA
ATOM     23  C   UNL     1       4.405   5.739  -5.716  0.00  0.00    +0.002 A 
ATOM     24  C   UNL     1       1.230   4.247  -6.065  0.00  0.00    +0.105 A 
ENDBRANCH  15  16
ENDBRANCH   1  15
TORSDOF 3
ENDMDL
MODEL 2
REMARK VINA RESULT:      -9.0      1.213      2.254
REMARK  Name = 
REMARK  3 active torsions:
REMARK  status: ('A' for Active; 'I' for Inactive)
REMARK    1  A    between atoms: C_2  and  O_3
REMARK    2  A    between atoms: C_2  and  C_16
REMARK    3  A    between atoms: O_3  and  C_4
REMARK                            x       y       z     vdW  Elec       q    Type
REMARK                         _______ _______ _______ _____ _____    ______ ____
ROOT
ATOM      1  O   UNL     1       3.044   5.452  -8.981  0.00  0.00    -0.449 OA
ENDROOT
BRANCH   1   2
ATOM      2  C   UNL     1       4.074   5.293  -9.913  0.00  0.00    +0.172 C 
ATOM      3  C   UNL     1       4.043   6.623 -10.669  0.00  0.00    +0.060 C 
ATOM      4  C   UNL     1       5.147   6.592 -11.895  0.00  0.00    +0.062 C 
ATOM      5  N   UNL     1       5.944   5.437 -11.218  0.00  0.00    -0.269 NA
ATOM      6  C   UNL     1       5.959   6.339  -9.914  0.00  0.00    +0.062 C 
ATOM      7  C   UNL     1       7.575   6.242  -9.818  0.00  0.00    +0.024 C 
ATOM      8  C   UNL     1       7.533   7.250 -11.013  0.00  0.00    +0.062 C 
ATOM      9  C   UNL     1       7.912   6.318 -12.134  0.00  0.00    +0.166 C 
ATOM     10  O   UNL     1       9.117   6.071 -12.192  0.00  0.00    -0.295 OA
ATOM     11  C   UNL     1       7.070   5.112 -11.818  0.00  0.00    +0.137 C 
ATOM     12  C   UNL     1       6.173   7.775 -11.370  0.00  0.00    +0.024 C 
ATOM     13  C   UNL     1       5.385   5.053  -9.103  0.00  0.00    +0.060 C 
ENDBRANCH   1   2
BRANCH   1  15
ATOM     14  O   UNL     1       2.539   3.435  -8.693  0.00  0.00    -0.245 OA
ATOM     15  C   UNL     1       2.643   4.374  -8.182  0.00  0.00    +0.343 C 
BRANCH  15  16
ATOM     16  C   UNL     1       2.154   4.699  -6.833  0.00  0.00    +0.096 A 
ATOM     17  C   UNL     1       0.928   5.236  -6.550  0.00  0.00    +0.025 A 
ATOM     18  C   UNL     1       0.855   5.344  -5.169  0.00  0.00    +0.082 A 
ATOM     19  C   UNL     1      -0.395   5.433  -4.573  0.00  0.00    +0.019 A 
ATOM     20  C   UNL     1      -1.512   5.479  -5.398  0.00  0.00    +0.002 A 
ATOM     21  C   UNL     1      -1.385   5.536  -6.780  0.00  0.00    +0.000 A 
ATOM     22  N   UNL     1       2.126   5.275  -4.714  0.00  0.00    -0.244 NA
ATOM     23  C   UNL     1      -0.111   5.788  -7.276  0.00  0.00    +0.002 A 
ATOM     24  C   UNL     1       2.948   4.968  -5.729  0.00  0.00    +0.105 A 
ENDBRANCH  15  16
ENDBRANCH   1  15
TORSDOF 3
ENDMDL
MODEL 3
REMARK VINA RESULT:      -8.8      1.909      6.828
REMARK  Name = 
REMARK  3 active torsions:
REMARK  status: ('A' for Active; 'I' for Inactive)
REMARK    1  A    between atoms: C_2  and  O_3
REMARK    2  A    between atoms: C_2  and  C_16
REMARK    3  A    between atoms: O_3  and  C_4
REMARK                            x       y       z     vdW  Elec       q    Type
REMARK                         _______ _______ _______ _____ _____    ______ ____
ROOT
ATOM      1  O   UNL     1       3.306   5.172  -9.735  0.00  0.00    -0.449 OA
ENDROOT
BRANCH   1   2
ATOM      2  C   UNL     1       3.318   5.906  -8.546  0.00  0.00    +0.172 C 
ATOM      3  C   UNL     1       2.001   5.489  -7.887  0.00  0.00    +0.060 C 
ATOM      4  C   UNL     1       1.787   6.337  -6.487  0.00  0.00    +0.062 C 
ATOM      5  N   UNL     1       3.308   6.659  -6.388  0.00  0.00    -0.269 NA
ATOM      6  C   UNL     1       3.553   5.102  -6.559  0.00  0.00    +0.062 C 
ATOM      7  C   UNL     1       4.438   5.052  -5.201  0.00  0.00    +0.024 C 
ATOM      8  C   UNL     1       3.048   5.173  -4.496  0.00  0.00    +0.062 C 
ATOM      9  C   UNL     1       3.121   6.611  -4.054  0.00  0.00    +0.166 C 
ATOM     10  O   UNL     1       3.811   6.790  -3.050  0.00  0.00    -0.295 OA
ATOM     11  C   UNL     1       3.675   7.276  -5.285  0.00  0.00    +0.137 C 
ATOM     12  C   UNL     1       1.853   5.093  -5.402  0.00  0.00    +0.024 C 
ATOM     13  C   UNL     1       4.590   5.468  -7.756  0.00  0.00    +0.060 C 
ENDBRANCH   1   2
BRANCH   1  15
ATOM     14  O   UNL     1       2.466   6.340 -11.264  0.00  0.00    -0.245 OA
ATOM     15  C   UNL     1       3.365   5.828 -10.970  0.00  0.00    +0.343 C 
BRANCH  15  16
ATOM     16  C   UNL     1       4.520   5.519 -11.828  0.00  0.00    +0.096 A 
ATOM     17  C   UNL     1       5.779   6.029 -11.663  0.00  0.00    +0.025 A 
ATOM     18  C   UNL     1       6.568   5.454 -12.649  0.00  0.00    +0.082 A 
ATOM     19  C   UNL     1       7.943   5.429 -12.471  0.00  0.00    +0.019 A 
ATOM     20  C   UNL     1       8.469   6.044 -11.342  0.00  0.00    +0.002 A 
ATOM     21  C   UNL     1       7.658   6.752 -10.464  0.00  0.00    +0.000 A 
ATOM     22  N   UNL     1       5.718   4.977 -13.587  0.00  0.00    -0.244 NA
ATOM     23  C   UNL     1       6.363   7.018 -10.893  0.00  0.00    +0.002 A 
ATOM     24  C   UNL     1       4.457   5.086 -13.143  0.00  0.00    +0.105 A 
ENDBRANCH  15  16
ENDBRANCH   1  15
TORSDOF 3
ENDMDL
MODEL 4
REMARK VINA RESULT:      -8.6      2.039      6.988
REMARK  Name = 
REMARK  3 active torsions:
REMARK  status: ('A' for Active; 'I' for Inactive)
REMARK    1  A    between atoms: C_2  and  O_3
REMARK    2  A    between atoms: C_2  and  C_16
REMARK    3  A    between atoms: O_3  and  C_4
REMARK                            x       y       z     vdW  Elec       q    Type
REMARK                         _______ _______ _______ _____ _____    ______ ____
ROOT
ATOM      1  O   UNL     1       3.265   6.712 -10.339  0.00  0.00    -0.449 OA
ENDROOT
BRANCH   1   2
ATOM      2  C   UNL     1       2.786   5.960  -9.262  0.00  0.00    +0.172 C 
ATOM      3  C   UNL     1       3.927   6.074  -8.248  0.00  0.00    +0.060 C 
ATOM      4  C   UNL     1       3.582   5.158  -6.918  0.00  0.00    +0.062 C 
ATOM      5  N   UNL     1       2.060   5.157  -7.249  0.00  0.00    -0.269 NA
ATOM      6  C   UNL     1       2.175   6.736  -7.345  0.00  0.00    +0.062 C 
ATOM      7  C   UNL     1       0.979   6.927  -6.266  0.00  0.00    +0.024 C 
ATOM      8  C   UNL     1       2.073   6.498  -5.235  0.00  0.00    +0.062 C 
ATOM      9  C   UNL     1       1.606   5.094  -4.952  0.00  0.00    +0.166 C 
ATOM     10  O   UNL     1       0.647   5.033  -4.183  0.00  0.00    -0.295 OA
ATOM     11  C   UNL     1       1.293   4.597  -6.337  0.00  0.00    +0.137 C 
ATOM     12  C   UNL     1       3.462   6.356  -5.787  0.00  0.00    +0.024 C 
ATOM     13  C   UNL     1       1.455   6.630  -8.798  0.00  0.00    +0.060 C 
ENDBRANCH   1   2
BRANCH   1  15
ATOM     14  O   UNL     1       2.227   6.005 -12.021  0.00  0.00    -0.245 OA
ATOM     15  C   UNL     1       3.213   6.193 -11.639  0.00  0.00    +0.343 C 
BRANCH  15  16
ATOM     16  C   UNL     1       4.482   5.717 -12.210  0.00  0.00    +0.096 A 
ATOM     17  C   UNL     1       5.717   6.227 -11.914  0.00  0.00    +0.025 A 
ATOM     18  C   UNL     1       6.636   5.473 -12.630  0.00  0.00    +0.082 A 
ATOM     19  C   UNL     1       7.957   5.458 -12.208  0.00  0.00    +0.019 A 
ATOM     20  C   UNL     1       8.310   6.255 -11.127  0.00  0.00    +0.002 A 
ATOM     21  C   UNL     1       7.394   7.122 -10.543  0.00  0.00    +0.000 A 
ATOM     22  N   UNL     1       5.939   4.850 -13.607  0.00  0.00    -0.244 NA
ATOM     23  C   UNL     1       6.206   7.328 -11.235  0.00  0.00    +0.002 A 
ATOM     24  C   UNL     1       4.627   5.058 -13.420  0.00  0.00    +0.105 A 
ENDBRANCH  15  16
ENDBRANCH   1  15
TORSDOF 3
ENDMDL
MODEL 5
REMARK VINA RESULT:      -8.6      3.714      8.742
REMARK  Name = 
REMARK  3 active torsions:
REMARK  status: ('A' for Active; 'I' for Inactive)
REMARK    1  A    between atoms: C_2  and  O_3
REMARK    2  A    between atoms: C_2  and  C_16
REMARK    3  A    between atoms: O_3  and  C_4
REMARK                            x       y       z     vdW  Elec       q    Type
REMARK                         _______ _______ _______ _____ _____    ______ ____
ROOT
ATOM      1  O   UNL     1       1.448   5.376  -6.094  0.00  0.00    -0.449 OA
ENDROOT
BRANCH   1   2
ATOM      2  C   UNL     1       0.271   5.185  -5.365  0.00  0.00    +0.172 C 
ATOM      3  C   UNL     1       0.697   5.564  -3.946  0.00  0.00    +0.060 C 
ATOM      4  C   UNL     1      -0.556   5.311  -2.902  0.00  0.00    +0.062 C 
ATOM      5  N   UNL     1      -1.597   5.354  -4.060  0.00  0.00    -0.269 NA
ATOM      6  C   UNL     1      -0.937   6.735  -4.476  0.00  0.00    +0.062 C 
ATOM      7  C   UNL     1      -2.374   7.484  -4.420  0.00  0.00    +0.024 C 
ATOM      8  C   UNL     1      -2.172   7.383  -2.873  0.00  0.00    +0.062 C 
ATOM      9  C   UNL     1      -3.151   6.278  -2.570  0.00  0.00    +0.166 C 
ATOM     10  O   UNL     1      -4.325   6.646  -2.542  0.00  0.00    -0.295 OA
ATOM     11  C   UNL     1      -2.856   5.304  -3.679  0.00  0.00    +0.137 C 
ATOM     12  C   UNL     1      -0.835   6.868  -2.427  0.00  0.00    +0.024 C 
ATOM     13  C   UNL     1      -0.802   6.136  -5.981  0.00  0.00    +0.060 C 
ENDBRANCH   1   2
BRANCH   1  15
ATOM     14  O   UNL     1       2.101   3.408  -6.423  0.00  0.00    -0.245 OA
ATOM     15  C   UNL     1       1.946   4.353  -6.911  0.00  0.00    +0.343 C 
BRANCH  15  16
ATOM     16  C   UNL     1       2.448   4.751  -8.235  0.00  0.00    +0.096 A 
ATOM     17  C   UNL     1       1.666   5.134  -9.290  0.00  0.00    +0.025 A 
ATOM     18  C   UNL     1       2.531   5.462 -10.323  0.00  0.00    +0.082 A 
ATOM     19  C   UNL     1       2.071   6.286 -11.341  0.00  0.00    +0.019 A 
ATOM     20  C   UNL     1       0.742   6.686 -11.309  0.00  0.00    +0.002 A 
ATOM     21  C   UNL     1      -0.135   6.199 -10.348  0.00  0.00    +0.000 A 
ATOM     22  N   UNL     1       3.719   4.892 -10.021  0.00  0.00    -0.244 NA
ATOM     23  C   UNL     1       0.315   5.127  -9.585  0.00  0.00    +0.002 A 
ATOM     24  C   UNL     1       3.664   4.375  -8.784  0.00  0.00    +0.105 A 
ENDBRANCH  15  16
ENDBRANCH   1  15
TORSDOF 3
ENDMDL
MODEL 6
REMARK VINA RESULT:      -8.5      3.918      8.799
REMARK  Name = 
REMARK  3 active torsions:
REMARK  status: ('A' for Active; 'I' for Inactive)
REMARK    1  A    between atoms: C_2  and  O_3
REMARK    2  A    between atoms: C_2  and  C_16
REMARK    3  A    between atoms: O_3  and  C_4
REMARK                            x       y       z     vdW  Elec       q    Type
REMARK                         _______ _______ _______ _____ _____    ______ ____
ROOT
ATOM      1  O   UNL     1       1.353   6.349  -6.903  0.00  0.00    -0.449 OA
ENDROOT
BRANCH   1   2
ATOM      2  C   UNL     1       0.350   6.835  -6.060  0.00  0.00    +0.172 C 
ATOM      3  C   UNL     1      -0.882   6.061  -6.532  0.00  0.00    +0.060 C 
ATOM      4  C   UNL     1      -2.214   6.573  -5.702  0.00  0.00    +0.062 C 
ATOM      5  N   UNL     1      -1.337   7.153  -4.552  0.00  0.00    -0.269 NA
ATOM      6  C   UNL     1      -0.638   5.731  -4.494  0.00  0.00    +0.062 C 
ATOM      7  C   UNL     1      -0.957   5.594  -2.910  0.00  0.00    +0.024 C 
ATOM      8  C   UNL     1      -2.414   5.316  -3.404  0.00  0.00    +0.062 C 
ATOM      9  C   UNL     1      -3.052   6.632  -3.043  0.00  0.00    +0.166 C 
ATOM     10  O   UNL     1      -3.321   6.746  -1.847  0.00  0.00    -0.295 OA
ATOM     11  C   UNL     1      -2.010   7.609  -3.516  0.00  0.00    +0.137 C 
ATOM     12  C   UNL     1      -2.580   5.183  -4.890  0.00  0.00    +0.024 C 
ATOM     13  C   UNL     1       0.787   6.504  -4.599  0.00  0.00    +0.060 C 
ENDBRANCH   1   2
BRANCH   1  15
ATOM     14  O   UNL     1       2.028   8.244  -7.504  0.00  0.00    -0.245 OA
ATOM     15  C   UNL     1       2.003   7.210  -7.797  0.00  0.00    +0.343 C 
BRANCH  15  16
ATOM     16  C   UNL     1       2.320   6.665  -9.125  0.00  0.00    +0.096 A 
ATOM     17  C   UNL     1       1.433   6.552 -10.161  0.00  0.00    +0.025 A 
ATOM     18  C   UNL     1       2.144   6.033 -11.234  0.00  0.00    +0.082 A 
ATOM     19  C   UNL     1       1.645   6.218 -12.515  0.00  0.00    +0.019 A 
ATOM     20  C   UNL     1       0.418   6.855 -12.655  0.00  0.00    +0.002 A 
ATOM     21  C   UNL     1      -0.340   7.210 -11.546  0.00  0.00    +0.000 A 
ATOM     22  N   UNL     1       3.265   5.481 -10.717  0.00  0.00    -0.244 NA
ATOM     23  C   UNL     1       0.067   6.687 -10.324  0.00  0.00    +0.002 A 
ATOM     24  C   UNL     1       3.349   5.781  -9.411  0.00  0.00    +0.105 A 
ENDBRANCH  15  16
ENDBRANCH   1  15
TORSDOF 3
ENDMDL
MODEL 7
REMARK VINA RESULT:      -8.4      3.608      8.560
REMARK  Name = 
REMARK  3 active torsions:
REMARK  status: ('A' for Active; 'I' for Inactive)
REMARK    1  A    between atoms: C_2  and  O_3
REMARK    2  A    between atoms: C_2  and  C_16
REMARK    3  A    between atoms: O_3  and  C_4
REMARK                            x       y       z     vdW  Elec       q    Type
REMARK                         _______ _______ _______ _____ _____    ______ ____
ROOT
ATOM      1  O   UNL     1       1.474   5.324  -5.883  0.00  0.00    -0.449 OA
ENDROOT
BRANCH   1   2
ATOM      2  C   UNL     1       0.273   5.154  -5.188  0.00  0.00    +0.172 C 
ATOM      3  C   UNL     1       0.666   5.526  -3.757  0.00  0.00    +0.060 C 
ATOM      4  C   UNL     1      -0.620   5.296  -2.748  0.00  0.00    +0.062 C 
ATOM      5  N   UNL     1      -1.627   5.357  -3.935  0.00  0.00    -0.269 NA
ATOM      6  C   UNL     1      -0.932   6.725  -4.333  0.00  0.00    +0.062 C 
ATOM      7  C   UNL     1      -2.356   7.500  -4.317  0.00  0.00    +0.024 C 
ATOM      8  C   UNL     1      -2.200   7.396  -2.765  0.00  0.00    +0.062 C 
ATOM      9  C   UNL     1      -3.205   6.309  -2.489  0.00  0.00    +0.166 C 
ATOM     10  O   UNL     1      -4.374   6.697  -2.494  0.00  0.00    -0.295 OA
ATOM     11  C   UNL     1      -2.898   5.329  -3.589  0.00  0.00    +0.137 C 
ATOM     12  C   UNL     1      -0.884   6.858  -2.281  0.00  0.00    +0.024 C 
ATOM     13  C   UNL     1      -0.765   6.124  -5.834  0.00  0.00    +0.060 C 
ENDBRANCH   1   2
BRANCH   1  15
ATOM     14  O   UNL     1       2.149   3.405  -6.402  0.00  0.00    -0.245 OA
ATOM     15  C   UNL     1       1.891   4.364  -6.814  0.00  0.00    +0.343 C 
BRANCH  15  16
ATOM     16  C   UNL     1       2.189   4.846  -8.171  0.00  0.00    +0.096 A 
ATOM     17  C   UNL     1       3.404   5.319  -8.588  0.00  0.00    +0.025 A 
ATOM     18  C   UNL     1       3.266   5.627  -9.934  0.00  0.00    +0.082 A 
ATOM     19  C   UNL     1       4.406   5.702 -10.720  0.00  0.00    +0.019 A 
ATOM     20  C   UNL     1       5.639   5.534 -10.103  0.00  0.00    +0.002 A 
ATOM     21  C   UNL     1       5.742   5.395  -8.725  0.00  0.00    +0.000 A 
ATOM     22  N   UNL     1       1.938   5.728 -10.167  0.00  0.00    -0.244 NA
ATOM     23  C   UNL     1       4.598   5.672  -7.986  0.00  0.00    +0.002 A 
ATOM     24  C   UNL     1       1.262   5.340  -9.075  0.00  0.00    +0.105 A 
ENDBRANCH  15  16
ENDBRANCH   1  15
TORSDOF 3
ENDMDL
MODEL 8
REMARK VINA RESULT:      -8.4      2.098      6.896
REMARK  Name = 
REMARK  3 active torsions:
REMARK  status: ('A' for Active; 'I' for Inactive)
REMARK    1  A    between atoms: C_2  and  O_3
REMARK    2  A    between atoms: C_2  and  C_16
REMARK    3  A    between atoms: O_3  and  C_4
REMARK                            x       y       z     vdW  Elec       q    Type
REMARK                         _______ _______ _______ _____ _____    ______ ____
ROOT
ATOM      1  O   UNL     1       2.716   5.384  -7.709  0.00  0.00    -0.449 OA
ENDROOT
BRANCH   1   2
ATOM      2  C   UNL     1       3.254   5.171  -6.437  0.00  0.00    +0.172 C 
ATOM      3  C   UNL     1       3.961   6.498  -6.152  0.00  0.00    +0.060 C 
ATOM      4  C   UNL     1       4.750   6.408  -4.704  0.00  0.00    +0.062 C 
ATOM      5  N   UNL     1       3.860   5.220  -4.234  0.00  0.00    -0.269 NA
ATOM      6  C   UNL     1       2.614   6.126  -4.612  0.00  0.00    +0.062 C 
ATOM      7  C   UNL     1       1.987   5.953  -3.127  0.00  0.00    +0.024 C 
ATOM      8  C   UNL     1       3.115   6.955  -2.721  0.00  0.00    +0.062 C 
ATOM      9  C   UNL     1       4.057   6.001  -2.034  0.00  0.00    +0.166 C 
ATOM     10  O   UNL     1       3.713   5.696  -0.892  0.00  0.00    -0.295 OA
ATOM     11  C   UNL     1       4.054   4.838  -2.989  0.00  0.00    +0.137 C 
ATOM     12  C   UNL     1       3.899   7.543  -3.859  0.00  0.00    +0.024 C 
ATOM     13  C   UNL     1       2.056   4.872  -5.483  0.00  0.00    +0.060 C 
ENDBRANCH   1   2
BRANCH   1  15
ATOM     14  O   UNL     1       3.012   3.503  -8.594  0.00  0.00    -0.245 OA
ATOM     15  C   UNL     1       3.087   4.559  -8.778  0.00  0.00    +0.343 C 
BRANCH  15  16
ATOM     16  C   UNL     1       3.782   5.207  -9.902  0.00  0.00    +0.096 A 
ATOM     17  C   UNL     1       5.094   5.594  -9.895  0.00  0.00    +0.025 A 
ATOM     18  C   UNL     1       5.356   6.119 -11.152  0.00  0.00    +0.082 A 
ATOM     19  C   UNL     1       6.672   6.182 -11.587  0.00  0.00    +0.019 A 
ATOM     20  C   UNL     1       7.672   5.779 -10.710  0.00  0.00    +0.002 A 
ATOM     21  C   UNL     1       7.379   5.417  -9.401  0.00  0.00    +0.000 A 
ATOM     22  N   UNL     1       4.155   6.409 -11.702  0.00  0.00    -0.244 NA
ATOM     23  C   UNL     1       6.097   5.708  -8.950  0.00  0.00    +0.002 A 
ATOM     24  C   UNL     1       3.178   5.938 -10.912  0.00  0.00    +0.105 A 
ENDBRANCH  15  16
ENDBRANCH   1  15
TORSDOF 3
ENDMDL
MODEL 9
REMARK VINA RESULT:      -8.3      3.671      8.456
REMARK  Name = 
REMARK  3 active torsions:
REMARK  status: ('A' for Active; 'I' for Inactive)
REMARK    1  A    between atoms: C_2  and  O_3
REMARK    2  A    between atoms: C_2  and  C_16
REMARK    3  A    between atoms: O_3  and  C_4
REMARK                            x       y       z     vdW  Elec       q    Type
REMARK                         _______ _______ _______ _____ _____    ______ ____
ROOT
ATOM      1  O   UNL     1       0.943   6.455  -6.954  0.00  0.00    -0.449 OA
ENDROOT
BRANCH   1   2
ATOM      2  C   UNL     1       0.070   6.941  -5.976  0.00  0.00    +0.172 C 
ATOM      3  C   UNL     1      -1.223   6.183  -6.284  0.00  0.00    +0.060 C 
ATOM      4  C   UNL     1      -2.423   6.697  -5.273  0.00  0.00    +0.062 C 
ATOM      5  N   UNL     1      -1.392   7.254  -4.248  0.00  0.00    -0.269 NA
ATOM      6  C   UNL     1      -0.706   5.825  -4.302  0.00  0.00    +0.062 C 
ATOM      7  C   UNL     1      -0.808   5.673  -2.690  0.00  0.00    +0.024 C 
ATOM      8  C   UNL     1      -2.321   5.413  -2.983  0.00  0.00    +0.062 C 
ATOM      9  C   UNL     1      -2.889   6.731  -2.524  0.00  0.00    +0.166 C 
ATOM     10  O   UNL     1      -2.991   6.832  -1.302  0.00  0.00    -0.295 OA
ATOM     11  C   UNL     1      -1.911   7.704  -3.125  0.00  0.00    +0.137 C 
ATOM     12  C   UNL     1      -2.690   5.300  -4.434  0.00  0.00    +0.024 C 
ATOM     13  C   UNL     1       0.699   6.587  -4.592  0.00  0.00    +0.060 C 
ENDBRANCH   1   2
BRANCH   1  15
ATOM     14  O   UNL     1       1.886   8.205  -7.630  0.00  0.00    -0.245 OA
ATOM     15  C   UNL     1       2.076   7.194  -7.317  0.00  0.00    +0.343 C 
BRANCH  15  16
ATOM     16  C   UNL     1       3.327   6.441  -7.493  0.00  0.00    +0.096 A 
ATOM     17  C   UNL     1       4.001   6.302  -8.676  0.00  0.00    +0.025 A 
ATOM     18  C   UNL     1       5.139   5.560  -8.395  0.00  0.00    +0.082 A 
ATOM     19  C   UNL     1       6.213   5.632  -9.270  0.00  0.00    +0.019 A 
ATOM     20  C   UNL     1       6.069   6.392 -10.424  0.00  0.00    +0.002 A 
ATOM     21  C   UNL     1       4.855   6.984 -10.749  0.00  0.00    +0.000 A 
ATOM     22  N   UNL     1       4.912   4.947  -7.212  0.00  0.00    -0.244 NA
ATOM     23  C   UNL     1       3.751   6.583 -10.006  0.00  0.00    +0.002 A 
ATOM     24  C   UNL     1       3.767   5.405  -6.684  0.00  0.00    +0.105 A 
ENDBRANCH  15  16
ENDBRANCH   1  15
TORSDOF 3
ENDMDL
