MODEL 1
REMARK VINA RESULT:      -5.7      0.000      0.000
REMARK  Name = 
REMARK  7 active torsions:
REMARK  status: ('A' for Active; 'I' for Inactive)
REMARK    1  A    between atoms: C_2  and  C_5
REMARK    2  A    between atoms: C_35  and  C_36
REMARK    3  A    between atoms: N_38  and  C_39
REMARK    4  A    between atoms: C_39  and  C_40
REMARK    5  A    between atoms: N_42  and  S_43
REMARK    6  A    between atoms: S_43  and  C_46
REMARK    7  A    between atoms: C_51  and  C_52
REMARK                            x       y       z     vdW  Elec       q    Type
REMARK                         _______ _______ _______ _____ _____    ______ ____
ROOT
ATOM      1  C   UNL     1      -0.009   6.230  -2.021  0.00  0.00    +0.174 C 
ATOM      2  C   UNL     1       1.381   5.488  -1.673  0.00  0.00    +0.246 C 
ATOM      3  O   UNL     1       1.410   4.569  -0.881  0.00  0.00    -0.273 OA
ATOM      4  N   UNL     1       2.377   5.834  -2.628  0.00  0.00    -0.268 N 
ATOM      5  C   UNL     1       2.016   5.487  -4.005  0.00  0.00    +0.137 C 
ATOM      6  C   UNL     1       3.004   6.510  -4.834  0.00  0.00    +0.189 C 
ATOM      7  C   UNL     1       4.258   6.352  -3.791  0.00  0.00    +0.075 C 
ATOM      8  O   UNL     1       3.534   5.377  -5.735  0.00  0.00    -0.461 OA
ATOM      9  C   UNL     1       3.804   5.930  -7.003  0.00  0.00    +0.244 A 
ATOM     10  C   UNL     1       3.107   7.059  -7.420  0.00  0.00    +0.176 A 
ATOM     11  N   UNL     1       3.619   7.539  -8.593  0.00  0.00    -0.238 NA
ATOM     12  C   UNL     1       4.427   6.892  -9.409  0.00  0.00    +0.099 A 
ATOM     13  C   UNL     1       4.847   5.647  -9.054  0.00  0.00    +0.102 A 
ATOM     14  C   UNL     1       5.142   4.738 -10.074  0.00  0.00    +0.021 A 
ATOM     15  C   UNL     1       5.086   5.152 -11.401  0.00  0.00    +0.002 A 
ATOM     16  C   UNL     1       5.287   6.514 -11.595  0.00  0.00    +0.002 A 
ATOM     17  C   UNL     1       4.909   7.415 -10.606  0.00  0.00    +0.021 A 
ATOM     18  C   UNL     1       1.812   7.305  -6.973  0.00  0.00    +0.321 C 
ATOM     19  F   UNL     1       1.659   8.587  -7.625  0.00  0.00    -0.193 F 
ATOM     20  F   UNL     1       1.000   7.755  -6.149  0.00  0.00    -0.193 F 
ATOM     21  C   UNL     1       0.935   6.364  -7.783  0.00  0.00    +0.043 C 
ATOM     22  C   UNL     1       0.387   5.276  -7.391  0.00  0.00    +0.007 C 
ATOM     23  C   UNL     1      -0.961   4.946  -6.927  0.00  0.00    +0.168 C 
ATOM     24  O   UNL     1      -1.030   4.723  -5.559  0.00  0.00    -0.348 OA
ATOM     25  C   UNL     1      -2.419   5.103  -5.119  0.00  0.00    +0.156 C 
ATOM     26  C   UNL     1      -1.826   5.917  -3.733  0.00  0.00    +0.197 C 
ATOM     27  C   UNL     1      -3.147   6.880  -3.729  0.00  0.00    +0.046 C 
ATOM     28  C   UNL     1      -3.162   7.417  -5.101  0.00  0.00    +0.006 C 
ATOM     29  O   UNL     1      -2.491   4.918  -2.786  0.00  0.00    -0.435 OA
ATOM     30  C   UNL     1      -2.288   5.292  -1.450  0.00  0.00    +0.421 C 
ATOM     31  O   UNL     1      -3.084   4.975  -0.517  0.00  0.00    -0.225 OA
ATOM     32  C   UNL     1      -2.382   6.508  -5.958  0.00  0.00    +0.033 C 
ATOM     33  N   UNL     1       4.709   5.282  -7.778  0.00  0.00    -0.209 NA
ATOM     34  C   UNL     1       3.721   5.075  -2.918  0.00  0.00    +0.157 C 
ATOM     35  N   UNL     1      -0.910   5.352  -1.069  0.00  0.00    -0.161 NA
ENDROOT
BRANCH   1  37
ATOM     36  C   UNL     1       1.037   8.105  -1.204  0.00  0.00    +0.002 C 
ATOM     37  C   UNL     1       0.212   7.375  -0.857  0.00  0.00    +0.027 C 
ATOM     38  C   UNL     1       0.418   6.639   0.428  0.00  0.00    +0.002 C 
ATOM     39  C   UNL     1      -1.115   8.084  -0.715  0.00  0.00    +0.002 C 
ENDBRANCH   1  37
BRANCH  34  40
ATOM     40  C   UNL     1       4.436   5.588  -1.559  0.00  0.00    +0.260 C 
ATOM     41  N   UNL     1       3.814   6.789  -1.055  0.00  0.00    -0.198 NA
ATOM     42  O   UNL     1       4.383   4.715  -0.627  0.00  0.00    -0.272 OA
BRANCH  41  43
ATOM     43  C   UNL     1       4.334   7.429   0.121  0.00  0.00    +0.155 C 
ATOM     44  C   UNL     1       5.293   6.413   0.993  0.00  0.00    +0.096 C 
ATOM     45  C   UNL     1       5.973   7.482  -0.076  0.00  0.00    +0.037 C 
BRANCH  43  46
ATOM     46  C   UNL     1       3.914   8.665   0.627  0.00  0.00    +0.280 C 
ATOM     47  N   UNL     1       4.585   9.915   0.428  0.00  0.00    -0.062 NA
ATOM     48  O   UNL     1       2.846   8.746   1.322  0.00  0.00    -0.270 OA
BRANCH  47  49
ATOM     49  S   UNL     1       3.882  11.417   0.864  0.00  0.00    +0.072 S 
ATOM     50  O   UNL     1       2.503  11.493   0.260  0.00  0.00    -0.153 OA
ATOM     51  O   UNL     1       3.758  11.449   2.364  0.00  0.00    -0.153 OA
BRANCH  49  52
ATOM     52  C   UNL     1       4.823  12.775   0.241  0.00  0.00    +0.131 C 
ATOM     53  C   UNL     1       4.992  13.991   1.193  0.00  0.00    +0.026 C 
ATOM     54  C   UNL     1       6.163  13.081   0.770  0.00  0.00    +0.026 C 
ATOM     55  C   UNL     1       4.438  13.227  -1.161  0.00  0.00    +0.026 C 
ENDBRANCH  49  52
ENDBRANCH  47  49
ENDBRANCH  43  46
BRANCH  44  56
ATOM     56  C   UNL     1       5.481   7.397   2.330  0.00  0.00    +0.321 C 
ATOM     57  F   UNL     1       4.423   6.903   3.086  0.00  0.00    -0.198 F 
ATOM     58  F   UNL     1       6.630   6.863   2.856  0.00  0.00    -0.198 F 
ENDBRANCH  44  56
ENDBRANCH  41  43
ENDBRANCH  34  40
TORSDOF 7
ENDMDL
MODEL 2
REMARK VINA RESULT:      -5.4      1.437      1.932
REMARK  Name = 
REMARK  7 active torsions:
REMARK  status: ('A' for Active; 'I' for Inactive)
REMARK    1  A    between atoms: C_2  and  C_5
REMARK    2  A    between atoms: C_35  and  C_36
REMARK    3  A    between atoms: N_38  and  C_39
REMARK    4  A    between atoms: C_39  and  C_40
REMARK    5  A    between atoms: N_42  and  S_43
REMARK    6  A    between atoms: S_43  and  C_46
REMARK    7  A    between atoms: C_51  and  C_52
REMARK                            x       y       z     vdW  Elec       q    Type
REMARK                         _______ _______ _______ _____ _____    ______ ____
ROOT
ATOM      1  C   UNL     1      -0.062   6.224  -2.145  0.00  0.00    +0.174 C 
ATOM      2  C   UNL     1       1.318   5.471  -1.782  0.00  0.00    +0.246 C 
ATOM      3  O   UNL     1       1.330   4.548  -0.994  0.00  0.00    -0.273 OA
ATOM      4  N   UNL     1       2.329   5.814  -2.722  0.00  0.00    -0.268 N 
ATOM      5  C   UNL     1       1.983   5.475  -4.105  0.00  0.00    +0.137 C 
ATOM      6  C   UNL     1       2.989   6.495  -4.917  0.00  0.00    +0.189 C 
ATOM      7  C   UNL     1       4.228   6.324  -3.858  0.00  0.00    +0.075 C 
ATOM      8  O   UNL     1       3.523   5.362  -5.817  0.00  0.00    -0.461 OA
ATOM      9  C   UNL     1       3.814   5.918  -7.078  0.00  0.00    +0.244 A 
ATOM     10  C   UNL     1       3.130   7.054  -7.499  0.00  0.00    +0.176 A 
ATOM     11  N   UNL     1       3.660   7.536  -8.663  0.00  0.00    -0.238 NA
ATOM     12  C   UNL     1       4.474   6.886  -9.471  0.00  0.00    +0.099 A 
ATOM     13  C   UNL     1       4.881   5.637  -9.116  0.00  0.00    +0.102 A 
ATOM     14  C   UNL     1       5.183   4.730 -10.136  0.00  0.00    +0.021 A 
ATOM     15  C   UNL     1       5.147   5.150 -11.462  0.00  0.00    +0.002 A 
ATOM     16  C   UNL     1       5.360   6.511 -11.648  0.00  0.00    +0.002 A 
ATOM     17  C   UNL     1       4.976   7.411 -10.660  0.00  0.00    +0.021 A 
ATOM     18  C   UNL     1       1.831   7.307  -7.068  0.00  0.00    +0.321 C 
ATOM     19  F   UNL     1       1.695   8.593  -7.716  0.00  0.00    -0.193 F 
ATOM     20  F   UNL     1       1.011   7.759  -6.253  0.00  0.00    -0.193 F 
ATOM     21  C   UNL     1       0.957   6.376  -7.894  0.00  0.00    +0.043 C 
ATOM     22  C   UNL     1       0.397   5.290  -7.514  0.00  0.00    +0.007 C 
ATOM     23  C   UNL     1      -0.959   4.968  -7.069  0.00  0.00    +0.168 C 
ATOM     24  O   UNL     1      -1.047   4.740  -5.702  0.00  0.00    -0.348 OA
ATOM     25  C   UNL     1      -2.440   5.127  -5.279  0.00  0.00    +0.156 C 
ATOM     26  C   UNL     1      -1.859   5.931  -3.882  0.00  0.00    +0.197 C 
ATOM     27  C   UNL     1      -3.173   6.903  -3.891  0.00  0.00    +0.046 C 
ATOM     28  C   UNL     1      -3.167   7.447  -5.261  0.00  0.00    +0.006 C 
ATOM     29  O   UNL     1      -2.543   4.933  -2.948  0.00  0.00    -0.435 OA
ATOM     30  C   UNL     1      -2.356   5.299  -1.608  0.00  0.00    +0.421 C 
ATOM     31  O   UNL     1      -3.166   4.984  -0.687  0.00  0.00    -0.225 OA
ATOM     32  C   UNL     1      -2.382   6.535  -6.111  0.00  0.00    +0.033 C 
ATOM     33  N   UNL     1       4.724   5.267  -7.844  0.00  0.00    -0.209 NA
ATOM     34  C   UNL     1       3.670   5.047  -2.998  0.00  0.00    +0.157 C 
ATOM     35  N   UNL     1      -0.982   5.348  -1.209  0.00  0.00    -0.161 NA
ENDROOT
BRANCH   1  37
ATOM     36  C   UNL     1       0.909   8.148  -1.350  0.00  0.00    +0.002 C 
ATOM     37  C   UNL     1       0.152   7.362  -0.974  0.00  0.00    +0.027 C 
ATOM     38  C   UNL     1       0.474   6.621   0.285  0.00  0.00    +0.002 C 
ATOM     39  C   UNL     1      -1.208   7.984  -0.745  0.00  0.00    +0.002 C 
ENDBRANCH   1  37
BRANCH  34  40
ATOM     40  C   UNL     1       4.371   5.549  -1.627  0.00  0.00    +0.260 C 
ATOM     41  N   UNL     1       3.770   6.768  -1.142  0.00  0.00    -0.198 NA
ATOM     42  O   UNL     1       4.277   4.682  -0.693  0.00  0.00    -0.272 OA
BRANCH  41  43
ATOM     43  C   UNL     1       4.284   7.401   0.041  0.00  0.00    +0.155 C 
ATOM     44  C   UNL     1       5.293   6.403   0.876  0.00  0.00    +0.096 C 
ATOM     45  C   UNL     1       5.916   7.520  -0.178  0.00  0.00    +0.037 C 
BRANCH  43  46
ATOM     46  C   UNL     1       3.825   8.609   0.581  0.00  0.00    +0.280 C 
ATOM     47  N   UNL     1       2.662   8.761   1.402  0.00  0.00    -0.062 NA
ATOM     48  O   UNL     1       4.462   9.693   0.364  0.00  0.00    -0.270 OA
BRANCH  47  49
ATOM     49  S   UNL     1       2.302  10.219   2.229  0.00  0.00    +0.072 S 
ATOM     50  O   UNL     1       3.292  10.387   3.354  0.00  0.00    -0.153 OA
ATOM     51  O   UNL     1       2.476  11.355   1.256  0.00  0.00    -0.153 OA
BRANCH  49  52
ATOM     52  C   UNL     1       0.683  10.181   2.932  0.00  0.00    +0.131 C 
ATOM     53  C   UNL     1      -0.474   9.775   1.977  0.00  0.00    +0.026 C 
ATOM     54  C   UNL     1      -0.017   8.907   3.166  0.00  0.00    +0.026 C 
ATOM     55  C   UNL     1       0.313  11.413   3.747  0.00  0.00    +0.026 C 
ENDBRANCH  49  52
ENDBRANCH  47  49
ENDBRANCH  43  46
BRANCH  44  56
ATOM     56  C   UNL     1       5.463   7.363   2.232  0.00  0.00    +0.321 C 
ATOM     57  F   UNL     1       4.434   6.813   2.990  0.00  0.00    -0.198 F 
ATOM     58  F   UNL     1       6.638   6.860   2.731  0.00  0.00    -0.198 F 
ENDBRANCH  44  56
ENDBRANCH  41  43
ENDBRANCH  34  40
TORSDOF 7
ENDMDL
MODEL 3
REMARK VINA RESULT:      -5.1      2.968      9.255
REMARK  Name = 
REMARK  7 active torsions:
REMARK  status: ('A' for Active; 'I' for Inactive)
REMARK    1  A    between atoms: C_2  and  C_5
REMARK    2  A    between atoms: C_35  and  C_36
REMARK    3  A    between atoms: N_38  and  C_39
REMARK    4  A    between atoms: C_39  and  C_40
REMARK    5  A    between atoms: N_42  and  S_43
REMARK    6  A    between atoms: S_43  and  C_46
REMARK    7  A    between atoms: C_51  and  C_52
REMARK                            x       y       z     vdW  Elec       q    Type
REMARK                         _______ _______ _______ _____ _____    ______ ____
ROOT
ATOM      1  C   UNL     1       0.270   6.360  -1.504  0.00  0.00    +0.174 C 
ATOM      2  C   UNL     1       1.178   6.940  -2.705  0.00  0.00    +0.246 C 
ATOM      3  O   UNL     1       0.697   7.144  -3.801  0.00  0.00    -0.273 OA
ATOM      4  N   UNL     1       2.405   7.449  -2.195  0.00  0.00    -0.268 N 
ATOM      5  C   UNL     1       2.231   8.516  -1.207  0.00  0.00    +0.137 C 
ATOM      6  C   UNL     1       3.679   8.431  -0.426  0.00  0.00    +0.189 C 
ATOM      7  C   UNL     1       4.538   8.108  -1.783  0.00  0.00    +0.075 C 
ATOM      8  O   UNL     1       3.919   9.948  -0.563  0.00  0.00    -0.461 OA
ATOM      9  C   UNL     1       4.631  10.373   0.577  0.00  0.00    +0.244 A 
ATOM     10  C   UNL     1       4.509   9.660   1.765  0.00  0.00    +0.176 A 
ATOM     11  N   UNL     1       5.393  10.121   2.700  0.00  0.00    -0.238 NA
ATOM     12  C   UNL     1       6.049  11.264   2.649  0.00  0.00    +0.099 A 
ATOM     13  C   UNL     1       5.890  12.056   1.554  0.00  0.00    +0.102 A 
ATOM     14  C   UNL     1       6.027  13.438   1.717  0.00  0.00    +0.021 A 
ATOM     15  C   UNL     1       6.404  13.949   2.955  0.00  0.00    +0.002 A 
ATOM     16  C   UNL     1       7.135  13.073   3.749  0.00  0.00    +0.002 A 
ATOM     17  C   UNL     1       6.927  11.703   3.637  0.00  0.00    +0.021 A 
ATOM     18  C   UNL     1       3.338   8.971   2.068  0.00  0.00    +0.321 C 
ATOM     19  F   UNL     1       3.813   8.384   3.301  0.00  0.00    -0.193 F 
ATOM     20  F   UNL     1       2.602   7.974   2.009  0.00  0.00    -0.193 F 
ATOM     21  C   UNL     1       2.359  10.045   2.516  0.00  0.00    +0.043 C 
ATOM     22  C   UNL     1       1.376  10.530   1.856  0.00  0.00    +0.007 C 
ATOM     23  C   UNL     1      -0.062  10.258   1.860  0.00  0.00    +0.168 C 
ATOM     24  O   UNL     1      -0.489   9.554   0.742  0.00  0.00    -0.348 OA
ATOM     25  C   UNL     1      -1.694   8.753   1.159  0.00  0.00    +0.156 C 
ATOM     26  C   UNL     1      -1.138   7.364   0.323  0.00  0.00    +0.197 C 
ATOM     27  C   UNL     1      -1.972   6.407   1.351  0.00  0.00    +0.046 C 
ATOM     28  C   UNL     1      -1.503   6.860   2.673  0.00  0.00    +0.006 C 
ATOM     29  O   UNL     1      -2.308   7.412  -0.660  0.00  0.00    -0.435 OA
ATOM     30  C   UNL     1      -2.259   6.323  -1.541  0.00  0.00    +0.421 C 
ATOM     31  O   UNL     1      -3.290   5.841  -2.098  0.00  0.00    -0.225 OA
ATOM     32  C   UNL     1      -0.962   8.222   2.524  0.00  0.00    +0.033 C 
ATOM     33  N   UNL     1       5.366  11.507   0.457  0.00  0.00    -0.209 NA
ATOM     34  C   UNL     1       3.395   8.436  -2.908  0.00  0.00    +0.157 C 
ATOM     35  N   UNL     1      -1.069   6.273  -2.334  0.00  0.00    -0.161 NA
ENDROOT
BRANCH   1  37
ATOM     36  C   UNL     1      -0.298   4.153  -1.799  0.00  0.00    +0.002 C 
ATOM     37  C   UNL     1       0.659   4.797  -1.851  0.00  0.00    +0.027 C 
ATOM     38  C   UNL     1       1.801   4.436  -0.955  0.00  0.00    +0.002 C 
ATOM     39  C   UNL     1       1.228   4.811  -3.252  0.00  0.00    +0.002 C 
ENDBRANCH   1  37
BRANCH  34  40
ATOM     40  C   UNL     1       3.954   7.313  -3.933  0.00  0.00    +0.260 C 
ATOM     41  N   UNL     1       3.170   7.265  -5.144  0.00  0.00    -0.198 NA
ATOM     42  O   UNL     1       5.165   7.534  -4.276  0.00  0.00    -0.272 OA
BRANCH  41  43
ATOM     43  C   UNL     1       3.478   6.300  -6.162  0.00  0.00    +0.155 C 
ATOM     44  C   UNL     1       5.100   6.188  -6.424  0.00  0.00    +0.096 C 
ATOM     45  C   UNL     1       4.346   5.111  -5.415  0.00  0.00    +0.037 C 
BRANCH  43  46
ATOM     46  C   UNL     1       2.548   5.694  -7.015  0.00  0.00    +0.280 C 
ATOM     47  N   UNL     1       1.940   6.314  -8.154  0.00  0.00    -0.062 NA
ATOM     48  O   UNL     1       2.183   4.487  -6.815  0.00  0.00    -0.270 OA
BRANCH  47  49
ATOM     49  S   UNL     1       1.005   5.435  -9.292  0.00  0.00    +0.072 S 
ATOM     50  O   UNL     1       1.635   4.078  -9.482  0.00  0.00    -0.153 OA
ATOM     51  O   UNL     1      -0.373   5.253  -8.714  0.00  0.00    -0.153 OA
BRANCH  49  52
ATOM     52  C   UNL     1       0.972   6.242 -10.862  0.00  0.00    +0.131 C 
ATOM     53  C   UNL     1      -0.067   5.712 -11.888  0.00  0.00    +0.026 C 
ATOM     54  C   UNL     1      -0.151   7.112 -11.249  0.00  0.00    +0.026 C 
ATOM     55  C   UNL     1       2.336   6.429 -11.512  0.00  0.00    +0.026 C 
ENDBRANCH  49  52
ENDBRANCH  47  49
ENDBRANCH  43  46
BRANCH  44  56
ATOM     56  C   UNL     1       5.028   5.208  -7.773  0.00  0.00    +0.321 C 
ATOM     57  F   UNL     1       4.998   6.207  -8.740  0.00  0.00    -0.198 F 
ATOM     58  F   UNL     1       6.302   4.700  -7.765  0.00  0.00    -0.198 F 
ENDBRANCH  44  56
ENDBRANCH  41  43
ENDBRANCH  34  40
TORSDOF 7
ENDMDL
MODEL 4
REMARK VINA RESULT:      -5.0      2.840      3.911
REMARK  Name = 
REMARK  7 active torsions:
REMARK  status: ('A' for Active; 'I' for Inactive)
REMARK    1  A    between atoms: C_2  and  C_5
REMARK    2  A    between atoms: C_35  and  C_36
REMARK    3  A    between atoms: N_38  and  C_39
REMARK    4  A    between atoms: C_39  and  C_40
REMARK    5  A    between atoms: N_42  and  S_43
REMARK    6  A    between atoms: S_43  and  C_46
REMARK    7  A    between atoms: C_51  and  C_52
REMARK                            x       y       z     vdW  Elec       q    Type
REMARK                         _______ _______ _______ _____ _____    ______ ____
ROOT
ATOM      1  C   UNL     1       0.483   7.872   0.601  0.00  0.00    +0.174 C 
ATOM      2  C   UNL     1       2.061   7.648   0.854  0.00  0.00    +0.246 C 
ATOM      3  O   UNL     1       2.456   7.132   1.879  0.00  0.00    -0.273 OA
ATOM      4  N   UNL     1       2.783   7.814  -0.361  0.00  0.00    -0.268 N 
ATOM      5  C   UNL     1       2.363   6.897  -1.423  0.00  0.00    +0.137 C 
ATOM      6  C   UNL     1       2.899   7.717  -2.747  0.00  0.00    +0.189 C 
ATOM      7  C   UNL     1       4.267   8.252  -2.022  0.00  0.00    +0.075 C 
ATOM      8  O   UNL     1       3.614   6.474  -3.313  0.00  0.00    -0.461 OA
ATOM      9  C   UNL     1       3.547   6.545  -4.719  0.00  0.00    +0.244 A 
ATOM     10  C   UNL     1       2.505   7.244  -5.320  0.00  0.00    +0.176 A 
ATOM     11  N   UNL     1       2.701   7.340  -6.669  0.00  0.00    -0.238 NA
ATOM     12  C   UNL     1       3.550   6.627  -7.382  0.00  0.00    +0.099 A 
ATOM     13  C   UNL     1       4.354   5.739  -6.736  0.00  0.00    +0.102 A 
ATOM     14  C   UNL     1       4.767   4.599  -7.433  0.00  0.00    +0.021 A 
ATOM     15  C   UNL     1       4.423   4.451  -8.773  0.00  0.00    +0.002 A 
ATOM     16  C   UNL     1       4.195   5.643  -9.451  0.00  0.00    +0.002 A 
ATOM     17  C   UNL     1       3.702   6.746  -8.761  0.00  0.00    +0.021 A 
ATOM     18  C   UNL     1       1.263   7.348  -4.700  0.00  0.00    +0.321 C 
ATOM     19  F   UNL     1       0.664   8.215  -5.691  0.00  0.00    -0.193 F 
ATOM     20  F   UNL     1       0.468   7.886  -3.914  0.00  0.00    -0.193 F 
ATOM     21  C   UNL     1       0.599   6.000  -4.930  0.00  0.00    +0.043 C 
ATOM     22  C   UNL     1       0.445   5.052  -4.084  0.00  0.00    +0.007 C 
ATOM     23  C   UNL     1      -0.679   4.634  -3.245  0.00  0.00    +0.168 C 
ATOM     24  O   UNL     1      -0.504   4.942  -1.903  0.00  0.00    -0.348 OA
ATOM     25  C   UNL     1      -1.875   5.142  -1.313  0.00  0.00    +0.156 C 
ATOM     26  C   UNL     1      -1.370   6.534  -0.450  0.00  0.00    +0.197 C 
ATOM     27  C   UNL     1      -2.901   7.106  -0.470  0.00  0.00    +0.046 C 
ATOM     28  C   UNL     1      -3.247   7.061  -1.902  0.00  0.00    +0.006 C 
ATOM     29  O   UNL     1      -1.590   5.852   0.900  0.00  0.00    -0.435 OA
ATOM     30  C   UNL     1      -1.334   6.742   1.952  0.00  0.00    +0.421 C 
ATOM     31  O   UNL     1      -1.878   6.638   3.091  0.00  0.00    -0.225 OA
ATOM     32  C   UNL     1      -2.354   6.090  -2.558  0.00  0.00    +0.033 C 
ATOM     33  N   UNL     1       4.493   5.868  -5.416  0.00  0.00    -0.209 NA
ATOM     34  C   UNL     1       4.240   7.320  -0.676  0.00  0.00    +0.157 C 
ATOM     35  N   UNL     1       0.005   7.247   1.969  0.00  0.00    -0.161 NA
ENDROOT
BRANCH   1  37
ATOM     36  C   UNL     1       1.082  10.088   0.510  0.00  0.00    +0.002 C 
ATOM     37  C   UNL     1       0.511   9.393   1.234  0.00  0.00    +0.027 C 
ATOM     38  C   UNL     1       1.024   9.260   2.633  0.00  0.00    +0.002 C 
ATOM     39  C   UNL     1      -0.935   9.814   1.366  0.00  0.00    +0.002 C 
ENDBRANCH   1  37
BRANCH  34  40
ATOM     40  C   UNL     1       4.945   8.458   0.235  0.00  0.00    +0.260 C 
ATOM     41  N   UNL     1       4.226   9.709   0.169  0.00  0.00    -0.198 NA
ATOM     42  O   UNL     1       5.004   8.121   1.466  0.00  0.00    -0.272 OA
BRANCH  41  43
ATOM     43  C   UNL     1       4.720  10.859   0.873  0.00  0.00    +0.155 C 
ATOM     44  C   UNL     1       4.169  12.262   0.210  0.00  0.00    +0.096 C 
ATOM     45  C   UNL     1       3.394  11.602   1.518  0.00  0.00    +0.037 C 
BRANCH  43  46
ATOM     46  C   UNL     1       5.730  10.846   1.843  0.00  0.00    +0.280 C 
ATOM     47  N   UNL     1       7.125  11.049   1.590  0.00  0.00    -0.062 NA
ATOM     48  O   UNL     1       5.440  10.652   3.071  0.00  0.00    -0.270 OA
BRANCH  47  49
ATOM     49  S   UNL     1       8.267  11.267   2.851  0.00  0.00    +0.072 S 
ATOM     50  O   UNL     1       7.782  12.378   3.749  0.00  0.00    -0.153 OA
ATOM     51  O   UNL     1       8.325   9.991   3.646  0.00  0.00    -0.153 OA
BRANCH  49  52
ATOM     52  C   UNL     1       9.847  11.734   2.217  0.00  0.00    +0.131 C 
ATOM     53  C   UNL     1      10.833  12.381   3.229  0.00  0.00    +0.026 C 
ATOM     54  C   UNL     1      11.066  10.998   2.590  0.00  0.00    +0.026 C 
ATOM     55  C   UNL     1       9.804  12.522   0.915  0.00  0.00    +0.026 C 
ENDBRANCH  49  52
ENDBRANCH  47  49
ENDBRANCH  43  46
BRANCH  44  56
ATOM     56  C   UNL     1       5.118  13.304   1.105  0.00  0.00    +0.321 C 
ATOM     57  F   UNL     1       6.125  13.507   0.168  0.00  0.00    -0.198 F 
ATOM     58  F   UNL     1       4.323  14.423   1.085  0.00  0.00    -0.198 F 
ENDBRANCH  44  56
ENDBRANCH  41  43
ENDBRANCH  34  40
TORSDOF 7
ENDMDL
MODEL 5
REMARK VINA RESULT:      -4.6      2.570      3.478
REMARK  Name = 
REMARK  7 active torsions:
REMARK  status: ('A' for Active; 'I' for Inactive)
REMARK    1  A    between atoms: C_2  and  C_5
REMARK    2  A    between atoms: C_35  and  C_36
REMARK    3  A    between atoms: N_38  and  C_39
REMARK    4  A    between atoms: C_39  and  C_40
REMARK    5  A    between atoms: N_42  and  S_43
REMARK    6  A    between atoms: S_43  and  C_46
REMARK    7  A    between atoms: C_51  and  C_52
REMARK                            x       y       z     vdW  Elec       q    Type
REMARK                         _______ _______ _______ _____ _____    ______ ____
ROOT
ATOM      1  C   UNL     1       0.416   7.900   0.492  0.00  0.00    +0.174 C 
ATOM      2  C   UNL     1       2.001   7.725   0.738  0.00  0.00    +0.246 C 
ATOM      3  O   UNL     1       2.416   7.234   1.768  0.00  0.00    -0.273 OA
ATOM      4  N   UNL     1       2.712   7.896  -0.482  0.00  0.00    -0.268 N 
ATOM      5  C   UNL     1       2.313   6.953  -1.530  0.00  0.00    +0.137 C 
ATOM      6  C   UNL     1       2.818   7.771  -2.868  0.00  0.00    +0.189 C 
ATOM      7  C   UNL     1       4.174   8.354  -2.158  0.00  0.00    +0.075 C 
ATOM      8  O   UNL     1       3.565   6.541  -3.422  0.00  0.00    -0.461 OA
ATOM      9  C   UNL     1       3.489   6.592  -4.828  0.00  0.00    +0.244 A 
ATOM     10  C   UNL     1       2.424   7.253  -5.433  0.00  0.00    +0.176 A 
ATOM     11  N   UNL     1       2.610   7.337  -6.784  0.00  0.00    -0.238 NA
ATOM     12  C   UNL     1       3.476   6.639  -7.492  0.00  0.00    +0.099 A 
ATOM     13  C   UNL     1       4.308   5.783  -6.839  0.00  0.00    +0.102 A 
ATOM     14  C   UNL     1       4.750   4.646  -7.524  0.00  0.00    +0.021 A 
ATOM     15  C   UNL     1       4.403   4.471  -8.860  0.00  0.00    +0.002 A 
ATOM     16  C   UNL     1       4.137   5.647  -9.552  0.00  0.00    +0.002 A 
ATOM     17  C   UNL     1       3.617   6.744  -8.873  0.00  0.00    +0.021 A 
ATOM     18  C   UNL     1       1.183   7.329  -4.807  0.00  0.00    +0.321 C 
ATOM     19  F   UNL     1       0.553   8.165  -5.805  0.00  0.00    -0.193 F 
ATOM     20  F   UNL     1       0.377   7.854  -4.023  0.00  0.00    -0.193 F 
ATOM     21  C   UNL     1       0.557   5.959  -5.015  0.00  0.00    +0.043 C 
ATOM     22  C   UNL     1       0.434   5.018  -4.156  0.00  0.00    +0.007 C 
ATOM     23  C   UNL     1      -0.672   4.580  -3.305  0.00  0.00    +0.168 C 
ATOM     24  O   UNL     1      -0.499   4.910  -1.968  0.00  0.00    -0.348 OA
ATOM     25  C   UNL     1      -1.873   5.078  -1.374  0.00  0.00    +0.156 C 
ATOM     26  C   UNL     1      -1.403   6.495  -0.532  0.00  0.00    +0.197 C 
ATOM     27  C   UNL     1      -2.950   7.022  -0.551  0.00  0.00    +0.046 C 
ATOM     28  C   UNL     1      -3.303   6.948  -1.980  0.00  0.00    +0.006 C 
ATOM     29  O   UNL     1      -1.596   5.825   0.828  0.00  0.00    -0.435 OA
ATOM     30  C   UNL     1      -1.361   6.736   1.867  0.00  0.00    +0.421 C 
ATOM     31  O   UNL     1      -1.895   6.631   3.011  0.00  0.00    -0.225 OA
ATOM     32  C   UNL     1      -2.385   5.995  -2.628  0.00  0.00    +0.033 C 
ATOM     33  N   UNL     1       4.450   5.933  -5.522  0.00  0.00    -0.209 NA
ATOM     34  C   UNL     1       4.180   7.440  -0.800  0.00  0.00    +0.157 C 
ATOM     35  N   UNL     1      -0.037   7.280   1.870  0.00  0.00    -0.161 NA
ENDROOT
BRANCH   1  37
ATOM     36  C   UNL     1       1.019  10.115   0.409  0.00  0.00    +0.002 C 
ATOM     37  C   UNL     1       0.403   9.429   1.104  0.00  0.00    +0.027 C 
ATOM     38  C   UNL     1       0.825   9.316   2.535  0.00  0.00    +0.002 C 
ATOM     39  C   UNL     1      -1.048   9.851   1.137  0.00  0.00    +0.002 C 
ENDBRANCH   1  37
BRANCH  34  40
ATOM     40  C   UNL     1       4.857   8.610   0.093  0.00  0.00    +0.260 C 
ATOM     41  N   UNL     1       4.001   9.770   0.180  0.00  0.00    -0.198 NA
ATOM     42  O   UNL     1       5.097   8.227   1.287  0.00  0.00    -0.272 OA
BRANCH  41  43
ATOM     43  C   UNL     1       4.443  10.936   0.892  0.00  0.00    +0.155 C 
ATOM     44  C   UNL     1       4.194  10.792   2.513  0.00  0.00    +0.096 C 
ATOM     45  C   UNL     1       5.678  10.436   1.866  0.00  0.00    +0.037 C 
BRANCH  43  46
ATOM     46  C   UNL     1       4.813  12.154   0.306  0.00  0.00    +0.280 C 
ATOM     47  N   UNL     1       6.055  12.834   0.521  0.00  0.00    -0.062 NA
ATOM     48  O   UNL     1       4.021  12.745  -0.502  0.00  0.00    -0.270 OA
BRANCH  47  49
ATOM     49  S   UNL     1       6.539  14.185  -0.417  0.00  0.00    +0.072 S 
ATOM     50  O   UNL     1       6.188  13.917  -1.859  0.00  0.00    -0.153 OA
ATOM     51  O   UNL     1       5.757  15.380   0.058  0.00  0.00    -0.153 OA
BRANCH  49  52
ATOM     52  C   UNL     1       8.283  14.446  -0.323  0.00  0.00    +0.131 C 
ATOM     53  C   UNL     1       8.787  15.872  -0.676  0.00  0.00    +0.026 C 
ATOM     54  C   UNL     1       8.874  15.273   0.742  0.00  0.00    +0.026 C 
ATOM     55  C   UNL     1       9.124  13.381  -1.014  0.00  0.00    +0.026 C 
ENDBRANCH  49  52
ENDBRANCH  47  49
ENDBRANCH  43  46
BRANCH  44  56
ATOM     56  C   UNL     1       4.582  12.363   2.926  0.00  0.00    +0.321 C 
ATOM     57  F   UNL     1       3.491  12.624   3.748  0.00  0.00    -0.198 F 
ATOM     58  F   UNL     1       5.655  12.132   3.750  0.00  0.00    -0.198 F 
ENDBRANCH  44  56
ENDBRANCH  41  43
ENDBRANCH  34  40
TORSDOF 7
ENDMDL
MODEL 6
REMARK VINA RESULT:      -3.2      3.470      9.456
REMARK  Name = 
REMARK  7 active torsions:
REMARK  status: ('A' for Active; 'I' for Inactive)
REMARK    1  A    between atoms: C_2  and  C_5
REMARK    2  A    between atoms: C_35  and  C_36
REMARK    3  A    between atoms: N_38  and  C_39
REMARK    4  A    between atoms: C_39  and  C_40
REMARK    5  A    between atoms: N_42  and  S_43
REMARK    6  A    between atoms: S_43  and  C_46
REMARK    7  A    between atoms: C_51  and  C_52
REMARK                            x       y       z     vdW  Elec       q    Type
REMARK                         _______ _______ _______ _____ _____    ______ ____
ROOT
ATOM      1  C   UNL     1      -0.333   5.726  -5.709  0.00  0.00    +0.174 C 
ATOM      2  C   UNL     1       0.951   6.464  -6.349  0.00  0.00    +0.246 C 
ATOM      3  O   UNL     1       0.829   7.194  -7.310  0.00  0.00    -0.273 OA
ATOM      4  N   UNL     1       2.056   6.393  -5.455  0.00  0.00    -0.268 N 
ATOM      5  C   UNL     1       1.793   7.001  -4.148  0.00  0.00    +0.137 C 
ATOM      6  C   UNL     1       2.937   6.243  -3.238  0.00  0.00    +0.189 C 
ATOM      7  C   UNL     1       4.072   6.256  -4.419  0.00  0.00    +0.075 C 
ATOM      8  O   UNL     1       3.448   7.573  -2.649  0.00  0.00    -0.461 OA
ATOM      9  C   UNL     1       3.879   7.321  -1.331  0.00  0.00    +0.244 A 
ATOM     10  C   UNL     1       3.322   6.263  -0.620  0.00  0.00    +0.176 A 
ATOM     11  N   UNL     1       3.977   6.077   0.565  0.00  0.00    -0.238 NA
ATOM     12  C   UNL     1       4.798   6.933   1.140  0.00  0.00    +0.099 A 
ATOM     13  C   UNL     1       5.076   8.099   0.494  0.00  0.00    +0.102 A 
ATOM     14  C   UNL     1       5.385   9.221   1.269  0.00  0.00    +0.021 A 
ATOM     15  C   UNL     1       5.485   9.096   2.651  0.00  0.00    +0.002 A 
ATOM     16  C   UNL     1       5.819   7.822   3.097  0.00  0.00    +0.002 A 
ATOM     17  C   UNL     1       5.430   6.709   2.360  0.00  0.00    +0.021 A 
ATOM     18  C   UNL     1       2.016   5.846  -0.866  0.00  0.00    +0.321 C 
ATOM     19  F   UNL     1       2.034   4.724   0.047  0.00  0.00    -0.193 F 
ATOM     20  F   UNL     1       1.174   5.180  -1.488  0.00  0.00    -0.193 F 
ATOM     21  C   UNL     1       1.140   6.879  -0.177  0.00  0.00    +0.043 C 
ATOM     22  C   UNL     1       0.468   7.822  -0.722  0.00  0.00    +0.007 C 
ATOM     23  C   UNL     1      -0.940   7.958  -1.097  0.00  0.00    +0.168 C 
ATOM     24  O   UNL     1      -1.152   7.880  -2.467  0.00  0.00    -0.348 OA
ATOM     25  C   UNL     1      -2.538   7.328  -2.668  0.00  0.00    +0.156 C 
ATOM     26  C   UNL     1      -2.007   6.277  -3.913  0.00  0.00    +0.197 C 
ATOM     27  C   UNL     1      -3.235   5.253  -3.578  0.00  0.00    +0.046 C 
ATOM     28  C   UNL     1      -3.080   5.020  -2.132  0.00  0.00    +0.006 C 
ATOM     29  O   UNL     1      -2.838   7.008  -4.968  0.00  0.00    -0.435 OA
ATOM     30  C   UNL     1      -2.727   6.373  -6.213  0.00  0.00    +0.421 C 
ATOM     31  O   UNL     1      -3.629   6.433  -7.100  0.00  0.00    -0.225 OA
ATOM     32  C   UNL     1      -2.305   6.139  -1.568  0.00  0.00    +0.033 C 
ATOM     33  N   UNL     1       4.792   8.175  -0.807  0.00  0.00    -0.209 NA
ATOM     34  C   UNL     1       3.351   7.281  -5.472  0.00  0.00    +0.157 C 
ATOM     35  N   UNL     1      -1.389   6.322  -6.719  0.00  0.00    -0.161 NA
ENDROOT
BRANCH   1  37
ATOM     36  C   UNL     1      -1.034   3.681  -6.489  0.00  0.00    +0.002 C 
ATOM     37  C   UNL     1      -0.122   4.376  -6.630  0.00  0.00    +0.027 C 
ATOM     38  C   UNL     1       1.232   3.839  -6.291  0.00  0.00    +0.002 C 
ATOM     39  C   UNL     1      -0.024   4.859  -8.060  0.00  0.00    +0.002 C 
ENDBRANCH   1  37
BRANCH  34  40
ATOM     40  C   UNL     1       3.980   6.538  -6.766  0.00  0.00    +0.260 C 
ATOM     41  N   UNL     1       3.462   7.089  -7.996  0.00  0.00    -0.198 NA
ATOM     42  O   UNL     1       5.253   6.644  -6.810  0.00  0.00    -0.272 OA
BRANCH  41  43
ATOM     43  C   UNL     1       3.864   6.533  -9.257  0.00  0.00    +0.155 C 
ATOM     44  C   UNL     1       5.485   6.246  -9.308  0.00  0.00    +0.096 C 
ATOM     45  C   UNL     1       4.436   5.020  -8.927  0.00  0.00    +0.037 C 
BRANCH  43  46
ATOM     46  C   UNL     1       3.064   6.459 -10.405  0.00  0.00    +0.280 C 
ATOM     47  N   UNL     1       2.114   5.425 -10.687  0.00  0.00    -0.062 NA
ATOM     48  O   UNL     1       3.138   7.365 -11.300  0.00  0.00    -0.270 OA
BRANCH  47  49
ATOM     49  S   UNL     1       0.997   5.530 -11.984  0.00  0.00    +0.072 S 
ATOM     50  O   UNL     1      -0.162   4.610 -11.693  0.00  0.00    -0.153 OA
ATOM     51  O   UNL     1       0.490   6.946 -12.042  0.00  0.00    -0.153 OA
BRANCH  49  52
ATOM     52  C   UNL     1       1.727   5.018 -13.508  0.00  0.00    +0.131 C 
ATOM     53  C   UNL     1       2.221   6.150 -14.451  0.00  0.00    +0.026 C 
ATOM     54  C   UNL     1       3.173   5.162 -13.748  0.00  0.00    +0.026 C 
ATOM     55  C   UNL     1       0.930   3.974 -14.277  0.00  0.00    +0.026 C 
ENDBRANCH  49  52
ENDBRANCH  47  49
ENDBRANCH  43  46
BRANCH  44  56
ATOM     56  C   UNL     1       5.580   5.865 -10.931  0.00  0.00    +0.321 C 
ATOM     57  F   UNL     1       5.997   7.106 -11.399  0.00  0.00    -0.198 F 
ATOM     58  F   UNL     1       6.686   5.052 -10.918  0.00  0.00    -0.198 F 
ENDBRANCH  44  56
ENDBRANCH  41  43
ENDBRANCH  34  40
TORSDOF 7
ENDMDL
