MODEL 1
REMARK VINA RESULT:      -8.1      0.000      0.000
REMARK  Name = 
REMARK  4 active torsions:
REMARK  status: ('A' for Active; 'I' for Inactive)
REMARK    1  A    between atoms: N_2  and  C_4
REMARK    2  A    between atoms: C_7  and  C_8
REMARK    3  A    between atoms: C_8  and  C_9
REMARK    4  A    between atoms: C_12  and  N_13
REMARK                            x       y       z     vdW  Elec       q    Type
REMARK                         _______ _______ _______ _____ _____    ______ ____
ROOT
ATOM      1  C   UNL     1       2.751   6.496  -5.726  0.00  0.00    +0.000 C 
ATOM      2  C   UNL     1       1.451   6.327  -5.625  0.00  0.00    +0.000 C 
ATOM      3  C   UNL     1       0.777   6.358  -4.320  0.00  0.00    +0.006 C 
ATOM      4  C   UNL     1      -0.424   5.821  -4.142  0.00  0.00    +0.069 C 
ATOM      5  C   UNL     1      -1.280   5.600  -5.301  0.00  0.00    +0.222 C 
ATOM      6  N   UNL     1      -2.554   5.862  -5.262  0.00  0.00    -0.177 N 
ATOM      7  C   UNL     1      -2.912   7.240  -5.595  0.00  0.00    +0.403 C 
ATOM      8  C   UNL     1      -3.483   5.045  -4.502  0.00  0.00    +0.403 C 
ATOM      9  C   UNL     1      -0.594   5.362  -6.570  0.00  0.00    +0.069 C 
ATOM     10  C   UNL     1       0.644   5.778  -6.723  0.00  0.00    +0.006 C 
ENDROOT
BRANCH   1  14
ATOM     11  C   UNL     1       3.685   5.584  -9.657  0.00  0.00    +0.048 A 
ATOM     12  C   UNL     1       4.434   4.980  -8.657  0.00  0.00    +0.015 A 
ATOM     13  C   UNL     1       4.216   5.255  -7.313  0.00  0.00    +0.001 A 
ATOM     14  C   UNL     1       3.342   6.300  -7.057  0.00  0.00    +0.000 A 
ATOM     15  C   UNL     1       2.938   7.162  -8.050  0.00  0.00    +0.001 A 
ATOM     16  C   UNL     1       3.136   6.827  -9.367  0.00  0.00    +0.015 A 
BRANCH  11  18
ATOM     17  C   UNL     1       5.634   5.572 -11.161  0.00  0.00    +0.112 C 
ATOM     18  N   UNL     1       4.199   5.443 -10.987  0.00  0.00    -0.304 N 
ATOM     19  C   UNL     1       3.299   5.868 -12.055  0.00  0.00    +0.112 C 
ENDBRANCH  11  18
ENDBRANCH   1  14
BRANCH   1  20
ATOM     20  C   UNL     1       3.625   6.585  -4.576  0.00  0.00    +0.000 A 
ATOM     21  C   UNL     1       4.455   7.690  -4.435  0.00  0.00    +0.001 A 
ATOM     22  C   UNL     1       5.074   7.886  -3.206  0.00  0.00    +0.015 A 
ATOM     23  C   UNL     1       4.684   7.093  -2.133  0.00  0.00    +0.048 A 
ATOM     24  C   UNL     1       4.246   5.818  -2.455  0.00  0.00    +0.015 A 
ATOM     25  C   UNL     1       3.966   5.501  -3.778  0.00  0.00    +0.001 A 
BRANCH  23  26
ATOM     26  N   UNL     1       4.756   7.567  -0.786  0.00  0.00    -0.304 N 
ATOM     27  C   UNL     1       3.946   8.724  -0.415  0.00  0.00    +0.112 C 
ATOM     28  C   UNL     1       4.911   6.546   0.247  0.00  0.00    +0.112 C 
ENDBRANCH  23  26
ENDBRANCH   1  20
TORSDOF 4
ENDMDL
MODEL 2
REMARK VINA RESULT:      -8.0      3.243      9.618
REMARK  Name = 
REMARK  4 active torsions:
REMARK  status: ('A' for Active; 'I' for Inactive)
REMARK    1  A    between atoms: N_2  and  C_4
REMARK    2  A    between atoms: C_7  and  C_8
REMARK    3  A    between atoms: C_8  and  C_9
REMARK    4  A    between atoms: C_12  and  N_13
REMARK                            x       y       z     vdW  Elec       q    Type
REMARK                         _______ _______ _______ _____ _____    ______ ____
ROOT
ATOM      1  C   UNL     1       2.058   6.462 -10.819  0.00  0.00    +0.000 C 
ATOM      2  C   UNL     1       3.365   6.325 -10.780  0.00  0.00    +0.000 C 
ATOM      3  C   UNL     1       4.162   6.252 -12.012  0.00  0.00    +0.006 C 
ATOM      4  C   UNL     1       5.386   5.739 -12.022  0.00  0.00    +0.069 C 
ATOM      5  C   UNL     1       6.130   5.658 -10.772  0.00  0.00    +0.222 C 
ATOM      6  N   UNL     1       7.396   5.955 -10.716  0.00  0.00    -0.177 N 
ATOM      7  C   UNL     1       7.689   7.369 -10.488  0.00  0.00    +0.403 C 
ATOM      8  C   UNL     1       8.413   5.098 -11.301  0.00  0.00    +0.403 C 
ATOM      9  C   UNL     1       5.330   5.521  -9.556  0.00  0.00    +0.069 C 
ATOM     10  C   UNL     1       4.074   5.910  -9.562  0.00  0.00    +0.006 C 
ENDROOT
BRANCH   1  14
ATOM     11  C   UNL     1       0.730   5.811  -6.950  0.00  0.00    +0.048 A 
ATOM     12  C   UNL     1       0.017   5.224  -7.986  0.00  0.00    +0.015 A 
ATOM     13  C   UNL     1       0.368   5.418  -9.316  0.00  0.00    +0.001 A 
ATOM     14  C   UNL     1       1.345   6.376  -9.538  0.00  0.00    +0.000 A 
ATOM     15  C   UNL     1       1.738   7.248  -8.547  0.00  0.00    +0.001 A 
ATOM     16  C   UNL     1       1.405   6.992  -7.241  0.00  0.00    +0.015 A 
BRANCH  11  18
ATOM     17  C   UNL     1       0.839   5.157  -4.579  0.00  0.00    +0.112 C 
ATOM     18  N   UNL     1       0.099   5.774  -5.664  0.00  0.00    -0.304 N 
ATOM     19  C   UNL     1      -1.359   5.694  -5.685  0.00  0.00    +0.112 C 
ENDBRANCH  11  18
ENDBRANCH   1  14
BRANCH   1  20
ATOM     20  C   UNL     1       1.298   6.413 -12.050  0.00  0.00    +0.000 A 
ATOM     21  C   UNL     1       0.441   7.460 -12.365  0.00  0.00    +0.001 A 
ATOM     22  C   UNL     1      -0.062   7.523 -13.659  0.00  0.00    +0.015 A 
ATOM     23  C   UNL     1       0.463   6.664 -14.617  0.00  0.00    +0.048 A 
ATOM     24  C   UNL     1       0.920   5.444 -14.145  0.00  0.00    +0.015 A 
ATOM     25  C   UNL     1       1.082   5.251 -12.779  0.00  0.00    +0.001 A 
BRANCH  23  26
ATOM     26  N   UNL     1       0.504   7.021 -16.001  0.00  0.00    -0.304 N 
ATOM     27  C   UNL     1      -0.762   7.200 -16.707  0.00  0.00    +0.112 C 
ATOM     28  C   UNL     1       1.584   7.918 -16.402  0.00  0.00    +0.112 C 
ENDBRANCH  23  26
ENDBRANCH   1  20
TORSDOF 4
ENDMDL
MODEL 3
REMARK VINA RESULT:      -7.9      2.737      9.203
REMARK  Name = 
REMARK  4 active torsions:
REMARK  status: ('A' for Active; 'I' for Inactive)
REMARK    1  A    between atoms: N_2  and  C_4
REMARK    2  A    between atoms: C_7  and  C_8
REMARK    3  A    between atoms: C_8  and  C_9
REMARK    4  A    between atoms: C_12  and  N_13
REMARK                            x       y       z     vdW  Elec       q    Type
REMARK                         _______ _______ _______ _____ _____    ______ ____
ROOT
ATOM      1  C   UNL     1       2.379   6.358  -9.938  0.00  0.00    +0.000 C 
ATOM      2  C   UNL     1       3.684   6.294 -10.081  0.00  0.00    +0.000 C 
ATOM      3  C   UNL     1       4.313   6.399 -11.404  0.00  0.00    +0.006 C 
ATOM      4  C   UNL     1       5.546   5.961 -11.628  0.00  0.00    +0.069 C 
ATOM      5  C   UNL     1       6.453   5.791 -10.500  0.00  0.00    +0.222 C 
ATOM      6  N   UNL     1       7.700   6.154 -10.572  0.00  0.00    -0.177 N 
ATOM      7  C   UNL     1       7.959   7.550 -10.225  0.00  0.00    +0.403 C 
ATOM      8  C   UNL     1       8.667   5.424 -11.374  0.00  0.00    +0.403 C 
ATOM      9  C   UNL     1       5.827   5.480  -9.215  0.00  0.00    +0.069 C 
ATOM     10  C   UNL     1       4.566   5.794  -9.017  0.00  0.00    +0.006 C 
ENDROOT
BRANCH   1  14
ATOM     11  C   UNL     1       1.684   5.588  -5.927  0.00  0.00    +0.048 A 
ATOM     12  C   UNL     1       1.268   4.639  -6.850  0.00  0.00    +0.015 A 
ATOM     13  C   UNL     1       1.427   4.830  -8.217  0.00  0.00    +0.001 A 
ATOM     14  C   UNL     1       1.847   6.096  -8.594  0.00  0.00    +0.000 A 
ATOM     15  C   UNL     1       1.847   7.149  -7.708  0.00  0.00    +0.001 A 
ATOM     16  C   UNL     1       1.731   6.908  -6.361  0.00  0.00    +0.015 A 
BRANCH  11  18
ATOM     17  C   UNL     1      -0.221   5.579  -4.368  0.00  0.00    +0.112 C 
ATOM     18  N   UNL     1       1.203   5.406  -4.590  0.00  0.00    -0.304 N 
ATOM     19  C   UNL     1       2.148   5.749  -3.532  0.00  0.00    +0.112 C 
ENDBRANCH  11  18
ENDBRANCH   1  14
BRANCH   1  20
ATOM     20  C   UNL     1       1.465   6.396 -11.059  0.00  0.00    +0.000 A 
ATOM     21  C   UNL     1       0.425   7.317 -11.061  0.00  0.00    +0.001 A 
ATOM     22  C   UNL     1      -0.263   7.519 -12.252  0.00  0.00    +0.015 A 
ATOM     23  C   UNL     1       0.240   6.947 -13.414  0.00  0.00    +0.048 A 
ATOM     24  C   UNL     1       0.937   5.761 -13.248  0.00  0.00    +0.015 A 
ATOM     25  C   UNL     1       1.322   5.361 -11.975  0.00  0.00    +0.001 A 
BRANCH  23  26
ATOM     26  N   UNL     1       0.027   7.544 -14.695  0.00  0.00    -0.304 N 
ATOM     27  C   UNL     1       0.753   8.771 -15.017  0.00  0.00    +0.112 C 
ATOM     28  C   UNL     1      -0.178   6.621 -15.808  0.00  0.00    +0.112 C 
ENDBRANCH  23  26
ENDBRANCH   1  20
TORSDOF 4
ENDMDL
MODEL 4
REMARK VINA RESULT:      -7.7      3.216      7.966
REMARK  Name = 
REMARK  4 active torsions:
REMARK  status: ('A' for Active; 'I' for Inactive)
REMARK    1  A    between atoms: N_2  and  C_4
REMARK    2  A    between atoms: C_7  and  C_8
REMARK    3  A    between atoms: C_8  and  C_9
REMARK    4  A    between atoms: C_12  and  N_13
REMARK                            x       y       z     vdW  Elec       q    Type
REMARK                         _______ _______ _______ _____ _____    ______ ____
ROOT
ATOM      1  C   UNL     1       3.516   6.050 -10.197  0.00  0.00    +0.000 C 
ATOM      2  C   UNL     1       2.695   5.940 -11.218  0.00  0.00    +0.000 C 
ATOM      3  C   UNL     1       3.183   6.015 -12.602  0.00  0.00    +0.006 C 
ATOM      4  C   UNL     1       2.371   6.294 -13.614  0.00  0.00    +0.069 C 
ATOM      5  C   UNL     1       0.938   6.087 -13.451  0.00  0.00    +0.222 C 
ATOM      6  N   UNL     1       0.217   5.559 -14.397  0.00  0.00    -0.177 N 
ATOM      7  C   UNL     1       0.158   4.099 -14.387  0.00  0.00    +0.403 C 
ATOM      8  C   UNL     1      -0.093   6.281 -15.619  0.00  0.00    +0.403 C 
ATOM      9  C   UNL     1       0.421   6.220 -12.089  0.00  0.00    +0.069 C 
ATOM     10  C   UNL     1       1.239   6.070 -11.070  0.00  0.00    +0.006 C 
ENDROOT
BRANCH   1  14
ATOM     11  C   UNL     1       1.087   6.072  -6.842  0.00  0.00    +0.048 A 
ATOM     12  C   UNL     1       1.753   7.246  -7.167  0.00  0.00    +0.015 A 
ATOM     13  C   UNL     1       2.616   7.320  -8.253  0.00  0.00    +0.001 A 
ATOM     14  C   UNL     1       2.908   6.109  -8.862  0.00  0.00    +0.000 A 
ATOM     15  C   UNL     1       2.581   4.908  -8.273  0.00  0.00    +0.001 A 
ATOM     16  C   UNL     1       1.689   4.880  -7.230  0.00  0.00    +0.015 A 
BRANCH  11  18
ATOM     17  C   UNL     1      -0.340   7.195  -5.180  0.00  0.00    +0.112 C 
ATOM     18  N   UNL     1       0.469   6.048  -5.550  0.00  0.00    -0.304 N 
ATOM     19  C   UNL     1       1.198   5.313  -4.521  0.00  0.00    +0.112 C 
ENDBRANCH  11  18
ENDBRANCH   1  14
BRANCH   1  20
ATOM     20  C   UNL     1       4.916   6.384 -10.347  0.00  0.00    +0.000 A 
ATOM     21  C   UNL     1       5.877   5.586  -9.738  0.00  0.00    +0.001 A 
ATOM     22  C   UNL     1       7.203   5.762 -10.114  0.00  0.00    +0.015 A 
ATOM     23  C   UNL     1       7.480   6.575 -11.207  0.00  0.00    +0.048 A 
ATOM     24  C   UNL     1       6.589   7.613 -11.426  0.00  0.00    +0.015 A 
ATOM     25  C   UNL     1       5.374   7.632 -10.752  0.00  0.00    +0.001 A 
BRANCH  23  26
ATOM     26  N   UNL     1       8.626   6.355 -12.033  0.00  0.00    -0.304 N 
ATOM     27  C   UNL     1       9.815   5.763 -11.424  0.00  0.00    +0.112 C 
ATOM     28  C   UNL     1       8.359   5.958 -13.412  0.00  0.00    +0.112 C 
ENDBRANCH  23  26
ENDBRANCH   1  20
TORSDOF 4
ENDMDL
MODEL 5
REMARK VINA RESULT:      -7.5      1.281      6.007
REMARK  Name = 
REMARK  4 active torsions:
REMARK  status: ('A' for Active; 'I' for Inactive)
REMARK    1  A    between atoms: N_2  and  C_4
REMARK    2  A    between atoms: C_7  and  C_8
REMARK    3  A    between atoms: C_8  and  C_9
REMARK    4  A    between atoms: C_12  and  N_13
REMARK                            x       y       z     vdW  Elec       q    Type
REMARK                         _______ _______ _______ _____ _____    ______ ____
ROOT
ATOM      1  C   UNL     1       3.080   5.849  -7.014  0.00  0.00    +0.000 C 
ATOM      2  C   UNL     1       3.622   5.985  -8.204  0.00  0.00    +0.000 C 
ATOM      3  C   UNL     1       5.078   5.921  -8.391  0.00  0.00    +0.006 C 
ATOM      4  C   UNL     1       5.666   6.426  -9.469  0.00  0.00    +0.069 C 
ATOM      5  C   UNL     1       4.873   6.639 -10.674  0.00  0.00    +0.222 C 
ATOM      6  N   UNL     1       5.340   6.344 -11.852  0.00  0.00    -0.177 N 
ATOM      7  C   UNL     1       5.121   4.963 -12.276  0.00  0.00    +0.403 C 
ATOM      8  C   UNL     1       6.387   7.129 -12.482  0.00  0.00    +0.403 C 
ATOM      9  C   UNL     1       3.451   6.909 -10.467  0.00  0.00    +0.069 C 
ATOM     10  C   UNL     1       2.876   6.526  -9.348  0.00  0.00    +0.006 C 
ENDROOT
BRANCH   1  14
ATOM     11  C   UNL     1      -0.943   6.031  -6.045  0.00  0.00    +0.048 A 
ATOM     12  C   UNL     1      -0.590   5.394  -7.226  0.00  0.00    +0.015 A 
ATOM     13  C   UNL     1       0.731   5.318  -7.649  0.00  0.00    +0.001 A 
ATOM     14  C   UNL     1       1.632   6.075  -6.917  0.00  0.00    +0.000 A 
ATOM     15  C   UNL     1       1.210   7.030  -6.019  0.00  0.00    +0.001 A 
ATOM     16  C   UNL     1      -0.097   7.038  -5.597  0.00  0.00    +0.015 A 
BRANCH  11  18
ATOM     17  C   UNL     1      -2.710   7.547  -5.245  0.00  0.00    +0.112 C 
ATOM     18  N   UNL     1      -2.342   6.293  -5.876  0.00  0.00    -0.304 N 
ATOM     19  C   UNL     1      -3.182   5.114  -5.691  0.00  0.00    +0.112 C 
ENDBRANCH  11  18
ENDBRANCH   1  14
BRANCH   1  20
ATOM     20  C   UNL     1       3.861   5.768  -5.798  0.00  0.00    +0.000 A 
ATOM     21  C   UNL     1       4.607   6.868  -5.393  0.00  0.00    +0.001 A 
ATOM     22  C   UNL     1       5.123   6.864  -4.102  0.00  0.00    +0.015 A 
ATOM     23  C   UNL     1       4.707   5.869  -3.225  0.00  0.00    +0.048 A 
ATOM     24  C   UNL     1       4.375   4.656  -3.805  0.00  0.00    +0.015 A 
ATOM     25  C   UNL     1       4.211   4.573  -5.182  0.00  0.00    +0.001 A 
BRANCH  23  26
ATOM     26  N   UNL     1       4.652   6.090  -1.813  0.00  0.00    -0.304 N 
ATOM     27  C   UNL     1       4.464   7.457  -1.333  0.00  0.00    +0.112 C 
ATOM     28  C   UNL     1       3.999   5.048  -1.025  0.00  0.00    +0.112 C 
ENDBRANCH  23  26
ENDBRANCH   1  20
TORSDOF 4
ENDMDL
MODEL 6
REMARK VINA RESULT:      -6.8      3.098      6.807
REMARK  Name = 
REMARK  4 active torsions:
REMARK  status: ('A' for Active; 'I' for Inactive)
REMARK    1  A    between atoms: N_2  and  C_4
REMARK    2  A    between atoms: C_7  and  C_8
REMARK    3  A    between atoms: C_8  and  C_9
REMARK    4  A    between atoms: C_12  and  N_13
REMARK                            x       y       z     vdW  Elec       q    Type
REMARK                         _______ _______ _______ _____ _____    ______ ____
ROOT
ATOM      1  C   UNL     1       3.275   6.447 -10.200  0.00  0.00    +0.000 C 
ATOM      2  C   UNL     1       2.761   6.279  -9.002  0.00  0.00    +0.000 C 
ATOM      3  C   UNL     1       3.587   6.404  -7.793  0.00  0.00    +0.006 C 
ATOM      4  C   UNL     1       3.214   5.875  -6.635  0.00  0.00    +0.069 C 
ATOM      5  C   UNL     1       1.806   5.564  -6.420  0.00  0.00    +0.222 C 
ATOM      6  N   UNL     1       1.221   5.821  -5.287  0.00  0.00    -0.177 N 
ATOM      7  C   UNL     1       0.664   7.167  -5.170  0.00  0.00    +0.403 C 
ATOM      8  C   UNL     1       1.505   5.057  -4.084  0.00  0.00    +0.403 C 
ATOM      9  C   UNL     1       1.032   5.234  -7.616  0.00  0.00    +0.069 C 
ATOM     10  C   UNL     1       1.453   5.644  -8.792  0.00  0.00    +0.006 C 
ENDROOT
BRANCH   1  14
ATOM     11  C   UNL     1       1.282   6.178 -13.822  0.00  0.00    +0.048 A 
ATOM     12  C   UNL     1       0.575   6.659 -12.728  0.00  0.00    +0.015 A 
ATOM     13  C   UNL     1       1.152   6.748 -11.468  0.00  0.00    +0.001 A 
ATOM     14  C   UNL     1       2.399   6.155 -11.342  0.00  0.00    +0.000 A 
ATOM     15  C   UNL     1       2.899   5.317 -12.313  0.00  0.00    +0.001 A 
ATOM     16  C   UNL     1       2.323   5.294 -13.559  0.00  0.00    +0.015 A 
BRANCH  11  18
ATOM     17  C   UNL     1      -0.103   6.974 -15.695  0.00  0.00    +0.112 C 
ATOM     18  N   UNL     1       0.496   5.864 -14.978  0.00  0.00    -0.304 N 
ATOM     19  C   UNL     1      -0.185   4.573 -14.939  0.00  0.00    +0.112 C 
ENDBRANCH  11  18
ENDBRANCH   1  14
BRANCH   1  20
ATOM     20  C   UNL     1       4.692   6.627 -10.431  0.00  0.00    +0.000 A 
ATOM     21  C   UNL     1       5.583   5.656  -9.991  0.00  0.00    +0.001 A 
ATOM     22  C   UNL     1       6.892   5.714 -10.457  0.00  0.00    +0.015 A 
ATOM     23  C   UNL     1       7.192   6.607 -11.479  0.00  0.00    +0.048 A 
ATOM     24  C   UNL     1       6.428   7.762 -11.513  0.00  0.00    +0.015 A 
ATOM     25  C   UNL     1       5.276   7.849 -10.742  0.00  0.00    +0.001 A 
BRANCH  23  26
ATOM     26  N   UNL     1       8.241   6.347 -12.416  0.00  0.00    -0.304 N 
ATOM     27  C   UNL     1       9.498   5.799 -11.913  0.00  0.00    +0.112 C 
ATOM     28  C   UNL     1       7.823   5.868 -13.731  0.00  0.00    +0.112 C 
ENDBRANCH  23  26
ENDBRANCH   1  20
TORSDOF 4
ENDMDL
MODEL 7
REMARK VINA RESULT:      -6.8      4.111      8.543
REMARK  Name = 
REMARK  4 active torsions:
REMARK  status: ('A' for Active; 'I' for Inactive)
REMARK    1  A    between atoms: N_2  and  C_4
REMARK    2  A    between atoms: C_7  and  C_8
REMARK    3  A    between atoms: C_8  and  C_9
REMARK    4  A    between atoms: C_12  and  N_13
REMARK                            x       y       z     vdW  Elec       q    Type
REMARK                         _______ _______ _______ _____ _____    ______ ____
ROOT
ATOM      1  C   UNL     1       2.985   9.077   0.302  0.00  0.00    +0.000 C 
ATOM      2  C   UNL     1       1.796   8.884   0.828  0.00  0.00    +0.000 C 
ATOM      3  C   UNL     1       1.022   7.669   0.537  0.00  0.00    +0.006 C 
ATOM      4  C   UNL     1      -0.292   7.618   0.723  0.00  0.00    +0.069 C 
ATOM      5  C   UNL     1      -0.917   8.576   1.627  0.00  0.00    +0.222 C 
ATOM      6  N   UNL     1      -1.847   8.213   2.461  0.00  0.00    -0.177 N 
ATOM      7  C   UNL     1      -1.363   7.721   3.750  0.00  0.00    +0.403 C 
ATOM      8  C   UNL     1      -3.184   7.861   2.015  0.00  0.00    +0.403 C 
ATOM      9  C   UNL     1      -0.247   9.870   1.753  0.00  0.00    +0.069 C 
ATOM     10  C   UNL     1       1.029   9.970   1.452  0.00  0.00    +0.006 C 
ENDROOT
BRANCH   1  14
ATOM     11  C   UNL     1       5.292  12.516   0.395  0.00  0.00    +0.048 A 
ATOM     12  C   UNL     1       5.224  11.751   1.551  0.00  0.00    +0.015 A 
ATOM     13  C   UNL     1       4.446  10.603   1.622  0.00  0.00    +0.001 A 
ATOM     14  C   UNL     1       3.608  10.386   0.539  0.00  0.00    +0.000 A 
ATOM     15  C   UNL     1       3.374  11.366  -0.399  0.00  0.00    +0.001 A 
ATOM     16  C   UNL     1       4.197  12.463  -0.459  0.00  0.00    +0.015 A 
BRANCH  11  18
ATOM     17  C   UNL     1       5.104  14.822   1.237  0.00  0.00    +0.112 C 
ATOM     18  N   UNL     1       5.883  13.813   0.544  0.00  0.00    -0.304 N 
ATOM     19  C   UNL     1       6.799  14.210  -0.521  0.00  0.00    +0.112 C 
ENDBRANCH  11  18
ENDBRANCH   1  14
BRANCH   1  20
ATOM     20  C   UNL     1       3.558   8.197  -0.695  0.00  0.00    +0.000 A 
ATOM     21  C   UNL     1       4.041   6.953  -0.308  0.00  0.00    +0.001 A 
ATOM     22  C   UNL     1       4.330   6.029  -1.306  0.00  0.00    +0.015 A 
ATOM     23  C   UNL     1       3.940   6.316  -2.609  0.00  0.00    +0.048 A 
ATOM     24  C   UNL     1       3.906   7.660  -2.945  0.00  0.00    +0.015 A 
ATOM     25  C   UNL     1       3.988   8.621  -1.945  0.00  0.00    +0.001 A 
BRANCH  23  26
ATOM     26  N   UNL     1       3.618   5.280  -3.540  0.00  0.00    -0.304 N 
ATOM     27  C   UNL     1       2.309   5.313  -4.187  0.00  0.00    +0.112 C 
ATOM     28  C   UNL     1       4.719   4.793  -4.366  0.00  0.00    +0.112 C 
ENDBRANCH  23  26
ENDBRANCH   1  20
TORSDOF 4
ENDMDL
MODEL 8
REMARK VINA RESULT:      -6.8      1.044      5.610
REMARK  Name = 
REMARK  4 active torsions:
REMARK  status: ('A' for Active; 'I' for Inactive)
REMARK    1  A    between atoms: N_2  and  C_4
REMARK    2  A    between atoms: C_7  and  C_8
REMARK    3  A    between atoms: C_8  and  C_9
REMARK    4  A    between atoms: C_12  and  N_13
REMARK                            x       y       z     vdW  Elec       q    Type
REMARK                         _______ _______ _______ _____ _____    ______ ____
ROOT
ATOM      1  C   UNL     1       2.419   6.257  -5.505  0.00  0.00    +0.000 C 
ATOM      2  C   UNL     1       2.974   6.462  -4.331  0.00  0.00    +0.000 C 
ATOM      3  C   UNL     1       2.160   6.594  -3.115  0.00  0.00    +0.006 C 
ATOM      4  C   UNL     1       2.634   7.171  -2.017  0.00  0.00    +0.069 C 
ATOM      5  C   UNL     1       4.077   7.273  -1.837  0.00  0.00    +0.222 C 
ATOM      6  N   UNL     1       4.633   7.041  -0.684  0.00  0.00    -0.177 N 
ATOM      7  C   UNL     1       4.971   5.642  -0.430  0.00  0.00    +0.403 C 
ATOM      8  C   UNL     1       4.495   7.958   0.434  0.00  0.00    +0.403 C 
ATOM      9  C   UNL     1       4.873   7.350  -3.061  0.00  0.00    +0.069 C 
ATOM     10  C   UNL     1       4.371   6.896  -4.189  0.00  0.00    +0.006 C 
ENDROOT
BRANCH   1  14
ATOM     11  C   UNL     1       4.345   5.869  -9.152  0.00  0.00    +0.048 A 
ATOM     12  C   UNL     1       4.966   5.333  -8.032  0.00  0.00    +0.015 A 
ATOM     13  C   UNL     1       4.411   5.449  -6.764  0.00  0.00    +0.001 A 
ATOM     14  C   UNL     1       3.311   6.287  -6.672  0.00  0.00    +0.000 A 
ATOM     15  C   UNL     1       2.966   7.140  -7.697  0.00  0.00    +0.001 A 
ATOM     16  C   UNL     1       3.508   6.960  -8.945  0.00  0.00    +0.015 A 
BRANCH  11  18
ATOM     17  C   UNL     1       4.573   5.429 -11.563  0.00  0.00    +0.112 C 
ATOM     18  N   UNL     1       5.152   5.938 -10.334  0.00  0.00    -0.304 N 
ATOM     19  C   UNL     1       6.592   5.840 -10.115  0.00  0.00    +0.112 C 
ENDBRANCH  11  18
ENDBRANCH   1  14
BRANCH   1  20
ATOM     20  C   UNL     1       0.988   6.285  -5.714  0.00  0.00    +0.000 A 
ATOM     21  C   UNL     1       0.388   5.277  -6.460  0.00  0.00    +0.001 A 
ATOM     22  C   UNL     1      -0.997   5.173  -6.418  0.00  0.00    +0.015 A 
ATOM     23  C   UNL     1      -1.692   5.942  -5.492  0.00  0.00    +0.048 A 
ATOM     24  C   UNL     1      -1.112   7.155  -5.161  0.00  0.00    +0.015 A 
ATOM     25  C   UNL     1       0.201   7.415  -5.533  0.00  0.00    +0.001 A 
BRANCH  23  26
ATOM     26  N   UNL     1      -2.937   5.505  -4.940  0.00  0.00    -0.304 N 
ATOM     27  C   UNL     1      -3.798   4.657  -5.760  0.00  0.00    +0.112 C 
ATOM     28  C   UNL     1      -2.938   5.212  -3.509  0.00  0.00    +0.112 C 
ENDBRANCH  23  26
ENDBRANCH   1  20
TORSDOF 4
ENDMDL
MODEL 9
REMARK VINA RESULT:      -6.8      3.331      5.609
REMARK  Name = 
REMARK  4 active torsions:
REMARK  status: ('A' for Active; 'I' for Inactive)
REMARK    1  A    between atoms: N_2  and  C_4
REMARK    2  A    between atoms: C_7  and  C_8
REMARK    3  A    between atoms: C_8  and  C_9
REMARK    4  A    between atoms: C_12  and  N_13
REMARK                            x       y       z     vdW  Elec       q    Type
REMARK                         _______ _______ _______ _____ _____    ______ ____
ROOT
ATOM      1  C   UNL     1       1.739   6.226  -9.181  0.00  0.00    +0.000 C 
ATOM      2  C   UNL     1       0.992   6.186  -8.099  0.00  0.00    +0.000 C 
ATOM      3  C   UNL     1       1.587   6.265  -6.758  0.00  0.00    +0.006 C 
ATOM      4  C   UNL     1       0.936   5.848  -5.679  0.00  0.00    +0.069 C 
ATOM      5  C   UNL     1      -0.516   5.732  -5.731  0.00  0.00    +0.222 C 
ATOM      6  N   UNL     1      -1.262   6.119  -4.738  0.00  0.00    -0.177 N 
ATOM      7  C   UNL     1      -1.643   7.530  -4.764  0.00  0.00    +0.403 C 
ATOM      8  C   UNL     1      -1.314   5.387  -3.484  0.00  0.00    +0.403 C 
ATOM      9  C   UNL     1      -1.092   5.445  -7.044  0.00  0.00    +0.069 C 
ATOM     10  C   UNL     1      -0.406   5.737  -8.128  0.00  0.00    +0.006 C 
ENDROOT
BRANCH   1  14
ATOM     11  C   UNL     1       0.598   5.546 -13.104  0.00  0.00    +0.048 A 
ATOM     12  C   UNL     1       0.208   6.740 -12.514  0.00  0.00    +0.015 A 
ATOM     13  C   UNL     1       0.514   7.037 -11.192  0.00  0.00    +0.001 A 
ATOM     14  C   UNL     1       1.060   5.993 -10.462  0.00  0.00    +0.000 A 
ATOM     15  C   UNL     1       1.047   4.699 -10.933  0.00  0.00    +0.001 A 
ATOM     16  C   UNL     1       0.782   4.458 -12.258  0.00  0.00    +0.015 A 
BRANCH  11  18
ATOM     17  C   UNL     1      -0.096   3.844 -14.741  0.00  0.00    +0.112 C 
ATOM     18  N   UNL     1      -0.025   5.241 -14.358  0.00  0.00    -0.304 N 
ATOM     19  C   UNL     1       0.103   6.269 -15.387  0.00  0.00    +0.112 C 
ENDBRANCH  11  18
ENDBRANCH   1  14
BRANCH   1  20
ATOM     20  C   UNL     1       3.185   6.210  -9.139  0.00  0.00    +0.000 A 
ATOM     21  C   UNL     1       3.835   5.236  -8.391  0.00  0.00    +0.001 A 
ATOM     22  C   UNL     1       5.203   5.073  -8.583  0.00  0.00    +0.015 A 
ATOM     23  C   UNL     1       5.808   5.743  -9.639  0.00  0.00    +0.048 A 
ATOM     24  C   UNL     1       5.232   6.952  -9.995  0.00  0.00    +0.015 A 
ATOM     25  C   UNL     1       3.981   7.292  -9.496  0.00  0.00    +0.001 A 
BRANCH  23  26
ATOM     26  N   UNL     1       6.965   5.217 -10.294  0.00  0.00    -0.304 N 
ATOM     27  C   UNL     1       7.071   5.373 -11.743  0.00  0.00    +0.112 C 
ATOM     28  C   UNL     1       8.221   5.311  -9.555  0.00  0.00    +0.112 C 
ENDBRANCH  23  26
ENDBRANCH   1  20
TORSDOF 4
ENDMDL
