MODEL 1
REMARK VINA RESULT:      -8.3      0.000      0.000
REMARK  Name = 
REMARK  1 active torsions:
REMARK  status: ('A' for Active; 'I' for Inactive)
REMARK    1  A    between atoms: C_5  and  C_6
REMARK                            x       y       z     vdW  Elec       q    Type
REMARK                         _______ _______ _______ _____ _____    ______ ____
ROOT
ATOM      1  C   UNL     1       4.114   6.783  -9.965  0.00  0.00    -0.001 C 
ATOM      2  C   UNL     1       3.281   6.362  -9.011  0.00  0.00    +0.012 C 
ATOM      3  C   UNL     1       3.111   7.258  -7.668  0.00  0.00    +0.026 C 
ATOM      4  C   UNL     1       3.127   5.959  -6.643  0.00  0.00    +0.010 C 
ATOM      5  C   UNL     1       2.289   5.020  -7.441  0.00  0.00    +0.055 C 
ATOM      6  C   UNL     1       1.104   5.852  -7.741  0.00  0.00    +0.008 C 
ATOM      7  C   UNL     1       2.081   3.746  -6.754  0.00  0.00    +0.008 C 
ATOM      8  C   UNL     1       2.521   6.429  -5.368  0.00  0.00    +0.001 C 
ATOM      9  C   UNL     1       4.573   5.586  -6.561  0.00  0.00    +0.001 C 
ATOM     10  C   UNL     1       1.461   7.273  -7.771  0.00  0.00    +0.005 C 
ATOM     11  C   UNL     1       3.162   4.997  -8.629  0.00  0.00    +0.168 C 
ATOM     12  O   UNL     1       3.954   4.063  -8.881  0.00  0.00    -0.292 OA
ENDROOT
BRANCH   1  17
ATOM     13  C   UNL     1       8.965   6.022 -12.230  0.00  0.00    +0.031 C 
ATOM     14  C   UNL     1       7.747   5.583 -11.541  0.00  0.00    -0.022 A 
ATOM     15  C   UNL     1       7.639   5.519 -10.157  0.00  0.00    -0.004 A 
ATOM     16  C   UNL     1       6.429   5.900  -9.580  0.00  0.00    -0.000 A 
ATOM     17  C   UNL     1       5.304   6.063 -10.380  0.00  0.00    -0.000 A 
ATOM     18  C   UNL     1       5.373   5.372 -11.587  0.00  0.00    -0.000 A 
ATOM     19  C   UNL     1       6.597   5.209 -12.226  0.00  0.00    -0.004 A 
ENDBRANCH   1  17
TORSDOF 1
ENDMDL
MODEL 2
REMARK VINA RESULT:      -8.0      2.845      4.413
REMARK  Name = 
REMARK  1 active torsions:
REMARK  status: ('A' for Active; 'I' for Inactive)
REMARK    1  A    between atoms: C_5  and  C_6
REMARK                            x       y       z     vdW  Elec       q    Type
REMARK                         _______ _______ _______ _____ _____    ______ ____
ROOT
ATOM      1  C   UNL     1      -0.025   5.234  -8.903  0.00  0.00    -0.001 C 
ATOM      2  C   UNL     1       1.040   5.207  -8.098  0.00  0.00    +0.012 C 
ATOM      3  C   UNL     1       1.142   6.295  -6.897  0.00  0.00    +0.026 C 
ATOM      4  C   UNL     1       2.750   6.600  -7.136  0.00  0.00    +0.010 C 
ATOM      5  C   UNL     1       3.219   5.208  -7.389  0.00  0.00    +0.055 C 
ATOM      6  C   UNL     1       2.653   4.483  -6.231  0.00  0.00    +0.008 C 
ATOM      7  C   UNL     1       4.663   5.142  -7.605  0.00  0.00    +0.008 C 
ATOM      8  C   UNL     1       3.246   7.221  -5.878  0.00  0.00    +0.001 C 
ATOM      9  C   UNL     1       2.771   7.491  -8.336  0.00  0.00    +0.001 C 
ATOM     10  C   UNL     1       1.436   5.143  -5.749  0.00  0.00    +0.005 C 
ATOM     11  C   UNL     1       2.361   4.962  -8.563  0.00  0.00    +0.168 C 
ATOM     12  O   UNL     1       2.777   5.019  -9.741  0.00  0.00    -0.292 OA
ENDROOT
BRANCH   1  17
ATOM     13  C   UNL     1       2.255   6.096 -13.730  0.00  0.00    +0.031 C 
ATOM     14  C   UNL     1       1.121   5.993 -12.806  0.00  0.00    -0.022 A 
ATOM     15  C   UNL     1       0.412   4.814 -12.603  0.00  0.00    -0.004 A 
ATOM     16  C   UNL     1      -0.007   4.522 -11.307  0.00  0.00    -0.000 A 
ATOM     17  C   UNL     1       0.042   5.508 -10.328  0.00  0.00    -0.000 A 
ATOM     18  C   UNL     1       0.048   6.803 -10.838  0.00  0.00    -0.000 A 
ATOM     19  C   UNL     1       0.676   7.070 -12.048  0.00  0.00    -0.004 A 
ENDBRANCH   1  17
TORSDOF 1
ENDMDL
MODEL 3
REMARK VINA RESULT:      -7.9      1.335      2.555
REMARK  Name = 
REMARK  1 active torsions:
REMARK  status: ('A' for Active; 'I' for Inactive)
REMARK    1  A    between atoms: C_5  and  C_6
REMARK                            x       y       z     vdW  Elec       q    Type
REMARK                         _______ _______ _______ _____ _____    ______ ____
ROOT
ATOM      1  C   UNL     1       4.016   4.666  -8.704  0.00  0.00    -0.001 C 
ATOM      2  C   UNL     1       3.345   4.922  -7.579  0.00  0.00    +0.012 C 
ATOM      3  C   UNL     1       1.732   5.101  -7.652  0.00  0.00    +0.026 C 
ATOM      4  C   UNL     1       1.700   6.396  -6.623  0.00  0.00    +0.010 C 
ATOM      5  C   UNL     1       2.701   5.928  -5.624  0.00  0.00    +0.055 C 
ATOM      6  C   UNL     1       2.199   4.575  -5.304  0.00  0.00    +0.008 C 
ATOM      7  C   UNL     1       2.871   6.878  -4.525  0.00  0.00    +0.008 C 
ATOM      8  C   UNL     1       0.302   6.497  -6.126  0.00  0.00    +0.001 C 
ATOM      9  C   UNL     1       2.157   7.539  -7.472  0.00  0.00    +0.001 C 
ATOM     10  C   UNL     1       1.461   4.013  -6.438  0.00  0.00    +0.005 C 
ATOM     11  C   UNL     1       3.825   5.802  -6.570  0.00  0.00    +0.168 C 
ATOM     12  O   UNL     1       4.737   6.651  -6.670  0.00  0.00    -0.292 OA
ENDROOT
BRANCH   1  17
ATOM     13  C   UNL     1       7.621   6.483 -12.301  0.00  0.00    +0.031 C 
ATOM     14  C   UNL     1       6.888   6.525 -11.032  0.00  0.00    -0.022 A 
ATOM     15  C   UNL     1       5.699   7.226 -10.865  0.00  0.00    -0.004 A 
ATOM     16  C   UNL     1       4.707   6.646 -10.078  0.00  0.00    -0.000 A 
ATOM     17  C   UNL     1       5.013   5.553  -9.275  0.00  0.00    -0.000 A 
ATOM     18  C   UNL     1       6.367   5.446  -8.971  0.00  0.00    -0.000 A 
ATOM     19  C   UNL     1       7.321   5.850  -9.897  0.00  0.00    -0.004 A 
ENDBRANCH   1  17
TORSDOF 1
ENDMDL
MODEL 4
REMARK VINA RESULT:      -7.8      3.169      7.514
REMARK  Name = 
REMARK  1 active torsions:
REMARK  status: ('A' for Active; 'I' for Inactive)
REMARK    1  A    between atoms: C_5  and  C_6
REMARK                            x       y       z     vdW  Elec       q    Type
REMARK                         _______ _______ _______ _____ _____    ______ ____
ROOT
ATOM      1  C   UNL     1       0.742   7.013  -5.657  0.00  0.00    -0.001 C 
ATOM      2  C   UNL     1       1.510   6.509  -6.625  0.00  0.00    +0.012 C 
ATOM      3  C   UNL     1       1.489   7.212  -8.088  0.00  0.00    +0.026 C 
ATOM      4  C   UNL     1       1.471   5.780  -8.918  0.00  0.00    +0.010 C 
ATOM      5  C   UNL     1       2.445   5.016  -8.090  0.00  0.00    +0.055 C 
ATOM      6  C   UNL     1       3.590   5.950  -8.029  0.00  0.00    +0.008 C 
ATOM      7  C   UNL     1       2.680   3.671  -8.613  0.00  0.00    +0.008 C 
ATOM      8  C   UNL     1       1.919   6.097 -10.301  0.00  0.00    +0.001 C 
ATOM      9  C   UNL     1       0.054   5.315  -8.799  0.00  0.00    +0.001 C 
ATOM     10  C   UNL     1       3.135   7.338  -8.158  0.00  0.00    +0.005 C 
ATOM     11  C   UNL     1       1.692   5.113  -6.826  0.00  0.00    +0.168 C 
ATOM     12  O   UNL     1       0.996   4.180  -6.369  0.00  0.00    -0.292 OA
ENDROOT
BRANCH   1  17
ATOM     13  C   UNL     1      -3.686   6.275  -2.642  0.00  0.00    +0.031 C 
ATOM     14  C   UNL     1      -2.573   5.824  -3.483  0.00  0.00    -0.022 A 
ATOM     15  C   UNL     1      -2.672   5.682  -4.863  0.00  0.00    -0.004 A 
ATOM     16  C   UNL     1      -1.576   6.056  -5.636  0.00  0.00    -0.000 A 
ATOM     17  C   UNL     1      -0.349   6.291  -5.026  0.00  0.00    -0.000 A 
ATOM     18  C   UNL     1      -0.214   5.671  -3.787  0.00  0.00    -0.000 A 
ATOM     19  C   UNL     1      -1.322   5.518  -2.962  0.00  0.00    -0.004 A 
ENDBRANCH   1  17
TORSDOF 1
ENDMDL
MODEL 5
REMARK VINA RESULT:      -7.8      2.916      5.797
REMARK  Name = 
REMARK  1 active torsions:
REMARK  status: ('A' for Active; 'I' for Inactive)
REMARK    1  A    between atoms: C_5  and  C_6
REMARK                            x       y       z     vdW  Elec       q    Type
REMARK                         _______ _______ _______ _____ _____    ______ ____
ROOT
ATOM      1  C   UNL     1       4.700   5.478  -6.319  0.00  0.00    -0.001 C 
ATOM      2  C   UNL     1       3.645   5.321  -7.121  0.00  0.00    +0.012 C 
ATOM      3  C   UNL     1       3.538   6.231  -8.462  0.00  0.00    +0.026 C 
ATOM      4  C   UNL     1       1.922   6.539  -8.280  0.00  0.00    +0.010 C 
ATOM      5  C   UNL     1       1.473   5.188  -7.840  0.00  0.00    +0.055 C 
ATOM      6  C   UNL     1       2.062   4.319  -8.882  0.00  0.00    +0.008 C 
ATOM      7  C   UNL     1       0.027   5.128  -7.628  0.00  0.00    +0.008 C 
ATOM      8  C   UNL     1       1.430   6.972  -9.615  0.00  0.00    +0.001 C 
ATOM      9  C   UNL     1       1.876   7.587  -7.215  0.00  0.00    +0.001 C 
ATOM     10  C   UNL     1       3.273   4.926  -9.441  0.00  0.00    +0.005 C 
ATOM     11  C   UNL     1       2.323   5.121  -6.636  0.00  0.00    +0.168 C 
ATOM     12  O   UNL     1       1.894   5.333  -5.482  0.00  0.00    -0.292 OA
ENDROOT
BRANCH   1  17
ATOM     13  C   UNL     1       2.372   6.813  -1.625  0.00  0.00    +0.031 C 
ATOM     14  C   UNL     1       3.507   6.681  -2.544  0.00  0.00    -0.022 A 
ATOM     15  C   UNL     1       4.318   5.552  -2.590  0.00  0.00    -0.004 A 
ATOM     16  C   UNL     1       4.757   5.117  -3.838  0.00  0.00    -0.000 A 
ATOM     17  C   UNL     1       4.615   5.944  -4.947  0.00  0.00    -0.000 A 
ATOM     18  C   UNL     1       4.495   7.293  -4.625  0.00  0.00    -0.000 A 
ATOM     19  C   UNL     1       3.850   7.673  -3.454  0.00  0.00    -0.004 A 
ENDBRANCH   1  17
TORSDOF 1
ENDMDL
MODEL 6
REMARK VINA RESULT:      -7.6      4.175      8.078
REMARK  Name = 
REMARK  1 active torsions:
REMARK  status: ('A' for Active; 'I' for Inactive)
REMARK    1  A    between atoms: C_5  and  C_6
REMARK                            x       y       z     vdW  Elec       q    Type
REMARK                         _______ _______ _______ _____ _____    ______ ____
ROOT
ATOM      1  C   UNL     1      -1.810   6.221  -6.078  0.00  0.00    -0.001 C 
ATOM      2  C   UNL     1      -0.580   6.238  -6.596  0.00  0.00    +0.012 C 
ATOM      3  C   UNL     1      -0.029   4.909  -7.349  0.00  0.00    +0.026 C 
ATOM      4  C   UNL     1       1.481   4.998  -6.679  0.00  0.00    +0.010 C 
ATOM      5  C   UNL     1       1.692   6.470  -6.770  0.00  0.00    +0.055 C 
ATOM      6  C   UNL     1       1.375   6.734  -8.190  0.00  0.00    +0.008 C 
ATOM      7  C   UNL     1       3.007   6.872  -6.271  0.00  0.00    +0.008 C 
ATOM      8  C   UNL     1       2.367   4.171  -7.541  0.00  0.00    +0.001 C 
ATOM      9  C   UNL     1       1.286   4.483  -5.288  0.00  0.00    +0.001 C 
ATOM     10  C   UNL     1       0.421   5.746  -8.701  0.00  0.00    +0.005 C 
ATOM     11  C   UNL     1       0.528   6.850  -5.949  0.00  0.00    +0.168 C 
ATOM     12  O   UNL     1       0.617   7.193  -4.750  0.00  0.00    -0.292 OA
ENDROOT
BRANCH   1  17
ATOM     13  C   UNL     1      -0.783   6.804  -0.801  0.00  0.00    +0.031 C 
ATOM     14  C   UNL     1      -1.660   6.613  -1.961  0.00  0.00    -0.022 A 
ATOM     15  C   UNL     1      -2.251   7.668  -2.647  0.00  0.00    -0.004 A 
ATOM     16  C   UNL     1      -2.337   7.575  -4.034  0.00  0.00    -0.000 A 
ATOM     17  C   UNL     1      -2.097   6.358  -4.661  0.00  0.00    -0.000 A 
ATOM     18  C   UNL     1      -2.265   5.257  -3.825  0.00  0.00    -0.000 A 
ATOM     19  C   UNL     1      -1.955   5.356  -2.474  0.00  0.00    -0.004 A 
ENDBRANCH   1  17
TORSDOF 1
ENDMDL
MODEL 7
REMARK VINA RESULT:      -7.5      4.557      6.197
REMARK  Name = 
REMARK  1 active torsions:
REMARK  status: ('A' for Active; 'I' for Inactive)
REMARK    1  A    between atoms: C_5  and  C_6
REMARK                            x       y       z     vdW  Elec       q    Type
REMARK                         _______ _______ _______ _____ _____    ______ ____
ROOT
ATOM      1  C   UNL     1       0.734   4.743  -6.104  0.00  0.00    -0.001 C 
ATOM      2  C   UNL     1      -0.321   5.170  -5.407  0.00  0.00    +0.012 C 
ATOM      3  C   UNL     1      -1.478   6.014  -6.173  0.00  0.00    +0.026 C 
ATOM      4  C   UNL     1      -1.658   7.120  -4.956  0.00  0.00    +0.010 C 
ATOM      5  C   UNL     1      -1.572   6.200  -3.787  0.00  0.00    +0.055 C 
ATOM      6  C   UNL     1      -2.562   5.162  -4.146  0.00  0.00    +0.008 C 
ATOM      7  C   UNL     1      -1.742   6.904  -2.516  0.00  0.00    +0.008 C 
ATOM      8  C   UNL     1      -2.984   7.759  -5.169  0.00  0.00    +0.001 C 
ATOM      9  C   UNL     1      -0.481   8.027  -5.120  0.00  0.00    +0.001 C 
ATOM     10  C   UNL     1      -2.693   5.050  -5.602  0.00  0.00    +0.005 C 
ATOM     11  C   UNL     1      -0.222   5.687  -4.085  0.00  0.00    +0.168 C 
ATOM     12  O   UNL     1       0.807   6.081  -3.496  0.00  0.00    -0.292 OA
ENDROOT
BRANCH   1  17
ATOM     13  C   UNL     1       4.839   7.104  -3.495  0.00  0.00    +0.031 C 
ATOM     14  C   UNL     1       4.231   6.379  -4.615  0.00  0.00    -0.022 A 
ATOM     15  C   UNL     1       4.199   4.991  -4.693  0.00  0.00    -0.004 A 
ATOM     16  C   UNL     1       3.047   4.395  -5.201  0.00  0.00    -0.000 A 
ATOM     17  C   UNL     1       2.099   5.172  -5.857  0.00  0.00    -0.000 A 
ATOM     18  C   UNL     1       2.607   6.366  -6.360  0.00  0.00    -0.000 A 
ATOM     19  C   UNL     1       3.623   7.029  -5.682  0.00  0.00    -0.004 A 
ENDBRANCH   1  17
TORSDOF 1
ENDMDL
MODEL 8
REMARK VINA RESULT:      -7.5      2.953      7.224
REMARK  Name = 
REMARK  1 active torsions:
REMARK  status: ('A' for Active; 'I' for Inactive)
REMARK    1  A    between atoms: C_5  and  C_6
REMARK                            x       y       z     vdW  Elec       q    Type
REMARK                         _______ _______ _______ _____ _____    ______ ____
ROOT
ATOM      1  C   UNL     1       0.796   4.880  -6.199  0.00  0.00    -0.001 C 
ATOM      2  C   UNL     1       1.391   4.985  -7.389  0.00  0.00    +0.012 C 
ATOM      3  C   UNL     1       2.947   5.446  -7.449  0.00  0.00    +0.026 C 
ATOM      4  C   UNL     1       2.731   6.462  -8.737  0.00  0.00    +0.010 C 
ATOM      5  C   UNL     1       1.812   5.618  -9.551  0.00  0.00    +0.055 C 
ATOM      6  C   UNL     1       2.540   4.332  -9.594  0.00  0.00    +0.008 C 
ATOM      7  C   UNL     1       1.456   6.252 -10.820  0.00  0.00    +0.008 C 
ATOM      8  C   UNL     1       4.080   6.683  -9.323  0.00  0.00    +0.001 C 
ATOM      9  C   UNL     1       2.093   7.673  -8.134  0.00  0.00    +0.001 C 
ATOM     10  C   UNL     1       3.386   4.174  -8.408  0.00  0.00    +0.005 C 
ATOM     11  C   UNL     1       0.745   5.520  -8.537  0.00  0.00    +0.168 C 
ATOM     12  O   UNL     1      -0.301   6.204  -8.574  0.00  0.00    -0.292 OA
ENDROOT
BRANCH   1  17
ATOM     13  C   UNL     1      -2.970   6.874  -2.870  0.00  0.00    +0.031 C 
ATOM     14  C   UNL     1      -2.300   6.726  -4.166  0.00  0.00    -0.022 A 
ATOM     15  C   UNL     1      -1.272   7.561  -4.589  0.00  0.00    -0.004 A 
ATOM     16  C   UNL     1      -0.214   6.988  -5.290  0.00  0.00    -0.000 A 
ATOM     17  C   UNL     1      -0.333   5.692  -5.780  0.00  0.00    -0.000 A 
ATOM     18  C   UNL     1      -1.651   5.275  -5.942  0.00  0.00    -0.000 A 
ATOM     19  C   UNL     1      -2.634   5.723  -5.068  0.00  0.00    -0.004 A 
ENDBRANCH   1  17
TORSDOF 1
ENDMDL
MODEL 9
REMARK VINA RESULT:      -7.4      3.893      5.673
REMARK  Name = 
REMARK  1 active torsions:
REMARK  status: ('A' for Active; 'I' for Inactive)
REMARK    1  A    between atoms: C_5  and  C_6
REMARK                            x       y       z     vdW  Elec       q    Type
REMARK                         _______ _______ _______ _____ _____    ______ ____
ROOT
ATOM      1  C   UNL     1       0.781   6.593  -4.692  0.00  0.00    -0.001 C 
ATOM      2  C   UNL     1       1.890   6.207  -4.057  0.00  0.00    +0.012 C 
ATOM      3  C   UNL     1       2.772   7.323  -3.273  0.00  0.00    +0.026 C 
ATOM      4  C   UNL     1       4.225   6.727  -3.794  0.00  0.00    +0.010 C 
ATOM      5  C   UNL     1       3.943   5.270  -3.662  0.00  0.00    +0.055 C 
ATOM      6  C   UNL     1       3.436   5.184  -2.276  0.00  0.00    +0.008 C 
ATOM      7  C   UNL     1       5.097   4.449  -4.027  0.00  0.00    +0.008 C 
ATOM      8  C   UNL     1       5.252   7.265  -2.861  0.00  0.00    +0.001 C 
ATOM      9  C   UNL     1       4.327   7.217  -5.203  0.00  0.00    +0.001 C 
ATOM     10  C   UNL     1       2.810   6.446  -1.872  0.00  0.00    +0.005 C 
ATOM     11  C   UNL     1       2.794   5.246  -4.587  0.00  0.00    +0.168 C 
ATOM     12  O   UNL     1       2.871   4.840  -5.766  0.00  0.00    -0.292 OA
ENDROOT
BRANCH   1  17
ATOM     13  C   UNL     1       1.578   4.799  -9.730  0.00  0.00    +0.031 C 
ATOM     14  C   UNL     1       0.960   5.664  -8.720  0.00  0.00    -0.022 A 
ATOM     15  C   UNL     1      -0.235   5.352  -8.081  0.00  0.00    -0.004 A 
ATOM     16  C   UNL     1      -0.347   5.658  -6.727  0.00  0.00    -0.000 A 
ATOM     17  C   UNL     1       0.590   6.492  -6.128  0.00  0.00    -0.000 A 
ATOM     18  C   UNL     1       1.261   7.315  -7.028  0.00  0.00    -0.000 A 
ATOM     19  C   UNL     1       1.534   6.862  -8.313  0.00  0.00    -0.004 A 
ENDBRANCH   1  17
TORSDOF 1
ENDMDL
