MODEL 1
REMARK VINA RESULT:      -7.9      0.000      0.000
REMARK  Name = 
REMARK  2 active torsions:
REMARK  status: ('A' for Active; 'I' for Inactive)
REMARK    1  A    between atoms: N_3  and  C_4
REMARK    2  A    between atoms: N_11  and  C_12
REMARK                            x       y       z     vdW  Elec       q    Type
REMARK                         _______ _______ _______ _____ _____    ______ ____
ROOT
ATOM      1  O   UNL     1       1.797   6.047  -9.108  0.00  0.00    -0.248 OA
ATOM      2  C   UNL     1       2.079   4.919  -8.604  0.00  0.00    +0.348 C 
ATOM      3  N   UNL     1       3.348   4.384  -8.923  0.00  0.00    -0.161 NA
ATOM      4  N   UNL     1       1.365   4.596  -7.405  0.00  0.00    -0.161 NA
ENDROOT
BRANCH   3   5
ATOM      5  C   UNL     1       4.385   5.159  -9.536  0.00  0.00    +0.076 A 
ATOM      6  C   UNL     1       4.430   5.370 -10.905  0.00  0.00    +0.029 A 
ATOM      7  C   UNL     1       5.622   5.685 -11.514  0.00  0.00    +0.069 A 
ATOM      8 CL   UNL     1       5.672   5.887 -13.248  0.00  0.00    -0.081 Cl
ATOM      9  C   UNL     1       6.819   5.726 -10.811  0.00  0.00    +0.068 A 
ATOM     10 CL   UNL     1       8.305   5.212 -11.600  0.00  0.00    -0.081 Cl
ATOM     11  C   UNL     1       6.692   5.736  -9.427  0.00  0.00    +0.014 A 
ATOM     12  C   UNL     1       5.464   5.565  -8.801  0.00  0.00    +0.018 A 
ENDBRANCH   3   5
BRANCH   4  13
ATOM     13  C   UNL     1       0.409   5.504  -6.842  0.00  0.00    +0.075 A 
ATOM     14  C   UNL     1       0.621   5.985  -5.564  0.00  0.00    +0.018 A 
ATOM     15  C   UNL     1      -0.449   6.240  -4.714  0.00  0.00    +0.013 A 
ATOM     16  C   UNL     1      -1.725   5.796  -5.021  0.00  0.00    +0.058 A 
ATOM     17 CL   UNL     1      -2.791   5.339  -3.724  0.00  0.00    -0.082 Cl
ATOM     18  C   UNL     1      -1.970   5.524  -6.350  0.00  0.00    +0.013 A 
ATOM     19  C   UNL     1      -0.911   5.314  -7.224  0.00  0.00    +0.018 A 
ENDBRANCH   4  13
TORSDOF 2
ENDMDL
MODEL 2
REMARK VINA RESULT:      -7.7      1.723      8.139
REMARK  Name = 
REMARK  2 active torsions:
REMARK  status: ('A' for Active; 'I' for Inactive)
REMARK    1  A    between atoms: N_3  and  C_4
REMARK    2  A    between atoms: N_11  and  C_12
REMARK                            x       y       z     vdW  Elec       q    Type
REMARK                         _______ _______ _______ _____ _____    ______ ____
ROOT
ATOM      1  O   UNL     1       2.924   4.981  -9.197  0.00  0.00    -0.248 OA
ATOM      2  C   UNL     1       3.017   6.238  -9.334  0.00  0.00    +0.348 C 
ATOM      3  N   UNL     1       2.202   7.027  -8.490  0.00  0.00    -0.161 NA
ATOM      4  N   UNL     1       4.255   6.697  -9.889  0.00  0.00    -0.161 NA
ENDROOT
BRANCH   3   5
ATOM      5  C   UNL     1       1.518   6.492  -7.351  0.00  0.00    +0.076 A 
ATOM      6  C   UNL     1       0.234   5.978  -7.442  0.00  0.00    +0.029 A 
ATOM      7  C   UNL     1      -0.562   5.915  -6.322  0.00  0.00    +0.069 A 
ATOM      8 CL   UNL     1      -2.199   5.322  -6.467  0.00  0.00    -0.081 Cl
ATOM      9  C   UNL     1      -0.153   6.426  -5.098  0.00  0.00    +0.068 A 
ATOM     10 CL   UNL     1      -1.337   7.171  -4.031  0.00  0.00    -0.081 Cl
ATOM     11  C   UNL     1       1.203   6.715  -5.001  0.00  0.00    +0.014 A 
ATOM     12  C   UNL     1       2.050   6.639  -6.099  0.00  0.00    +0.018 A 
ENDBRANCH   3   5
BRANCH   4  13
ATOM     13  C   UNL     1       5.292   5.776 -10.254  0.00  0.00    +0.075 A 
ATOM     14  C   UNL     1       6.462   5.767  -9.518  0.00  0.00    +0.018 A 
ATOM     15  C   UNL     1       7.683   5.501 -10.127  0.00  0.00    +0.013 A 
ATOM     16  C   UNL     1       7.801   5.482 -11.508  0.00  0.00    +0.058 A 
ATOM     17 CL   UNL     1       9.296   6.002 -12.231  0.00  0.00    -0.082 Cl
ATOM     18  C   UNL     1       6.636   5.274 -12.215  0.00  0.00    +0.013 A 
ATOM     19  C   UNL     1       5.406   5.490 -11.606  0.00  0.00    +0.018 A 
ENDBRANCH   4  13
TORSDOF 2
ENDMDL
MODEL 3
REMARK VINA RESULT:      -7.7      1.359      8.340
REMARK  Name = 
REMARK  2 active torsions:
REMARK  status: ('A' for Active; 'I' for Inactive)
REMARK    1  A    between atoms: N_3  and  C_4
REMARK    2  A    between atoms: N_11  and  C_12
REMARK                            x       y       z     vdW  Elec       q    Type
REMARK                         _______ _______ _______ _____ _____    ______ ____
ROOT
ATOM      1  O   UNL     1       3.086   6.032  -6.387  0.00  0.00    -0.248 OA
ATOM      2  C   UNL     1       2.732   5.016  -7.058  0.00  0.00    +0.348 C 
ATOM      3  N   UNL     1       1.442   4.503  -6.793  0.00  0.00    -0.161 NA
ATOM      4  N   UNL     1       3.403   4.856  -8.314  0.00  0.00    -0.161 NA
ENDROOT
BRANCH   3   5
ATOM      5  C   UNL     1       0.462   5.220  -6.034  0.00  0.00    +0.076 A 
ATOM      6  C   UNL     1       0.527   5.309  -4.652  0.00  0.00    +0.029 A 
ATOM      7  C   UNL     1      -0.611   5.569  -3.926  0.00  0.00    +0.069 A 
ATOM      8 CL   UNL     1      -0.522   5.617  -2.182  0.00  0.00    -0.081 Cl
ATOM      9  C   UNL     1      -1.860   5.671  -4.524  0.00  0.00    +0.068 A 
ATOM     10 CL   UNL     1      -3.281   5.088  -3.667  0.00  0.00    -0.081 Cl
ATOM     11  C   UNL     1      -1.843   5.802  -5.908  0.00  0.00    +0.014 A 
ATOM     12  C   UNL     1      -0.670   5.688  -6.642  0.00  0.00    +0.018 A 
ENDBRANCH   3   5
BRANCH   4  13
ATOM     13  C   UNL     1       4.397   5.794  -8.750  0.00  0.00    +0.075 A 
ATOM     14  C   UNL     1       4.091   6.651  -9.791  0.00  0.00    +0.018 A 
ATOM     15  C   UNL     1       5.067   7.042 -10.699  0.00  0.00    +0.013 A 
ATOM     16  C   UNL     1       6.297   6.405 -10.742  0.00  0.00    +0.058 A 
ATOM     17 CL   UNL     1       7.113   6.253 -12.271  0.00  0.00    -0.082 Cl
ATOM     18  C   UNL     1       6.671   5.729  -9.600  0.00  0.00    +0.013 A 
ATOM     19  C   UNL     1       5.714   5.372  -8.658  0.00  0.00    +0.018 A 
ENDBRANCH   4  13
TORSDOF 2
ENDMDL
MODEL 4
REMARK VINA RESULT:      -7.5      1.612      2.515
REMARK  Name = 
REMARK  2 active torsions:
REMARK  status: ('A' for Active; 'I' for Inactive)
REMARK    1  A    between atoms: N_3  and  C_4
REMARK    2  A    between atoms: N_11  and  C_12
REMARK                            x       y       z     vdW  Elec       q    Type
REMARK                         _______ _______ _______ _____ _____    ______ ____
ROOT
ATOM      1  O   UNL     1       3.844   5.428  -8.241  0.00  0.00    -0.248 OA
ATOM      2  C   UNL     1       3.497   6.577  -8.649  0.00  0.00    +0.348 C 
ATOM      3  N   UNL     1       4.110   7.037  -9.837  0.00  0.00    -0.161 NA
ATOM      4  N   UNL     1       2.206   7.013  -8.207  0.00  0.00    -0.161 NA
ENDROOT
BRANCH   3   5
ATOM      5  C   UNL     1       4.859   6.179 -10.706  0.00  0.00    +0.076 A 
ATOM      6  C   UNL     1       6.245   6.149 -10.688  0.00  0.00    +0.029 A 
ATOM      7  C   UNL     1       6.937   5.711 -11.793  0.00  0.00    +0.069 A 
ATOM      8 CL   UNL     1       8.684   5.738 -11.776  0.00  0.00    -0.081 Cl
ATOM      9  C   UNL     1       6.295   5.365 -12.975  0.00  0.00    +0.068 A 
ATOM     10 CL   UNL     1       7.072   5.708 -14.515  0.00  0.00    -0.081 Cl
ATOM     11  C   UNL     1       4.920   5.193 -12.872  0.00  0.00    +0.014 A 
ATOM     12  C   UNL     1       4.227   5.494 -11.706  0.00  0.00    +0.018 A 
ENDBRANCH   3   5
BRANCH   4  13
ATOM     13  C   UNL     1       1.391   6.186  -7.365  0.00  0.00    +0.075 A 
ATOM     14  C   UNL     1       0.283   5.567  -7.913  0.00  0.00    +0.018 A 
ATOM     15  C   UNL     1      -0.868   5.374  -7.158  0.00  0.00    +0.013 A 
ATOM     16  C   UNL     1      -1.032   6.003  -5.935  0.00  0.00    +0.058 A 
ATOM     17 CL   UNL     1      -2.633   6.471  -5.438  0.00  0.00    -0.082 Cl
ATOM     18  C   UNL     1       0.122   6.422  -5.308  0.00  0.00    +0.013 A 
ATOM     19  C   UNL     1       1.293   6.575  -6.038  0.00  0.00    +0.018 A 
ENDBRANCH   4  13
TORSDOF 2
ENDMDL
MODEL 5
REMARK VINA RESULT:      -7.5      1.584      7.757
REMARK  Name = 
REMARK  2 active torsions:
REMARK  status: ('A' for Active; 'I' for Inactive)
REMARK    1  A    between atoms: N_3  and  C_4
REMARK    2  A    between atoms: N_11  and  C_12
REMARK                            x       y       z     vdW  Elec       q    Type
REMARK                         _______ _______ _______ _____ _____    ______ ____
ROOT
ATOM      1  O   UNL     1       2.813   6.378  -6.896  0.00  0.00    -0.248 OA
ATOM      2  C   UNL     1       3.048   5.133  -6.929  0.00  0.00    +0.348 C 
ATOM      3  N   UNL     1       2.250   4.318  -6.093  0.00  0.00    -0.161 NA
ATOM      4  N   UNL     1       3.661   4.664  -8.136  0.00  0.00    -0.161 NA
ENDROOT
BRANCH   3   5
ATOM      5  C   UNL     1       1.061   4.793  -5.453  0.00  0.00    +0.076 A 
ATOM      6  C   UNL     1      -0.147   4.887  -6.128  0.00  0.00    +0.029 A 
ATOM      7  C   UNL     1      -1.119   5.750  -5.680  0.00  0.00    +0.069 A 
ATOM      8 CL   UNL     1      -2.610   5.901  -6.577  0.00  0.00    -0.081 Cl
ATOM      9  C   UNL     1      -0.908   6.604  -4.605  0.00  0.00    +0.068 A 
ATOM     10 CL   UNL     1      -1.641   8.203  -4.613  0.00  0.00    -0.081 Cl
ATOM     11  C   UNL     1       0.210   6.315  -3.832  0.00  0.00    +0.014 A 
ATOM     12  C   UNL     1       1.126   5.338  -4.201  0.00  0.00    +0.018 A 
ENDBRANCH   3   5
BRANCH   4  13
ATOM     13  C   UNL     1       3.975   5.563  -9.208  0.00  0.00    +0.075 A 
ATOM     14  C   UNL     1       3.085   5.679 -10.259  0.00  0.00    +0.018 A 
ATOM     15  C   UNL     1       3.539   5.905 -11.554  0.00  0.00    +0.013 A 
ATOM     16  C   UNL     1       4.882   5.776 -11.869  0.00  0.00    +0.058 A 
ATOM     17 CL   UNL     1       5.322   5.214 -13.457  0.00  0.00    -0.082 Cl
ATOM     18  C   UNL     1       5.767   5.878 -10.817  0.00  0.00    +0.013 A 
ATOM     19  C   UNL     1       5.320   5.702  -9.514  0.00  0.00    +0.018 A 
ENDBRANCH   4  13
TORSDOF 2
ENDMDL
MODEL 6
REMARK VINA RESULT:      -7.4      1.829      8.340
REMARK  Name = 
REMARK  2 active torsions:
REMARK  status: ('A' for Active; 'I' for Inactive)
REMARK    1  A    between atoms: N_3  and  C_4
REMARK    2  A    between atoms: N_11  and  C_12
REMARK                            x       y       z     vdW  Elec       q    Type
REMARK                         _______ _______ _______ _____ _____    ______ ____
ROOT
ATOM      1  O   UNL     1       1.204   5.219  -7.381  0.00  0.00    -0.248 OA
ATOM      2  C   UNL     1       1.434   6.438  -7.119  0.00  0.00    +0.348 C 
ATOM      3  N   UNL     1       0.851   6.950  -5.938  0.00  0.00    -0.161 NA
ATOM      4  N   UNL     1       2.629   6.968  -7.704  0.00  0.00    -0.161 NA
ENDROOT
BRANCH   3   5
ATOM      5  C   UNL     1       0.272   6.112  -4.931  0.00  0.00    +0.076 A 
ATOM      6  C   UNL     1      -1.100   5.956  -4.808  0.00  0.00    +0.029 A 
ATOM      7  C   UNL     1      -1.642   5.561  -3.607  0.00  0.00    +0.069 A 
ATOM      8 CL   UNL     1      -3.377   5.429  -3.452  0.00  0.00    -0.081 Cl
ATOM      9  C   UNL     1      -0.864   5.382  -2.471  0.00  0.00    +0.068 A 
ATOM     10 CL   UNL     1      -1.526   5.793  -0.894  0.00  0.00    -0.081 Cl
ATOM     11  C   UNL     1       0.506   5.325  -2.696  0.00  0.00    +0.014 A 
ATOM     12  C   UNL     1       1.057   5.580  -3.946  0.00  0.00    +0.018 A 
ENDBRANCH   3   5
BRANCH   4  13
ATOM     13  C   UNL     1       3.482   6.153  -8.521  0.00  0.00    +0.075 A 
ATOM     14  C   UNL     1       4.538   5.490  -7.924  0.00  0.00    +0.018 A 
ATOM     15  C   UNL     1       5.733   5.298  -8.608  0.00  0.00    +0.013 A 
ATOM     16  C   UNL     1       5.991   5.967  -9.794  0.00  0.00    +0.058 A 
ATOM     17 CL   UNL     1       7.630   6.416 -10.166  0.00  0.00    -0.082 Cl
ATOM     18  C   UNL     1       4.890   6.435 -10.479  0.00  0.00    +0.013 A 
ATOM     19  C   UNL     1       3.676   6.589  -9.823  0.00  0.00    +0.018 A 
ENDBRANCH   4  13
TORSDOF 2
ENDMDL
MODEL 7
REMARK VINA RESULT:      -7.3      3.262      3.771
REMARK  Name = 
REMARK  2 active torsions:
REMARK  status: ('A' for Active; 'I' for Inactive)
REMARK    1  A    between atoms: N_3  and  C_4
REMARK    2  A    between atoms: N_11  and  C_12
REMARK                            x       y       z     vdW  Elec       q    Type
REMARK                         _______ _______ _______ _____ _____    ______ ____
ROOT
ATOM      1  O   UNL     1       3.564   6.609  -7.800  0.00  0.00    -0.248 OA
ATOM      2  C   UNL     1       4.210   5.592  -7.406  0.00  0.00    +0.348 C 
ATOM      3  N   UNL     1       5.048   4.968  -8.358  0.00  0.00    -0.161 NA
ATOM      4  N   UNL     1       4.437   5.530  -5.993  0.00  0.00    -0.161 NA
ENDROOT
BRANCH   3   5
ATOM      5  C   UNL     1       5.391   5.578  -9.607  0.00  0.00    +0.076 A 
ATOM      6  C   UNL     1       4.696   5.299 -10.774  0.00  0.00    +0.029 A 
ATOM      7  C   UNL     1       5.296   5.498 -11.996  0.00  0.00    +0.069 A 
ATOM      8 CL   UNL     1       4.429   5.083 -13.454  0.00  0.00    -0.081 Cl
ATOM      9  C   UNL     1       6.621   5.900 -12.109  0.00  0.00    +0.068 A 
ATOM     10 CL   UNL     1       7.600   5.292 -13.438  0.00  0.00    -0.081 Cl
ATOM     11  C   UNL     1       7.195   6.381 -10.938  0.00  0.00    +0.014 A 
ATOM     12  C   UNL     1       6.534   6.320  -9.718  0.00  0.00    +0.018 A 
ENDBRANCH   3   5
BRANCH   4  13
ATOM     13  C   UNL     1       3.957   6.559  -5.117  0.00  0.00    +0.075 A 
ATOM     14  C   UNL     1       4.863   7.460  -4.589  0.00  0.00    +0.018 A 
ATOM     15  C   UNL     1       4.690   7.974  -3.309  0.00  0.00    +0.013 A 
ATOM     16  C   UNL     1       3.760   7.425  -2.441  0.00  0.00    +0.058 A 
ATOM     17 CL   UNL     1       4.100   7.429  -0.734  0.00  0.00    -0.082 Cl
ATOM     18  C   UNL     1       2.739   6.703  -3.020  0.00  0.00    +0.013 A 
ATOM     19  C   UNL     1       2.876   6.222  -4.316  0.00  0.00    +0.018 A 
ENDBRANCH   4  13
TORSDOF 2
ENDMDL
MODEL 8
REMARK VINA RESULT:      -7.3      2.610      3.209
REMARK  Name = 
REMARK  2 active torsions:
REMARK  status: ('A' for Active; 'I' for Inactive)
REMARK    1  A    between atoms: N_3  and  C_4
REMARK    2  A    between atoms: N_11  and  C_12
REMARK                            x       y       z     vdW  Elec       q    Type
REMARK                         _______ _______ _______ _____ _____    ______ ____
ROOT
ATOM      1  O   UNL     1       3.736   6.535  -7.155  0.00  0.00    -0.248 OA
ATOM      2  C   UNL     1       3.374   5.440  -7.682  0.00  0.00    +0.348 C 
ATOM      3  N   UNL     1       4.025   5.070  -8.881  0.00  0.00    -0.161 NA
ATOM      4  N   UNL     1       2.792   4.496  -6.775  0.00  0.00    -0.161 NA
ENDROOT
BRANCH   3   5
ATOM      5  C   UNL     1       5.215   5.715  -9.348  0.00  0.00    +0.076 A 
ATOM      6  C   UNL     1       5.219   6.512 -10.483  0.00  0.00    +0.029 A 
ATOM      7  C   UNL     1       6.392   6.724 -11.170  0.00  0.00    +0.069 A 
ATOM      8 CL   UNL     1       6.368   7.679 -12.632  0.00  0.00    -0.081 Cl
ATOM      9  C   UNL     1       7.579   6.100 -10.810  0.00  0.00    +0.068 A 
ATOM     10 CL   UNL     1       8.717   5.615 -12.061  0.00  0.00    -0.081 Cl
ATOM     11  C   UNL     1       7.578   5.506  -9.554  0.00  0.00    +0.014 A 
ATOM     12  C   UNL     1       6.425   5.417  -8.785  0.00  0.00    +0.018 A 
ENDBRANCH   3   5
BRANCH   4  13
ATOM     13  C   UNL     1       2.645   4.798  -5.381  0.00  0.00    +0.075 A 
ATOM     14  C   UNL     1       1.729   5.761  -5.003  0.00  0.00    +0.018 A 
ATOM     15  C   UNL     1       1.976   6.587  -3.912  0.00  0.00    +0.013 A 
ATOM     16  C   UNL     1       3.232   6.641  -3.330  0.00  0.00    +0.058 A 
ATOM     17 CL   UNL     1       3.775   8.144  -2.641  0.00  0.00    -0.082 Cl
ATOM     18  C   UNL     1       4.053   5.557  -3.553  0.00  0.00    +0.013 A 
ATOM     19  C   UNL     1       3.793   4.694  -4.610  0.00  0.00    +0.018 A 
ENDBRANCH   4  13
TORSDOF 2
ENDMDL
MODEL 9
REMARK VINA RESULT:      -7.2      3.247      7.896
REMARK  Name = 
REMARK  2 active torsions:
REMARK  status: ('A' for Active; 'I' for Inactive)
REMARK    1  A    between atoms: N_3  and  C_4
REMARK    2  A    between atoms: N_11  and  C_12
REMARK                            x       y       z     vdW  Elec       q    Type
REMARK                         _______ _______ _______ _____ _____    ______ ____
ROOT
ATOM      1  O   UNL     1       3.802   5.094  -7.794  0.00  0.00    -0.248 OA
ATOM      2  C   UNL     1       3.500   6.200  -8.334  0.00  0.00    +0.348 C 
ATOM      3  N   UNL     1       2.883   7.161  -7.500  0.00  0.00    -0.161 NA
ATOM      4  N   UNL     1       4.269   6.539  -9.494  0.00  0.00    -0.161 NA
ENDROOT
BRANCH   3   5
ATOM      5  C   UNL     1       2.844   7.041  -6.074  0.00  0.00    +0.076 A 
ATOM      6  C   UNL     1       3.916   7.416  -5.278  0.00  0.00    +0.029 A 
ATOM      7  C   UNL     1       4.058   6.878  -4.020  0.00  0.00    +0.069 A 
ATOM      8 CL   UNL     1       5.447   7.314  -3.054  0.00  0.00    -0.081 Cl
ATOM      9  C   UNL     1       3.200   5.900  -3.535  0.00  0.00    +0.068 A 
ATOM     10 CL   UNL     1       3.830   4.638  -2.484  0.00  0.00    -0.081 Cl
ATOM     11  C   UNL     1       2.028   5.729  -4.263  0.00  0.00    +0.014 A 
ATOM     12  C   UNL     1       1.810   6.384  -5.468  0.00  0.00    +0.018 A 
ENDBRANCH   3   5
BRANCH   4  13
ATOM     13  C   UNL     1       5.298   5.668  -9.982  0.00  0.00    +0.075 A 
ATOM     14  C   UNL     1       6.541   5.704  -9.379  0.00  0.00    +0.018 A 
ATOM     15  C   UNL     1       7.698   5.497 -10.123  0.00  0.00    +0.013 A 
ATOM     16  C   UNL     1       7.663   5.495 -11.508  0.00  0.00    +0.058 A 
ATOM     17 CL   UNL     1       9.046   6.087 -12.384  0.00  0.00    -0.082 Cl
ATOM     18  C   UNL     1       6.438   5.243 -12.085  0.00  0.00    +0.013 A 
ATOM     19  C   UNL     1       5.274   5.399 -11.342  0.00  0.00    +0.018 A 
ENDBRANCH   4  13
TORSDOF 2
ENDMDL
