MODEL 1
REMARK VINA RESULT:      -6.9      0.000      0.000
REMARK  Name = 
REMARK  6 active torsions:
REMARK  status: ('A' for Active; 'I' for Inactive)
REMARK    1  A    between atoms: N_2  and  C_3
REMARK    2  A    between atoms: C_3  and  C_4
REMARK    3  A    between atoms: C_4  and  C_5
REMARK    4  A    between atoms: C_5  and  O_6
REMARK    5  A    between atoms: C_5  and  C_14
REMARK    6  A    between atoms: O_6  and  C_7
REMARK                            x       y       z     vdW  Elec       q    Type
REMARK                         _______ _______ _______ _____ _____    ______ ____
ROOT
ATOM      1  C   UNL     1       1.306   5.635  -3.898  0.00  0.00    +0.190 C 
ENDROOT
BRANCH   1   2
ATOM      2  C   UNL     1       2.875   6.099  -3.966  0.00  0.00    +0.017 A 
ATOM      3  C   UNL     1       3.440   6.127  -5.208  0.00  0.00    -0.001 A 
ATOM      4  C   UNL     1       4.771   6.528  -5.235  0.00  0.00    -0.000 A 
ATOM      5  C   UNL     1       5.278   7.286  -4.190  0.00  0.00    -0.000 A 
ATOM      6  C   UNL     1       4.321   7.852  -3.354  0.00  0.00    -0.000 A 
ATOM      7  C   UNL     1       3.049   7.294  -3.266  0.00  0.00    -0.001 A 
ENDBRANCH   1   2
BRANCH   1   8
ATOM      8  C   UNL     1       1.165   6.112  -2.301  0.00  0.00    +0.067 C 
BRANCH   8   9
ATOM      9  C   UNL     1       0.320   4.949  -1.790  0.00  0.00    +0.093 C 
BRANCH   9  11
ATOM     10  C   UNL     1      -1.591   5.647  -1.531  0.00  0.00    +0.107 C 
ATOM     11  N   UNL     1      -1.091   5.153  -2.002  0.00  0.00    -0.216 NA
ENDBRANCH   9  11
ENDBRANCH   8   9
ENDBRANCH   1   8
BRANCH   1  12
ATOM     12  O   UNL     1       0.769   7.006  -4.423  0.00  0.00    -0.475 OA
BRANCH  12  13
ATOM     13  C   UNL     1      -0.208   6.845  -5.388  0.00  0.00    +0.135 A 
ATOM     14  C   UNL     1      -1.510   7.166  -5.028  0.00  0.00    +0.012 A 
ATOM     15  C   UNL     1      -1.778   8.318  -4.123  0.00  0.00    +0.034 C 
ATOM     16  C   UNL     1      -2.596   6.506  -5.591  0.00  0.00    -0.001 A 
ATOM     17  C   UNL     1      -2.387   5.420  -6.410  0.00  0.00    -0.000 A 
ATOM     18  C   UNL     1      -1.114   5.171  -6.899  0.00  0.00    +0.003 A 
ATOM     19  C   UNL     1      -0.076   5.827  -6.308  0.00  0.00    +0.037 A 
ENDBRANCH  12  13
ENDBRANCH   1  12
TORSDOF 6
ENDMDL
MODEL 2
REMARK VINA RESULT:      -6.6      2.864      4.169
REMARK  Name = 
REMARK  6 active torsions:
REMARK  status: ('A' for Active; 'I' for Inactive)
REMARK    1  A    between atoms: N_2  and  C_3
REMARK    2  A    between atoms: C_3  and  C_4
REMARK    3  A    between atoms: C_4  and  C_5
REMARK    4  A    between atoms: C_5  and  O_6
REMARK    5  A    between atoms: C_5  and  C_14
REMARK    6  A    between atoms: O_6  and  C_7
REMARK                            x       y       z     vdW  Elec       q    Type
REMARK                         _______ _______ _______ _____ _____    ______ ____
ROOT
ATOM      1  C   UNL     1       1.882   5.374  -6.851  0.00  0.00    +0.190 C 
ENDROOT
BRANCH   1   2
ATOM      2  C   UNL     1       3.201   5.741  -5.954  0.00  0.00    +0.017 A 
ATOM      3  C   UNL     1       3.254   7.008  -5.452  0.00  0.00    -0.001 A 
ATOM      4  C   UNL     1       4.384   7.290  -4.692  0.00  0.00    -0.000 A 
ATOM      5  C   UNL     1       5.094   6.249  -4.112  0.00  0.00    -0.000 A 
ATOM      6  C   UNL     1       4.426   5.029  -4.075  0.00  0.00    -0.000 A 
ATOM      7  C   UNL     1       3.400   4.763  -4.977  0.00  0.00    -0.001 A 
ENDBRANCH   1   2
BRANCH   1   8
ATOM      8  C   UNL     1       2.467   3.849  -7.211  0.00  0.00    +0.067 C 
BRANCH   8   9
ATOM      9  C   UNL     1       2.593   4.005  -8.723  0.00  0.00    +0.093 C 
BRANCH   9  11
ATOM     10  C   UNL     1       4.207   4.865  -9.651  0.00  0.00    +0.107 C 
ATOM     11  N   UNL     1       3.951   4.236  -9.146  0.00  0.00    -0.216 NA
ENDBRANCH   9  11
ENDBRANCH   8   9
ENDBRANCH   1   8
BRANCH   1  12
ATOM     12  O   UNL     1       1.068   4.843  -5.626  0.00  0.00    -0.475 OA
BRANCH  12  13
ATOM     13  C   UNL     1      -0.120   5.529  -5.455  0.00  0.00    +0.135 A 
ATOM     14  C   UNL     1      -0.592   5.660  -4.156  0.00  0.00    +0.012 A 
ATOM     15  C   UNL     1       0.358   5.863  -3.027  0.00  0.00    +0.034 C 
ATOM     16  C   UNL     1      -1.955   5.727  -3.888  0.00  0.00    -0.001 A 
ATOM     17  C   UNL     1      -2.862   5.518  -4.902  0.00  0.00    -0.000 A 
ATOM     18  C   UNL     1      -2.428   5.530  -6.218  0.00  0.00    +0.003 A 
ATOM     19  C   UNL     1      -1.085   5.447  -6.436  0.00  0.00    +0.037 A 
ENDBRANCH  12  13
ENDBRANCH   1  12
TORSDOF 6
ENDMDL
MODEL 3
REMARK VINA RESULT:      -6.6      4.921      7.795
REMARK  Name = 
REMARK  6 active torsions:
REMARK  status: ('A' for Active; 'I' for Inactive)
REMARK    1  A    between atoms: N_2  and  C_3
REMARK    2  A    between atoms: C_3  and  C_4
REMARK    3  A    between atoms: C_4  and  C_5
REMARK    4  A    between atoms: C_5  and  O_6
REMARK    5  A    between atoms: C_5  and  C_14
REMARK    6  A    between atoms: O_6  and  C_7
REMARK                            x       y       z     vdW  Elec       q    Type
REMARK                         _______ _______ _______ _____ _____    ______ ____
ROOT
ATOM      1  C   UNL     1       3.121   5.355  -8.716  0.00  0.00    +0.190 C 
ENDROOT
BRANCH   1   2
ATOM      2  C   UNL     1       1.980   5.524  -9.878  0.00  0.00    +0.017 A 
ATOM      3  C   UNL     1       1.163   4.449 -10.079  0.00  0.00    -0.001 A 
ATOM      4  C   UNL     1       0.203   4.623 -11.069  0.00  0.00    -0.000 A 
ATOM      5  C   UNL     1      -0.184   5.906 -11.429  0.00  0.00    -0.000 A 
ATOM      6  C   UNL     1       0.193   6.906 -10.539  0.00  0.00    -0.000 A 
ATOM      7  C   UNL     1       1.272   6.711  -9.681  0.00  0.00    -0.001 A 
ENDBRANCH   1   2
BRANCH   1   8
ATOM      8  C   UNL     1       2.475   3.902  -8.198  0.00  0.00    +0.067 C 
BRANCH   8   9
ATOM      9  C   UNL     1       2.455   4.185  -6.699  0.00  0.00    +0.093 C 
BRANCH   9  11
ATOM     10  C   UNL     1       0.853   4.745  -5.548  0.00  0.00    +0.107 C 
ATOM     11  N   UNL     1       1.119   4.226  -6.160  0.00  0.00    -0.216 NA
ENDBRANCH   9  11
ENDBRANCH   8   9
ENDBRANCH   1   8
BRANCH   1  12
ATOM     12  O   UNL     1       4.134   4.640  -9.669  0.00  0.00    -0.475 OA
BRANCH  12  13
ATOM     13  C   UNL     1       5.183   5.466 -10.027  0.00  0.00    +0.135 A 
ATOM     14  C   UNL     1       5.512   5.521 -11.374  0.00  0.00    +0.012 A 
ATOM     15  C   UNL     1       4.445   5.463 -12.412  0.00  0.00    +0.034 C 
ATOM     16  C   UNL     1       6.819   5.752 -11.788  0.00  0.00    -0.001 A 
ATOM     17  C   UNL     1       7.834   5.786 -10.859  0.00  0.00    -0.000 A 
ATOM     18  C   UNL     1       7.522   5.880  -9.512  0.00  0.00    +0.003 A 
ATOM     19  C   UNL     1       6.233   5.629  -9.148  0.00  0.00    +0.037 A 
ENDBRANCH  12  13
ENDBRANCH   1  12
TORSDOF 6
ENDMDL
MODEL 4
REMARK VINA RESULT:      -6.5      5.567      6.929
REMARK  Name = 
REMARK  6 active torsions:
REMARK  status: ('A' for Active; 'I' for Inactive)
REMARK    1  A    between atoms: N_2  and  C_3
REMARK    2  A    between atoms: C_3  and  C_4
REMARK    3  A    between atoms: C_4  and  C_5
REMARK    4  A    between atoms: C_5  and  O_6
REMARK    5  A    between atoms: C_5  and  C_14
REMARK    6  A    between atoms: O_6  and  C_7
REMARK                            x       y       z     vdW  Elec       q    Type
REMARK                         _______ _______ _______ _____ _____    ______ ____
ROOT
ATOM      1  C   UNL     1       3.916   5.163 -10.452  0.00  0.00    +0.190 C 
ENDROOT
BRANCH   1   2
ATOM      2  C   UNL     1       5.370   5.888 -10.650  0.00  0.00    +0.017 A 
ATOM      3  C   UNL     1       5.344   7.228 -10.903  0.00  0.00    -0.001 A 
ATOM      4  C   UNL     1       6.594   7.816 -11.064  0.00  0.00    -0.000 A 
ATOM      5  C   UNL     1       7.714   7.201 -10.524  0.00  0.00    -0.000 A 
ATOM      6  C   UNL     1       7.446   6.207  -9.588  0.00  0.00    -0.000 A 
ATOM      7  C   UNL     1       6.217   5.553  -9.592  0.00  0.00    -0.001 A 
ENDBRANCH   1   2
BRANCH   1   8
ATOM      8  C   UNL     1       3.900   5.491  -8.812  0.00  0.00    +0.067 C 
BRANCH   8   9
ATOM      9  C   UNL     1       3.060   4.304  -8.351  0.00  0.00    +0.093 C 
BRANCH   9  11
ATOM     10  C   UNL     1       2.051   3.950  -6.601  0.00  0.00    +0.107 C 
ATOM     11  N   UNL     1       2.654   4.414  -6.973  0.00  0.00    -0.216 NA
ENDBRANCH   9  11
ENDBRANCH   8   9
ENDBRANCH   1   8
BRANCH   1  12
ATOM     12  O   UNL     1       3.107   6.460 -10.784  0.00  0.00    -0.475 OA
BRANCH  12  13
ATOM     13  C   UNL     1       2.134   6.234 -11.739  0.00  0.00    +0.135 A 
ATOM     14  C   UNL     1       0.925   5.714 -11.298  0.00  0.00    +0.012 A 
ATOM     15  C   UNL     1       0.358   6.137  -9.987  0.00  0.00    +0.034 C 
ATOM     16  C   UNL     1       0.156   4.888 -12.110  0.00  0.00    -0.001 A 
ATOM     17  C   UNL     1       0.658   4.456 -13.316  0.00  0.00    -0.000 A 
ATOM     18  C   UNL     1       1.785   5.067 -13.843  0.00  0.00    +0.003 A 
ATOM     19  C   UNL     1       2.519   5.856 -13.008  0.00  0.00    +0.037 A 
ENDBRANCH  12  13
ENDBRANCH   1  12
TORSDOF 6
ENDMDL
MODEL 5
REMARK VINA RESULT:      -6.5      2.812      5.587
REMARK  Name = 
REMARK  6 active torsions:
REMARK  status: ('A' for Active; 'I' for Inactive)
REMARK    1  A    between atoms: N_2  and  C_3
REMARK    2  A    between atoms: C_3  and  C_4
REMARK    3  A    between atoms: C_4  and  C_5
REMARK    4  A    between atoms: C_5  and  O_6
REMARK    5  A    between atoms: C_5  and  C_14
REMARK    6  A    between atoms: O_6  and  C_7
REMARK                            x       y       z     vdW  Elec       q    Type
REMARK                         _______ _______ _______ _____ _____    ______ ____
ROOT
ATOM      1  C   UNL     1       1.814   6.470  -5.761  0.00  0.00    +0.190 C 
ENDROOT
BRANCH   1   2
ATOM      2  C   UNL     1       0.201   6.470  -6.038  0.00  0.00    +0.017 A 
ATOM      3  C   UNL     1      -0.343   5.280  -6.425  0.00  0.00    -0.001 A 
ATOM      4  C   UNL     1      -1.715   5.311  -6.650  0.00  0.00    -0.000 A 
ATOM      5  C   UNL     1      -2.483   6.301  -6.055  0.00  0.00    -0.000 A 
ATOM      6  C   UNL     1      -1.857   6.991  -5.023  0.00  0.00    -0.000 A 
ATOM      7  C   UNL     1      -0.468   7.043  -4.955  0.00  0.00    -0.001 A 
ENDBRANCH   1   2
BRANCH   1   8
ATOM      8  C   UNL     1       1.693   5.220  -4.656  0.00  0.00    +0.067 C 
BRANCH   8   9
ATOM      9  C   UNL     1       2.869   5.594  -3.760  0.00  0.00    +0.093 C 
BRANCH   9  11
ATOM     10  C   UNL     1       4.816   4.978  -3.954  0.00  0.00    +0.107 C 
ATOM     11  N   UNL     1       4.007   4.730  -3.949  0.00  0.00    -0.216 NA
ENDBRANCH   9  11
ENDBRANCH   8   9
ENDBRANCH   1   8
BRANCH   1  12
ATOM     12  O   UNL     1       2.122   5.486  -6.937  0.00  0.00    -0.475 OA
BRANCH  12  13
ATOM     13  C   UNL     1       3.142   5.949  -7.747  0.00  0.00    +0.135 A 
ATOM     14  C   UNL     1       2.824   6.217  -9.072  0.00  0.00    +0.012 A 
ATOM     15  C   UNL     1       1.499   6.801  -9.424  0.00  0.00    +0.034 C 
ATOM     16  C   UNL     1       3.765   6.066 -10.084  0.00  0.00    -0.001 A 
ATOM     17  C   UNL     1       4.990   5.506  -9.800  0.00  0.00    -0.000 A 
ATOM     18  C   UNL     1       5.385   5.365  -8.479  0.00  0.00    +0.003 A 
ATOM     19  C   UNL     1       4.427   5.505  -7.519  0.00  0.00    +0.037 A 
ENDBRANCH  12  13
ENDBRANCH   1  12
TORSDOF 6
ENDMDL
MODEL 6
REMARK VINA RESULT:      -6.5      2.154      6.007
REMARK  Name = 
REMARK  6 active torsions:
REMARK  status: ('A' for Active; 'I' for Inactive)
REMARK    1  A    between atoms: N_2  and  C_3
REMARK    2  A    between atoms: C_3  and  C_4
REMARK    3  A    between atoms: C_4  and  C_5
REMARK    4  A    between atoms: C_5  and  O_6
REMARK    5  A    between atoms: C_5  and  C_14
REMARK    6  A    between atoms: O_6  and  C_7
REMARK                            x       y       z     vdW  Elec       q    Type
REMARK                         _______ _______ _______ _____ _____    ______ ____
ROOT
ATOM      1  C   UNL     1       1.321   5.587  -5.833  0.00  0.00    +0.190 C 
ENDROOT
BRANCH   1   2
ATOM      2  C   UNL     1      -0.236   5.949  -5.478  0.00  0.00    +0.017 A 
ATOM      3  C   UNL     1      -0.487   7.242  -5.122  0.00  0.00    -0.001 A 
ATOM      4  C   UNL     1      -1.818   7.520  -4.829  0.00  0.00    -0.000 A 
ATOM      5  C   UNL     1      -2.815   6.700  -5.338  0.00  0.00    -0.000 A 
ATOM      6  C   UNL     1      -2.414   5.853  -6.365  0.00  0.00    -0.000 A 
ATOM      7  C   UNL     1      -1.075   5.497  -6.498  0.00  0.00    -0.001 A 
ENDBRANCH   1   2
BRANCH   1   8
ATOM      8  C   UNL     1       1.228   6.345  -7.321  0.00  0.00    +0.067 C 
BRANCH   8   9
ATOM      9  C   UNL     1       2.455   5.715  -7.973  0.00  0.00    +0.093 C 
BRANCH   9  11
ATOM     10  C   UNL     1       2.661   3.777  -8.610  0.00  0.00    +0.107 C 
ATOM     11  N   UNL     1       2.405   4.275  -7.976  0.00  0.00    -0.216 NA
ENDBRANCH   9  11
ENDBRANCH   8   9
ENDBRANCH   1   8
BRANCH   1  12
ATOM     12  O   UNL     1       1.886   6.871  -5.142  0.00  0.00    -0.475 OA
BRANCH  12  13
ATOM     13  C   UNL     1       3.051   6.615  -4.444  0.00  0.00    +0.135 A 
ATOM     14  C   UNL     1       2.981   6.666  -3.058  0.00  0.00    +0.012 A 
ATOM     15  C   UNL     1       1.765   6.180  -2.348  0.00  0.00    +0.034 C 
ATOM     16  C   UNL     1       4.077   7.054  -2.295  0.00  0.00    -0.001 A 
ATOM     17  C   UNL     1       5.207   7.533  -2.917  0.00  0.00    -0.000 A 
ATOM     18  C   UNL     1       5.360   7.359  -4.283  0.00  0.00    +0.003 A 
ATOM     19  C   UNL     1       4.256   6.994  -4.996  0.00  0.00    +0.037 A 
ENDBRANCH  12  13
ENDBRANCH   1  12
TORSDOF 6
ENDMDL
MODEL 7
REMARK VINA RESULT:      -6.4      5.003      7.978
REMARK  Name = 
REMARK  6 active torsions:
REMARK  status: ('A' for Active; 'I' for Inactive)
REMARK    1  A    between atoms: N_2  and  C_3
REMARK    2  A    between atoms: C_3  and  C_4
REMARK    3  A    between atoms: C_4  and  C_5
REMARK    4  A    between atoms: C_5  and  O_6
REMARK    5  A    between atoms: C_5  and  C_14
REMARK    6  A    between atoms: O_6  and  C_7
REMARK                            x       y       z     vdW  Elec       q    Type
REMARK                         _______ _______ _______ _____ _____    ______ ____
ROOT
ATOM      1  C   UNL     1       2.658   5.345  -9.744  0.00  0.00    +0.190 C 
ENDROOT
BRANCH   1   2
ATOM      2  C   UNL     1       1.957   5.288  -8.266  0.00  0.00    +0.017 A 
ATOM      3  C   UNL     1       0.602   5.439  -8.237  0.00  0.00    -0.001 A 
ATOM      4  C   UNL     1       0.035   5.383  -6.968  0.00  0.00    -0.000 A 
ATOM      5  C   UNL     1       0.716   4.744  -5.943  0.00  0.00    -0.000 A 
ATOM      6  C   UNL     1       1.769   3.932  -6.351  0.00  0.00    -0.000 A 
ATOM      7  C   UNL     1       2.390   4.153  -7.578  0.00  0.00    -0.001 A 
ENDBRANCH   1   2
BRANCH   1   8
ATOM      8  C   UNL     1       1.575   6.498 -10.288  0.00  0.00    +0.067 C 
BRANCH   8   9
ATOM      9  C   UNL     1       1.593   6.144 -11.772  0.00  0.00    +0.093 C 
BRANCH   9  11
ATOM     10  C   UNL     1       0.621   4.702 -12.859  0.00  0.00    +0.107 C 
ATOM     11  N   UNL     1       0.728   5.036 -12.089  0.00  0.00    -0.216 NA
ENDBRANCH   9  11
ENDBRANCH   8   9
ENDBRANCH   1   8
BRANCH   1  12
ATOM     12  O   UNL     1       3.702   6.430  -9.323  0.00  0.00    -0.475 OA
BRANCH  12  13
ATOM     13  C   UNL     1       4.876   6.329 -10.044  0.00  0.00    +0.135 A 
ATOM     14  C   UNL     1       5.988   5.835  -9.375  0.00  0.00    +0.012 A 
ATOM     15  C   UNL     1       5.837   4.750  -8.365  0.00  0.00    +0.034 C 
ATOM     16  C   UNL     1       7.273   6.246  -9.711  0.00  0.00    -0.001 A 
ATOM     17  C   UNL     1       7.449   7.263 -10.620  0.00  0.00    -0.000 A 
ATOM     18  C   UNL     1       6.381   7.670 -11.403  0.00  0.00    +0.003 A 
ATOM     19  C   UNL     1       5.137   7.258 -11.030  0.00  0.00    +0.037 A 
ENDBRANCH  12  13
ENDBRANCH   1  12
TORSDOF 6
ENDMDL
MODEL 8
REMARK VINA RESULT:      -6.4      4.304      6.209
REMARK  Name = 
REMARK  6 active torsions:
REMARK  status: ('A' for Active; 'I' for Inactive)
REMARK    1  A    between atoms: N_2  and  C_3
REMARK    2  A    between atoms: C_3  and  C_4
REMARK    3  A    between atoms: C_4  and  C_5
REMARK    4  A    between atoms: C_5  and  O_6
REMARK    5  A    between atoms: C_5  and  C_14
REMARK    6  A    between atoms: O_6  and  C_7
REMARK                            x       y       z     vdW  Elec       q    Type
REMARK                         _______ _______ _______ _____ _____    ______ ____
ROOT
ATOM      1  C   UNL     1       3.716   5.984  -9.124  0.00  0.00    +0.190 C 
ENDROOT
BRANCH   1   2
ATOM      2  C   UNL     1       5.148   6.071  -9.913  0.00  0.00    +0.017 A 
ATOM      3  C   UNL     1       5.410   7.245 -10.556  0.00  0.00    -0.001 A 
ATOM      4  C   UNL     1       6.635   7.290 -11.214  0.00  0.00    -0.000 A 
ATOM      5  C   UNL     1       7.653   6.435 -10.821  0.00  0.00    -0.000 A 
ATOM      6  C   UNL     1       7.466   5.823  -9.586  0.00  0.00    -0.000 A 
ATOM      7  C   UNL     1       6.184   5.677  -9.064  0.00  0.00    -0.001 A 
ENDBRANCH   1   2
BRANCH   1   8
ATOM      8  C   UNL     1       3.764   4.313  -9.081  0.00  0.00    +0.067 C 
BRANCH   8   9
ATOM      9  C   UNL     1       2.265   4.044  -9.003  0.00  0.00    +0.093 C 
BRANCH   9  11
ATOM     10  C   UNL     1       0.710   4.643 -10.197  0.00  0.00    +0.107 C 
ATOM     11  N   UNL     1       1.516   4.786  -9.986  0.00  0.00    -0.216 NA
ENDBRANCH   9  11
ENDBRANCH   8   9
ENDBRANCH   1   8
BRANCH   1  12
ATOM     12  O   UNL     1       4.370   6.104  -7.709  0.00  0.00    -0.475 OA
BRANCH  12  13
ATOM     13  C   UNL     1       3.469   6.542  -6.757  0.00  0.00    +0.135 A 
ATOM     14  C   UNL     1       3.357   5.786  -5.598  0.00  0.00    +0.012 A 
ATOM     15  C   UNL     1       4.560   5.144  -5.000  0.00  0.00    +0.034 C 
ATOM     16  C   UNL     1       2.155   5.707  -4.902  0.00  0.00    -0.001 A 
ATOM     17  C   UNL     1       1.017   6.265  -5.438  0.00  0.00    -0.000 A 
ATOM     18  C   UNL     1       1.126   7.141  -6.506  0.00  0.00    +0.003 A 
ATOM     19  C   UNL     1       2.316   7.175  -7.171  0.00  0.00    +0.037 A 
ENDBRANCH  12  13
ENDBRANCH   1  12
TORSDOF 6
ENDMDL
MODEL 9
REMARK VINA RESULT:      -6.4      2.451      3.934
REMARK  Name = 
REMARK  6 active torsions:
REMARK  status: ('A' for Active; 'I' for Inactive)
REMARK    1  A    between atoms: N_2  and  C_3
REMARK    2  A    between atoms: C_3  and  C_4
REMARK    3  A    between atoms: C_4  and  C_5
REMARK    4  A    between atoms: C_5  and  O_6
REMARK    5  A    between atoms: C_5  and  C_14
REMARK    6  A    between atoms: O_6  and  C_7
REMARK                            x       y       z     vdW  Elec       q    Type
REMARK                         _______ _______ _______ _____ _____    ______ ____
ROOT
ATOM      1  C   UNL     1       2.691   5.781  -5.867  0.00  0.00    +0.190 C 
ENDROOT
BRANCH   1   2
ATOM      2  C   UNL     1       3.299   5.746  -7.386  0.00  0.00    +0.017 A 
ATOM      3  C   UNL     1       3.067   6.851  -8.153  0.00  0.00    -0.001 A 
ATOM      4  C   UNL     1       3.598   6.793  -9.437  0.00  0.00    -0.000 A 
ATOM      5  C   UNL     1       4.656   5.936  -9.701  0.00  0.00    -0.000 A 
ATOM      6  C   UNL     1       5.306   5.439  -8.577  0.00  0.00    -0.000 A 
ATOM      7  C   UNL     1       4.648   5.387  -7.351  0.00  0.00    -0.001 A 
ENDBRANCH   1   2
BRANCH   1   8
ATOM      8  C   UNL     1       3.648   7.086  -5.441  0.00  0.00    +0.067 C 
BRANCH   8   9
ATOM      9  C   UNL     1       3.844   6.752  -3.966  0.00  0.00    +0.093 C 
BRANCH   9  11
ATOM     10  C   UNL     1       3.919   8.134  -2.453  0.00  0.00    +0.107 C 
ATOM     11  N   UNL     1       3.459   7.836  -3.097  0.00  0.00    -0.216 NA
ENDBRANCH   9  11
ENDBRANCH   8   9
ENDBRANCH   1   8
BRANCH   1  12
ATOM     12  O   UNL     1       1.492   6.706  -6.256  0.00  0.00    -0.475 OA
BRANCH  12  13
ATOM     13  C   UNL     1       0.300   6.269  -5.709  0.00  0.00    +0.135 A 
ATOM     14  C   UNL     1      -0.706   5.905  -6.593  0.00  0.00    +0.012 A 
ATOM     15  C   UNL     1      -0.371   5.213  -7.870  0.00  0.00    +0.034 C 
ATOM     16  C   UNL     1      -2.047   6.062  -6.264  0.00  0.00    -0.001 A 
ATOM     17  C   UNL     1      -2.394   6.719  -5.105  0.00  0.00    -0.000 A 
ATOM     18  C   UNL     1      -1.426   6.961  -4.143  0.00  0.00    +0.003 A 
ATOM     19  C   UNL     1      -0.123   6.810  -4.513  0.00  0.00    +0.037 A 
ENDBRANCH  12  13
ENDBRANCH   1  12
TORSDOF 6
ENDMDL
