MODEL 1
REMARK VINA RESULT:      -5.3      0.000      0.000
REMARK  Name = 
REMARK  1 active torsions:
REMARK  status: ('A' for Active; 'I' for Inactive)
REMARK    1  A    between atoms: C_5  and  S_6
REMARK                            x       y       z     vdW  Elec       q    Type
REMARK                         _______ _______ _______ _____ _____    ______ ____
ROOT
ATOM      1  N   UNL     1       3.652   4.577  -8.280  0.00  0.00    -0.128 NA
ATOM      2  C   UNL     1       4.531   5.555  -8.849  0.00  0.00    +0.089 A 
ATOM      3  C   UNL     1       5.914   5.414  -8.805  0.00  0.00    +0.019 A 
ATOM      4  C   UNL     1       6.672   5.719  -9.931  0.00  0.00    +0.021 A 
ATOM      5  C   UNL     1       6.085   6.141 -11.118  0.00  0.00    +0.125 A 
ATOM      6  C   UNL     1       4.805   6.663 -10.971  0.00  0.00    +0.021 A 
ATOM      7  C   UNL     1       4.090   6.478  -9.792  0.00  0.00    +0.019 A 
ENDROOT
BRANCH   5   8
ATOM      8  S   UNL     1       6.657   5.583 -12.681  0.00  0.00    +0.093 S 
ATOM      9  O   UNL     1       7.741   4.589 -12.437  0.00  0.00    -0.150 OA
ATOM     10  O   UNL     1       7.108   6.742 -13.523  0.00  0.00    -0.150 OA
ATOM     11  N   UNL     1       5.332   4.828 -13.490  0.00  0.00    +0.039 NA
ENDBRANCH   5   8
TORSDOF 1
ENDMDL
MODEL 2
REMARK VINA RESULT:      -5.3      9.116     10.270
REMARK  Name = 
REMARK  1 active torsions:
REMARK  status: ('A' for Active; 'I' for Inactive)
REMARK    1  A    between atoms: C_5  and  S_6
REMARK                            x       y       z     vdW  Elec       q    Type
REMARK                         _______ _______ _______ _____ _____    ______ ____
ROOT
ATOM      1  N   UNL     1       1.025   4.955  -7.220  0.00  0.00    -0.128 NA
ATOM      2  C   UNL     1       0.016   5.812  -6.671  0.00  0.00    +0.089 A 
ATOM      3  C   UNL     1      -1.328   5.456  -6.670  0.00  0.00    +0.019 A 
ATOM      4  C   UNL     1      -2.101   5.693  -5.538  0.00  0.00    +0.021 A 
ATOM      5  C   UNL     1      -1.563   6.259  -4.388  0.00  0.00    +0.125 A 
ATOM      6  C   UNL     1      -0.384   6.966  -4.594  0.00  0.00    +0.021 A 
ATOM      7  C   UNL     1       0.327   6.836  -5.783  0.00  0.00    +0.019 A 
ENDROOT
BRANCH   5   8
ATOM      8  S   UNL     1      -2.009   5.695  -2.786  0.00  0.00    +0.093 S 
ATOM      9  O   UNL     1      -3.018   4.611  -2.953  0.00  0.00    -0.150 OA
ATOM     10  O   UNL     1      -2.512   6.835  -1.947  0.00  0.00    -0.150 OA
ATOM     11  N   UNL     1      -0.588   5.071  -2.031  0.00  0.00    +0.039 NA
ENDBRANCH   5   8
TORSDOF 1
ENDMDL
MODEL 3
REMARK VINA RESULT:      -5.3      3.067      4.468
REMARK  Name = 
REMARK  1 active torsions:
REMARK  status: ('A' for Active; 'I' for Inactive)
REMARK    1  A    between atoms: C_5  and  S_6
REMARK                            x       y       z     vdW  Elec       q    Type
REMARK                         _______ _______ _______ _____ _____    ______ ____
ROOT
ATOM      1  N   UNL     1       7.754   4.647 -12.707  0.00  0.00    -0.128 NA
ATOM      2  C   UNL     1       7.338   5.628 -11.750  0.00  0.00    +0.089 A 
ATOM      3  C   UNL     1       6.189   6.391 -11.931  0.00  0.00    +0.019 A 
ATOM      4  C   UNL     1       5.336   6.614 -10.856  0.00  0.00    +0.021 A 
ATOM      5  C   UNL     1       5.584   6.076  -9.598  0.00  0.00    +0.125 A 
ATOM      6  C   UNL     1       6.908   5.715  -9.381  0.00  0.00    +0.021 A 
ATOM      7  C   UNL     1       7.806   5.620 -10.440  0.00  0.00    +0.019 A 
ENDROOT
BRANCH   5   8
ATOM      8  S   UNL     1       4.294   5.422  -8.603  0.00  0.00    +0.093 S 
ATOM      9  O   UNL     1       4.774   5.407  -7.193  0.00  0.00    -0.150 OA
ATOM     10  O   UNL     1       3.887   4.062  -9.095  0.00  0.00    -0.150 OA
ATOM     11  N   UNL     1       2.929   6.468  -8.754  0.00  0.00    +0.039 NA
ENDBRANCH   5   8
TORSDOF 1
ENDMDL
MODEL 4
REMARK VINA RESULT:      -5.1      6.128      6.957
REMARK  Name = 
REMARK  1 active torsions:
REMARK  status: ('A' for Active; 'I' for Inactive)
REMARK    1  A    between atoms: C_5  and  S_6
REMARK                            x       y       z     vdW  Elec       q    Type
REMARK                         _______ _______ _______ _____ _____    ______ ____
ROOT
ATOM      1  N   UNL     1      -2.690   7.238  -5.298  0.00  0.00    -0.128 NA
ATOM      2  C   UNL     1      -1.543   6.411  -5.529  0.00  0.00    +0.089 A 
ATOM      3  C   UNL     1      -1.457   5.566  -6.630  0.00  0.00    +0.019 A 
ATOM      4  C   UNL     1      -0.262   5.480  -7.338  0.00  0.00    +0.021 A 
ATOM      5  C   UNL     1       0.852   6.236  -6.992  0.00  0.00    +0.125 A 
ATOM      6  C   UNL     1       0.843   6.702  -5.682  0.00  0.00    +0.021 A 
ATOM      7  C   UNL     1      -0.320   6.667  -4.919  0.00  0.00    +0.019 A 
ENDROOT
BRANCH   5   8
ATOM      8  S   UNL     1       1.879   6.977  -8.208  0.00  0.00    +0.093 S 
ATOM      9  O   UNL     1       3.125   6.165  -8.303  0.00  0.00    -0.150 OA
ATOM     10  O   UNL     1       2.145   8.416  -7.868  0.00  0.00    -0.150 OA
ATOM     11  N   UNL     1       1.030   6.939  -9.710  0.00  0.00    +0.039 NA
ENDBRANCH   5   8
TORSDOF 1
ENDMDL
MODEL 5
REMARK VINA RESULT:      -5.1      7.404      8.418
REMARK  Name = 
REMARK  1 active torsions:
REMARK  status: ('A' for Active; 'I' for Inactive)
REMARK    1  A    between atoms: C_5  and  S_6
REMARK                            x       y       z     vdW  Elec       q    Type
REMARK                         _______ _______ _______ _____ _____    ______ ____
ROOT
ATOM      1  N   UNL     1      -2.839   4.849  -2.978  0.00  0.00    -0.128 NA
ATOM      2  C   UNL     1      -2.404   5.730  -4.021  0.00  0.00    +0.089 A 
ATOM      3  C   UNL     1      -1.395   6.666  -3.819  0.00  0.00    +0.019 A 
ATOM      4  C   UNL     1      -0.422   6.849  -4.797  0.00  0.00    +0.021 A 
ATOM      5  C   UNL     1      -0.412   6.104  -5.970  0.00  0.00    +0.125 A 
ATOM      6  C   UNL     1      -1.635   5.530  -6.296  0.00  0.00    +0.021 A 
ATOM      7  C   UNL     1      -2.664   5.464  -5.361  0.00  0.00    +0.019 A 
ENDROOT
BRANCH   5   8
ATOM      8  S   UNL     1       1.082   5.501  -6.667  0.00  0.00    +0.093 S 
ATOM      9  O   UNL     1       2.183   6.406  -6.230  0.00  0.00    -0.150 OA
ATOM     10  O   UNL     1       0.966   5.404  -8.162  0.00  0.00    -0.150 OA
ATOM     11  N   UNL     1       1.346   3.909  -6.055  0.00  0.00    +0.039 NA
ENDBRANCH   5   8
TORSDOF 1
ENDMDL
MODEL 6
REMARK VINA RESULT:      -5.0      4.432      5.235
REMARK  Name = 
REMARK  1 active torsions:
REMARK  status: ('A' for Active; 'I' for Inactive)
REMARK    1  A    between atoms: C_5  and  S_6
REMARK                            x       y       z     vdW  Elec       q    Type
REMARK                         _______ _______ _______ _____ _____    ______ ____
ROOT
ATOM      1  N   UNL     1       6.799   6.732 -10.540  0.00  0.00    -0.128 NA
ATOM      2  C   UNL     1       5.704   5.960 -10.033  0.00  0.00    +0.089 A 
ATOM      3  C   UNL     1       5.734   5.384  -8.767  0.00  0.00    +0.019 A 
ATOM      4  C   UNL     1       4.603   5.441  -7.960  0.00  0.00    +0.021 A 
ATOM      5  C   UNL     1       3.439   6.082  -8.370  0.00  0.00    +0.125 A 
ATOM      6  C   UNL     1       3.328   6.240  -9.747  0.00  0.00    +0.021 A 
ATOM      7  C   UNL     1       4.428   6.052 -10.579  0.00  0.00    +0.019 A 
ENDROOT
BRANCH   5   8
ATOM      8  S   UNL     1       2.486   7.061  -7.269  0.00  0.00    +0.093 S 
ATOM      9  O   UNL     1       1.269   6.280  -6.907  0.00  0.00    -0.150 OA
ATOM     10  O   UNL     1       2.163   8.390  -7.889  0.00  0.00    -0.150 OA
ATOM     11  N   UNL     1       3.442   7.354  -5.862  0.00  0.00    +0.039 NA
ENDBRANCH   5   8
TORSDOF 1
ENDMDL
MODEL 7
REMARK VINA RESULT:      -4.9      5.920      6.957
REMARK  Name = 
REMARK  1 active torsions:
REMARK  status: ('A' for Active; 'I' for Inactive)
REMARK    1  A    between atoms: C_5  and  S_6
REMARK                            x       y       z     vdW  Elec       q    Type
REMARK                         _______ _______ _______ _____ _____    ______ ____
ROOT
ATOM      1  N   UNL     1      -2.078   6.825  -4.649  0.00  0.00    -0.128 NA
ATOM      2  C   UNL     1      -1.260   5.903  -5.381  0.00  0.00    +0.089 A 
ATOM      3  C   UNL     1      -1.577   5.508  -6.677  0.00  0.00    +0.019 A 
ATOM      4  C   UNL     1      -0.571   5.420  -7.634  0.00  0.00    +0.021 A 
ATOM      5  C   UNL     1       0.750   5.740  -7.342  0.00  0.00    +0.125 A 
ATOM      6  C   UNL     1       1.063   5.700  -5.988  0.00  0.00    +0.021 A 
ATOM      7  C   UNL     1       0.061   5.652  -5.024  0.00  0.00    +0.019 A 
ENDROOT
BRANCH   5   8
ATOM      8  S   UNL     1       1.759   6.619  -8.477  0.00  0.00    +0.093 S 
ATOM      9  O   UNL     1       0.988   6.772  -9.744  0.00  0.00    -0.150 OA
ATOM     10  O   UNL     1       3.070   5.913  -8.675  0.00  0.00    -0.150 OA
ATOM     11  N   UNL     1       2.092   8.170  -7.796  0.00  0.00    +0.039 NA
ENDBRANCH   5   8
TORSDOF 1
ENDMDL
MODEL 8
REMARK VINA RESULT:      -4.9      3.315      4.430
REMARK  Name = 
REMARK  1 active torsions:
REMARK  status: ('A' for Active; 'I' for Inactive)
REMARK    1  A    between atoms: C_5  and  S_6
REMARK                            x       y       z     vdW  Elec       q    Type
REMARK                         _______ _______ _______ _____ _____    ______ ____
ROOT
ATOM      1  N   UNL     1       7.839   4.742 -12.728  0.00  0.00    -0.128 NA
ATOM      2  C   UNL     1       6.738   5.658 -12.669  0.00  0.00    +0.089 A 
ATOM      3  C   UNL     1       5.484   5.332 -13.174  0.00  0.00    +0.019 A 
ATOM      4  C   UNL     1       4.344   5.668 -12.450  0.00  0.00    +0.021 A 
ATOM      5  C   UNL     1       4.419   6.304 -11.216  0.00  0.00    +0.125 A 
ATOM      6  C   UNL     1       5.618   6.969 -10.986  0.00  0.00    +0.021 A 
ATOM      7  C   UNL     1       6.729   6.737 -11.792  0.00  0.00    +0.019 A 
ENDROOT
BRANCH   5   8
ATOM      8  S   UNL     1       3.358   5.868  -9.888  0.00  0.00    +0.093 S 
ATOM      9  O   UNL     1       2.001   5.624 -10.453  0.00  0.00    -0.150 OA
ATOM     10  O   UNL     1       3.366   6.939  -8.833  0.00  0.00    -0.150 OA
ATOM     11  N   UNL     1       3.973   4.422  -9.174  0.00  0.00    +0.039 NA
ENDBRANCH   5   8
TORSDOF 1
ENDMDL
MODEL 9
REMARK VINA RESULT:      -4.7      2.288      2.965
REMARK  Name = 
REMARK  1 active torsions:
REMARK  status: ('A' for Active; 'I' for Inactive)
REMARK    1  A    between atoms: C_5  and  S_6
REMARK                            x       y       z     vdW  Elec       q    Type
REMARK                         _______ _______ _______ _____ _____    ______ ____
ROOT
ATOM      1  N   UNL     1       2.174   8.060  -7.846  0.00  0.00    -0.128 NA
ATOM      2  C   UNL     1       2.689   6.851  -8.418  0.00  0.00    +0.089 A 
ATOM      3  C   UNL     1       2.583   6.578  -9.778  0.00  0.00    +0.019 A 
ATOM      4  C   UNL     1       3.669   6.035 -10.456  0.00  0.00    +0.021 A 
ATOM      5  C   UNL     1       4.876   5.774  -9.818  0.00  0.00    +0.125 A 
ATOM      6  C   UNL     1       4.781   5.656  -8.437  0.00  0.00    +0.021 A 
ATOM      7  C   UNL     1       3.639   6.076  -7.761  0.00  0.00    +0.019 A 
ENDROOT
BRANCH   5   8
ATOM      8  S   UNL     1       6.418   6.097 -10.593  0.00  0.00    +0.093 S 
ATOM      9  O   UNL     1       6.503   5.237 -11.807  0.00  0.00    -0.150 OA
ATOM     10  O   UNL     1       7.550   5.864  -9.633  0.00  0.00    -0.150 OA
ATOM     11  N   UNL     1       6.443   7.763 -11.044  0.00  0.00    +0.039 NA
ENDBRANCH   5   8
TORSDOF 1
ENDMDL
