MODEL 1
REMARK VINA RESULT:      -6.9      0.000      0.000
REMARK  Name = 
REMARK  7 active torsions:
REMARK  status: ('A' for Active; 'I' for Inactive)
REMARK    1  A    between atoms: C_6  and  N_7
REMARK    2  A    between atoms: C_8  and  C_10
REMARK    3  A    between atoms: C_10  and  N_11
REMARK    4  A    between atoms: N_11  and  C_12
REMARK    5  A    between atoms: N_11  and  C_16
REMARK    6  A    between atoms: C_12  and  C_13
REMARK    7  A    between atoms: C_16  and  C_17
REMARK                            x       y       z     vdW  Elec       q    Type
REMARK                         _______ _______ _______ _____ _____    ______ ____
ROOT
ATOM      1  N   UNL     1       2.531   5.178  -8.617  0.00  0.00    -0.179 NA
ATOM      2  C   UNL     1       1.489   6.052  -8.235  0.00  0.00    +0.262 C 
ATOM      3  O   UNL     1       1.798   7.243  -7.969  0.00  0.00    -0.271 OA
ENDROOT
BRANCH   1  10
ATOM      4  C   UNL     1       7.412   6.394 -11.119  0.00  0.00    +0.032 C 
ATOM      5  C   UNL     1       6.191   5.855 -10.452  0.00  0.00    -0.016 A 
ATOM      6  C   UNL     1       5.047   5.622 -11.190  0.00  0.00    +0.028 A 
ATOM      7 BR   UNL     1       5.186   5.301 -13.072  0.00  0.00    -0.050 Br
ATOM      8  C   UNL     1       3.803   5.565 -10.582  0.00  0.00    -0.001 A 
ATOM      9  C   UNL     1       2.581   5.866 -11.392  0.00  0.00    +0.033 C 
ATOM     10  C   UNL     1       3.754   5.649  -9.195  0.00  0.00    +0.066 A 
ATOM     11  C   UNL     1       4.899   5.379  -8.454  0.00  0.00    -0.007 A 
ATOM     12  C   UNL     1       4.749   5.487  -6.973  0.00  0.00    +0.032 C 
ATOM     13  C   UNL     1       6.094   5.729  -9.072  0.00  0.00    -0.007 A 
ENDBRANCH   1  10
BRANCH   2  14
ATOM     14  C   UNL     1       0.070   5.600  -8.109  0.00  0.00    +0.161 C 
BRANCH  14  15
ATOM     15  N   UNL     1      -0.288   5.554  -6.719  0.00  0.00    -0.246 NA
BRANCH  15  16
ATOM     16  C   UNL     1      -1.698   5.316  -6.595  0.00  0.00    +0.189 C 
BRANCH  16  17
ATOM     17  C   UNL     1      -2.241   6.177  -5.505  0.00  0.00    +0.381 C 
ATOM     18  O   UNL     1      -2.711   5.508  -4.371  0.00  0.00    -0.244 OA
ATOM     19  O   UNL     1      -1.724   7.310  -5.276  0.00  0.00    -0.244 OA
ENDBRANCH  16  17
ENDBRANCH  15  16
BRANCH  15  20
ATOM     20  C   UNL     1       0.517   4.662  -5.931  0.00  0.00    +0.189 C 
BRANCH  20  21
ATOM     21  C   UNL     1       1.065   5.311  -4.704  0.00  0.00    +0.381 C 
ATOM     22  O   UNL     1       1.798   6.501  -4.757  0.00  0.00    -0.244 OA
ATOM     23  O   UNL     1       0.543   5.057  -3.577  0.00  0.00    -0.244 OA
ENDBRANCH  20  21
ENDBRANCH  15  20
ENDBRANCH  14  15
ENDBRANCH   2  14
TORSDOF 7
ENDMDL
MODEL 2
REMARK VINA RESULT:      -6.7      2.637      4.877
REMARK  Name = 
REMARK  7 active torsions:
REMARK  status: ('A' for Active; 'I' for Inactive)
REMARK    1  A    between atoms: C_6  and  N_7
REMARK    2  A    between atoms: C_8  and  C_10
REMARK    3  A    between atoms: C_10  and  N_11
REMARK    4  A    between atoms: N_11  and  C_12
REMARK    5  A    between atoms: N_11  and  C_16
REMARK    6  A    between atoms: C_12  and  C_13
REMARK    7  A    between atoms: C_16  and  C_17
REMARK                            x       y       z     vdW  Elec       q    Type
REMARK                         _______ _______ _______ _____ _____    ______ ____
ROOT
ATOM      1  N   UNL     1       1.865   6.109  -6.634  0.00  0.00    -0.179 NA
ATOM      2  C   UNL     1       2.486   5.327  -5.635  0.00  0.00    +0.262 C 
ATOM      3  O   UNL     1       2.318   4.081  -5.685  0.00  0.00    -0.271 OA
ENDROOT
BRANCH   1  10
ATOM      4  C   UNL     1       0.510   4.663 -11.892  0.00  0.00    +0.032 C 
ATOM      5  C   UNL     1       0.786   5.252 -10.549  0.00  0.00    -0.016 A 
ATOM      6  C   UNL     1       2.060   5.677 -10.229  0.00  0.00    +0.028 A 
ATOM      7 BR   UNL     1       3.269   6.175 -11.628  0.00  0.00    -0.050 Br
ATOM      8  C   UNL     1       2.464   5.798  -8.909  0.00  0.00    -0.001 A 
ATOM      9  C   UNL     1       3.921   5.710  -8.581  0.00  0.00    +0.033 C 
ATOM     10  C   UNL     1       1.514   5.578  -7.918  0.00  0.00    +0.066 A 
ATOM     11  C   UNL     1       0.163   5.650  -8.238  0.00  0.00    -0.007 A 
ATOM     12  C   UNL     1      -0.781   5.406  -7.108  0.00  0.00    +0.032 C 
ATOM     13  C   UNL     1      -0.157   5.245  -9.529  0.00  0.00    -0.007 A 
ENDBRANCH   1  10
BRANCH   2  14
ATOM     14  C   UNL     1       3.290   5.932  -4.531  0.00  0.00    +0.161 C 
BRANCH  14  15
ATOM     15  N   UNL     1       2.912   5.324  -3.286  0.00  0.00    -0.246 NA
BRANCH  15  16
ATOM     16  C   UNL     1       4.081   5.116  -2.480  0.00  0.00    +0.189 C 
BRANCH  16  17
ATOM     17  C   UNL     1       3.665   4.939  -1.058  0.00  0.00    +0.381 C 
ATOM     18  O   UNL     1       3.379   3.629  -0.661  0.00  0.00    -0.244 OA
ATOM     19  O   UNL     1       4.171   5.669  -0.155  0.00  0.00    -0.244 OA
ENDBRANCH  16  17
ENDBRANCH  15  16
BRANCH  15  20
ATOM     20  C   UNL     1       1.851   6.005  -2.594  0.00  0.00    +0.189 C 
BRANCH  20  21
ATOM     21  C   UNL     1       0.558   5.262  -2.649  0.00  0.00    +0.381 C 
ATOM     22  O   UNL     1      -0.002   4.662  -1.517  0.00  0.00    -0.244 OA
ATOM     23  O   UNL     1      -0.263   5.507  -3.583  0.00  0.00    -0.244 OA
ENDBRANCH  20  21
ENDBRANCH  15  20
ENDBRANCH  14  15
ENDBRANCH   2  14
TORSDOF 7
ENDMDL
MODEL 3
REMARK VINA RESULT:      -6.7      1.921      2.812
REMARK  Name = 
REMARK  7 active torsions:
REMARK  status: ('A' for Active; 'I' for Inactive)
REMARK    1  A    between atoms: C_6  and  N_7
REMARK    2  A    between atoms: C_8  and  C_10
REMARK    3  A    between atoms: C_10  and  N_11
REMARK    4  A    between atoms: N_11  and  C_12
REMARK    5  A    between atoms: N_11  and  C_16
REMARK    6  A    between atoms: C_12  and  C_13
REMARK    7  A    between atoms: C_16  and  C_17
REMARK                            x       y       z     vdW  Elec       q    Type
REMARK                         _______ _______ _______ _____ _____    ______ ____
ROOT
ATOM      1  N   UNL     1       3.024   5.658  -8.834  0.00  0.00    -0.179 NA
ATOM      2  C   UNL     1       2.675   4.588  -7.979  0.00  0.00    +0.262 C 
ATOM      3  O   UNL     1       2.617   3.437  -8.484  0.00  0.00    -0.271 OA
ENDROOT
BRANCH   1  10
ATOM      4  C   UNL     1       6.148   5.555 -13.503  0.00  0.00    +0.032 C 
ATOM      5  C   UNL     1       5.296   5.806 -12.304  0.00  0.00    -0.016 A 
ATOM      6  C   UNL     1       5.877   5.925 -11.057  0.00  0.00    +0.028 A 
ATOM      7 BR   UNL     1       7.707   6.469 -10.914  0.00  0.00    -0.050 Br
ATOM      8  C   UNL     1       5.143   5.706  -9.902  0.00  0.00    -0.001 A 
ATOM      9  C   UNL     1       5.855   5.297  -8.651  0.00  0.00    +0.033 C 
ATOM     10  C   UNL     1       3.780   5.464 -10.036  0.00  0.00    +0.066 A 
ATOM     11  C   UNL     1       3.132   5.838 -11.208  0.00  0.00    -0.007 A 
ATOM     12  C   UNL     1       1.669   5.544 -11.257  0.00  0.00    +0.032 C 
ATOM     13  C   UNL     1       3.908   5.763 -12.358  0.00  0.00    -0.007 A 
ENDBRANCH   1  10
BRANCH   2  14
ATOM     14  C   UNL     1       2.348   4.792  -6.536  0.00  0.00    +0.161 C 
BRANCH  14  15
ATOM     15  N   UNL     1       1.248   5.709  -6.427  0.00  0.00    -0.246 NA
BRANCH  15  16
ATOM     16  C   UNL     1       0.093   5.013  -5.934  0.00  0.00    +0.189 C 
BRANCH  16  17
ATOM     17  C   UNL     1      -1.015   5.152  -6.923  0.00  0.00    +0.381 C 
ATOM     18  O   UNL     1      -2.200   5.717  -6.442  0.00  0.00    -0.244 OA
ATOM     19  O   UNL     1      -0.754   5.419  -8.134  0.00  0.00    -0.244 OA
ENDBRANCH  16  17
ENDBRANCH  15  16
BRANCH  15  20
ATOM     20  C   UNL     1       1.549   6.910  -5.698  0.00  0.00    +0.189 C 
BRANCH  20  21
ATOM     21  C   UNL     1       2.823   6.812  -4.926  0.00  0.00    +0.381 C 
ATOM     22  O   UNL     1       3.977   7.505  -5.307  0.00  0.00    -0.244 OA
ATOM     23  O   UNL     1       2.790   6.461  -3.709  0.00  0.00    -0.244 OA
ENDBRANCH  20  21
ENDBRANCH  15  20
ENDBRANCH  14  15
ENDBRANCH   2  14
TORSDOF 7
ENDMDL
MODEL 4
REMARK VINA RESULT:      -6.6      3.530      7.727
REMARK  Name = 
REMARK  7 active torsions:
REMARK  status: ('A' for Active; 'I' for Inactive)
REMARK    1  A    between atoms: C_6  and  N_7
REMARK    2  A    between atoms: C_8  and  C_10
REMARK    3  A    between atoms: C_10  and  N_11
REMARK    4  A    between atoms: N_11  and  C_12
REMARK    5  A    between atoms: N_11  and  C_16
REMARK    6  A    between atoms: C_12  and  C_13
REMARK    7  A    between atoms: C_16  and  C_17
REMARK                            x       y       z     vdW  Elec       q    Type
REMARK                         _______ _______ _______ _____ _____    ______ ____
ROOT
ATOM      1  N   UNL     1       0.973   5.155  -6.009  0.00  0.00    -0.179 NA
ATOM      2  C   UNL     1       1.876   5.961  -6.738  0.00  0.00    +0.262 C 
ATOM      3  O   UNL     1       1.502   7.124  -7.041  0.00  0.00    -0.271 OA
ENDROOT
BRANCH   1  10
ATOM      4  C   UNL     1      -3.114   6.733  -2.491  0.00  0.00    +0.032 C 
ATOM      5  C   UNL     1      -2.102   6.101  -3.388  0.00  0.00    -0.016 A 
ATOM      6  C   UNL     1      -0.810   5.906  -2.942  0.00  0.00    +0.028 A 
ATOM      7 BR   UNL     1      -0.469   5.765  -1.063  0.00  0.00    -0.050 Br
ATOM      8  C   UNL     1       0.240   5.758  -3.834  0.00  0.00    -0.001 A 
ATOM      9  C   UNL     1       1.628   6.100  -3.391  0.00  0.00    +0.033 C 
ATOM     10  C   UNL     1      -0.063   5.711  -5.191  0.00  0.00    +0.066 A 
ATOM     11  C   UNL     1      -1.360   5.406  -5.590  0.00  0.00    -0.007 A 
ATOM     12  C   UNL     1      -1.588   5.371  -7.065  0.00  0.00    +0.032 C 
ATOM     13  C   UNL     1      -2.359   5.844  -4.729  0.00  0.00    -0.007 A 
ENDBRANCH   1  10
BRANCH   2  14
ATOM     14  C   UNL     1       3.217   5.467  -7.174  0.00  0.00    +0.161 C 
BRANCH  14  15
ATOM     15  N   UNL     1       3.216   5.299  -8.600  0.00  0.00    -0.246 NA
BRANCH  15  16
ATOM     16  C   UNL     1       4.547   5.006  -9.049  0.00  0.00    +0.189 C 
BRANCH  16  17
ATOM     17  C   UNL     1       4.862   5.864 -10.227  0.00  0.00    +0.381 C 
ATOM     18  O   UNL     1       4.742   5.254 -11.480  0.00  0.00    -0.244 OA
ATOM     19  O   UNL     1       4.574   7.097 -10.208  0.00  0.00    -0.244 OA
ENDBRANCH  16  17
ENDBRANCH  15  16
BRANCH  15  20
ATOM     20  C   UNL     1       2.229   4.374  -9.085  0.00  0.00    +0.189 C 
BRANCH  20  21
ATOM     21  C   UNL     1       1.340   4.972 -10.124  0.00  0.00    +0.381 C 
ATOM     22  O   UNL     1       0.218   4.298 -10.619  0.00  0.00    -0.244 OA
ATOM     23  O   UNL     1       1.316   6.230 -10.277  0.00  0.00    -0.244 OA
ENDBRANCH  20  21
ENDBRANCH  15  20
ENDBRANCH  14  15
ENDBRANCH   2  14
TORSDOF 7
ENDMDL
MODEL 5
REMARK VINA RESULT:      -6.5      4.367      7.354
REMARK  Name = 
REMARK  7 active torsions:
REMARK  status: ('A' for Active; 'I' for Inactive)
REMARK    1  A    between atoms: C_6  and  N_7
REMARK    2  A    between atoms: C_8  and  C_10
REMARK    3  A    between atoms: C_10  and  N_11
REMARK    4  A    between atoms: N_11  and  C_12
REMARK    5  A    between atoms: N_11  and  C_16
REMARK    6  A    between atoms: C_12  and  C_13
REMARK    7  A    between atoms: C_16  and  C_17
REMARK                            x       y       z     vdW  Elec       q    Type
REMARK                         _______ _______ _______ _____ _____    ______ ____
ROOT
ATOM      1  N   UNL     1       2.579   6.079  -4.455  0.00  0.00    -0.179 NA
ATOM      2  C   UNL     1       2.942   4.821  -4.985  0.00  0.00    +0.262 C 
ATOM      3  O   UNL     1       3.986   4.281  -4.535  0.00  0.00    -0.271 OA
ENDROOT
BRANCH   1  10
ATOM      4  C   UNL     1       3.715   8.241   0.605  0.00  0.00    +0.032 C 
ATOM      5  C   UNL     1       3.318   7.869  -0.785  0.00  0.00    -0.016 A 
ATOM      6  C   UNL     1       2.186   7.110  -1.001  0.00  0.00    +0.028 A 
ATOM      7 BR   UNL     1       0.778   7.123   0.297  0.00  0.00    -0.050 Br
ATOM      8  C   UNL     1       2.026   6.379  -2.167  0.00  0.00    -0.001 A 
ATOM      9  C   UNL     1       1.127   5.182  -2.160  0.00  0.00    +0.033 C 
ATOM     10  C   UNL     1       2.995   6.513  -3.155  0.00  0.00    +0.066 A 
ATOM     11  C   UNL     1       3.832   7.623  -3.143  0.00  0.00    -0.007 A 
ATOM     12  C   UNL     1       4.836   7.685  -4.246  0.00  0.00    +0.032 C 
ATOM     13  C   UNL     1       4.138   8.116  -1.880  0.00  0.00    -0.007 A 
ENDBRANCH   1  10
BRANCH   2  14
ATOM     14  C   UNL     1       2.155   4.149  -6.062  0.00  0.00    +0.161 C 
BRANCH  14  15
ATOM     15  N   UNL     1       2.321   4.876  -7.290  0.00  0.00    -0.246 NA
BRANCH  15  16
ATOM     16  C   UNL     1       2.768   3.982  -8.320  0.00  0.00    +0.189 C 
BRANCH  16  17
ATOM     17  C   UNL     1       4.073   4.470  -8.853  0.00  0.00    +0.381 C 
ATOM     18  O   UNL     1       4.075   4.878 -10.191  0.00  0.00    -0.244 OA
ATOM     19  O   UNL     1       4.863   5.113  -8.102  0.00  0.00    -0.244 OA
ENDBRANCH  16  17
ENDBRANCH  15  16
BRANCH  15  20
ATOM     20  C   UNL     1       1.181   5.664  -7.668  0.00  0.00    +0.189 C 
BRANCH  20  21
ATOM     21  C   UNL     1       1.555   7.022  -8.161  0.00  0.00    +0.381 C 
ATOM     22  O   UNL     1       2.413   7.862  -7.443  0.00  0.00    -0.244 OA
ATOM     23  O   UNL     1       1.465   7.284  -9.397  0.00  0.00    -0.244 OA
ENDBRANCH  20  21
ENDBRANCH  15  20
ENDBRANCH  14  15
ENDBRANCH   2  14
TORSDOF 7
ENDMDL
MODEL 6
REMARK VINA RESULT:      -6.5      2.381      3.597
REMARK  Name = 
REMARK  7 active torsions:
REMARK  status: ('A' for Active; 'I' for Inactive)
REMARK    1  A    between atoms: C_6  and  N_7
REMARK    2  A    between atoms: C_8  and  C_10
REMARK    3  A    between atoms: C_10  and  N_11
REMARK    4  A    between atoms: N_11  and  C_12
REMARK    5  A    between atoms: N_11  and  C_16
REMARK    6  A    between atoms: C_12  and  C_13
REMARK    7  A    between atoms: C_16  and  C_17
REMARK                            x       y       z     vdW  Elec       q    Type
REMARK                         _______ _______ _______ _____ _____    ______ ____
ROOT
ATOM      1  N   UNL     1       1.676   4.892  -5.727  0.00  0.00    -0.179 NA
ATOM      2  C   UNL     1       1.210   5.709  -4.673  0.00  0.00    +0.262 C 
ATOM      3  O   UNL     1       1.571   6.914  -4.670  0.00  0.00    -0.271 OA
ENDROOT
BRANCH   1  10
ATOM      4  C   UNL     1       3.202   6.357 -10.932  0.00  0.00    +0.032 C 
ATOM      5  C   UNL     1       2.875   5.760  -9.604  0.00  0.00    -0.016 A 
ATOM      6  C   UNL     1       1.579   5.378  -9.319  0.00  0.00    +0.028 A 
ATOM      7 BR   UNL     1       0.386   4.941 -10.751  0.00  0.00    -0.050 Br
ATOM      8  C   UNL     1       1.141   5.253  -8.010  0.00  0.00    -0.001 A 
ATOM      9  C   UNL     1      -0.319   5.389  -7.714  0.00  0.00    +0.033 C 
ATOM     10  C   UNL     1       2.075   5.427  -6.995  0.00  0.00    +0.066 A 
ATOM     11  C   UNL     1       3.429   5.311  -7.285  0.00  0.00    -0.007 A 
ATOM     12  C   UNL     1       4.355   5.507  -6.131  0.00  0.00    +0.032 C 
ATOM     13  C   UNL     1       3.794   5.721  -8.562  0.00  0.00    -0.007 A 
ENDBRANCH   1  10
BRANCH   2  14
ATOM     14  C   UNL     1       0.348   5.181  -3.573  0.00  0.00    +0.161 C 
BRANCH  14  15
ATOM     15  N   UNL     1      -0.053   6.270  -2.726  0.00  0.00    -0.246 NA
BRANCH  15  16
ATOM     16  C   UNL     1      -1.393   6.666  -3.056  0.00  0.00    +0.189 C 
BRANCH  16  17
ATOM     17  C   UNL     1      -2.190   5.450  -3.388  0.00  0.00    +0.381 C 
ATOM     18  O   UNL     1      -2.814   4.812  -2.312  0.00  0.00    -0.244 OA
ATOM     19  O   UNL     1      -2.827   5.389  -4.482  0.00  0.00    -0.244 OA
ENDBRANCH  16  17
ENDBRANCH  15  16
BRANCH  15  20
ATOM     20  C   UNL     1       0.146   6.030  -1.323  0.00  0.00    +0.189 C 
BRANCH  20  21
ATOM     21  C   UNL     1       1.589   5.962  -0.948  0.00  0.00    +0.381 C 
ATOM     22  O   UNL     1       2.214   4.755  -0.618  0.00  0.00    -0.244 OA
ATOM     23  O   UNL     1       2.374   6.884  -1.320  0.00  0.00    -0.244 OA
ENDBRANCH  20  21
ENDBRANCH  15  20
ENDBRANCH  14  15
ENDBRANCH   2  14
TORSDOF 7
ENDMDL
MODEL 7
REMARK VINA RESULT:      -6.4      3.528      6.867
REMARK  Name = 
REMARK  7 active torsions:
REMARK  status: ('A' for Active; 'I' for Inactive)
REMARK    1  A    between atoms: C_6  and  N_7
REMARK    2  A    between atoms: C_8  and  C_10
REMARK    3  A    between atoms: C_10  and  N_11
REMARK    4  A    between atoms: N_11  and  C_12
REMARK    5  A    between atoms: N_11  and  C_16
REMARK    6  A    between atoms: C_12  and  C_13
REMARK    7  A    between atoms: C_16  and  C_17
REMARK                            x       y       z     vdW  Elec       q    Type
REMARK                         _______ _______ _______ _____ _____    ______ ____
ROOT
ATOM      1  N   UNL     1       1.897   5.327  -6.684  0.00  0.00    -0.179 NA
ATOM      2  C   UNL     1       2.227   4.055  -7.204  0.00  0.00    +0.262 C 
ATOM      3  O   UNL     1       2.164   3.074  -6.420  0.00  0.00    -0.271 OA
ENDROOT
BRANCH   1  10
ATOM      4  C   UNL     1      -1.477   6.629  -2.384  0.00  0.00    +0.032 C 
ATOM      5  C   UNL     1      -0.522   6.504  -3.524  0.00  0.00    -0.016 A 
ATOM      6  C   UNL     1      -0.995   6.472  -4.821  0.00  0.00    +0.028 A 
ATOM      7 BR   UNL     1      -2.688   7.268  -5.228  0.00  0.00    -0.050 Br
ATOM      8  C   UNL     1      -0.241   5.921  -5.844  0.00  0.00    -0.001 A 
ATOM      9  C   UNL     1      -0.936   5.399  -7.062  0.00  0.00    +0.033 C 
ATOM     10  C   UNL     1       1.047   5.492  -5.543  0.00  0.00    +0.066 A 
ATOM     11  C   UNL     1       1.677   5.974  -4.401  0.00  0.00    -0.007 A 
ATOM     12  C   UNL     1       3.059   5.464  -4.164  0.00  0.00    +0.032 C 
ATOM     13  C   UNL     1       0.830   6.248  -3.334  0.00  0.00    -0.007 A 
ENDBRANCH   1  10
BRANCH   2  14
ATOM     14  C   UNL     1       2.667   3.859  -8.618  0.00  0.00    +0.161 C 
BRANCH  14  15
ATOM     15  N   UNL     1       2.208   4.965  -9.412  0.00  0.00    -0.246 NA
BRANCH  15  16
ATOM     16  C   UNL     1       3.269   5.411 -10.270  0.00  0.00    +0.189 C 
BRANCH  16  17
ATOM     17  C   UNL     1       3.918   6.606  -9.659  0.00  0.00    +0.381 C 
ATOM     18  O   UNL     1       4.803   7.312 -10.480  0.00  0.00    -0.244 OA
ATOM     19  O   UNL     1       3.278   7.321  -8.831  0.00  0.00    -0.244 OA
ENDBRANCH  16  17
ENDBRANCH  15  16
BRANCH  15  20
ATOM     20  C   UNL     1       0.972   4.723 -10.103  0.00  0.00    +0.189 C 
BRANCH  20  21
ATOM     21  C   UNL     1       0.434   5.946 -10.768  0.00  0.00    +0.381 C 
ATOM     22  O   UNL     1       0.411   7.190 -10.129  0.00  0.00    -0.244 OA
ATOM     23  O   UNL     1       0.380   5.996 -12.033  0.00  0.00    -0.244 OA
ENDBRANCH  20  21
ENDBRANCH  15  20
ENDBRANCH  14  15
ENDBRANCH   2  14
TORSDOF 7
ENDMDL
MODEL 8
REMARK VINA RESULT:      -6.4      1.979      3.453
REMARK  Name = 
REMARK  7 active torsions:
REMARK  status: ('A' for Active; 'I' for Inactive)
REMARK    1  A    between atoms: C_6  and  N_7
REMARK    2  A    between atoms: C_8  and  C_10
REMARK    3  A    between atoms: C_10  and  N_11
REMARK    4  A    between atoms: N_11  and  C_12
REMARK    5  A    between atoms: N_11  and  C_16
REMARK    6  A    between atoms: C_12  and  C_13
REMARK    7  A    between atoms: C_16  and  C_17
REMARK                            x       y       z     vdW  Elec       q    Type
REMARK                         _______ _______ _______ _____ _____    ______ ____
ROOT
ATOM      1  N   UNL     1       2.508   6.001  -8.480  0.00  0.00    -0.179 NA
ATOM      2  C   UNL     1       2.090   7.118  -7.722  0.00  0.00    +0.262 C 
ATOM      3  O   UNL     1       2.508   8.250  -8.078  0.00  0.00    -0.271 OA
ENDROOT
BRANCH   1  10
ATOM      4  C   UNL     1       3.911   5.800 -13.916  0.00  0.00    +0.032 C 
ATOM      5  C   UNL     1       3.556   5.625 -12.478  0.00  0.00    -0.016 A 
ATOM      6  C   UNL     1       2.235   5.676 -12.080  0.00  0.00    +0.028 A 
ATOM      7 BR   UNL     1       0.853   5.264 -13.341  0.00  0.00    -0.050 Br
ATOM      8  C   UNL     1       1.892   5.970 -10.771  0.00  0.00    -0.001 A 
ATOM      9  C   UNL     1       0.544   6.554 -10.483  0.00  0.00    +0.033 C 
ATOM     10  C   UNL     1       2.921   6.112  -9.847  0.00  0.00    +0.066 A 
ATOM     11  C   UNL     1       4.173   5.577 -10.131  0.00  0.00    -0.007 A 
ATOM     12  C   UNL     1       5.212   5.772  -9.078  0.00  0.00    +0.032 C 
ATOM     13  C   UNL     1       4.520   5.577 -11.477  0.00  0.00    -0.007 A 
ENDBRANCH   1  10
BRANCH   2  14
ATOM     14  C   UNL     1       1.213   6.986  -6.520  0.00  0.00    +0.161 C 
BRANCH  14  15
ATOM     15  N   UNL     1       1.647   5.860  -5.742  0.00  0.00    -0.246 NA
BRANCH  15  16
ATOM     16  C   UNL     1       2.367   6.323  -4.589  0.00  0.00    +0.189 C 
BRANCH  16  17
ATOM     17  C   UNL     1       3.763   5.802  -4.647  0.00  0.00    +0.381 C 
ATOM     18  O   UNL     1       3.924   4.442  -4.365  0.00  0.00    -0.244 OA
ATOM     19  O   UNL     1       4.577   6.266  -5.499  0.00  0.00    -0.244 OA
ENDBRANCH  16  17
ENDBRANCH  15  16
BRANCH  15  20
ATOM     20  C   UNL     1       0.606   4.920  -5.430  0.00  0.00    +0.189 C 
BRANCH  20  21
ATOM     21  C   UNL     1      -0.746   5.400  -5.841  0.00  0.00    +0.381 C 
ATOM     22  O   UNL     1      -1.341   5.003  -7.043  0.00  0.00    -0.244 OA
ATOM     23  O   UNL     1      -1.554   5.819  -4.960  0.00  0.00    -0.244 OA
ENDBRANCH  20  21
ENDBRANCH  15  20
ENDBRANCH  14  15
ENDBRANCH   2  14
TORSDOF 7
ENDMDL
MODEL 9
REMARK VINA RESULT:      -6.4      3.629      7.776
REMARK  Name = 
REMARK  7 active torsions:
REMARK  status: ('A' for Active; 'I' for Inactive)
REMARK    1  A    between atoms: C_6  and  N_7
REMARK    2  A    between atoms: C_8  and  C_10
REMARK    3  A    between atoms: C_10  and  N_11
REMARK    4  A    between atoms: N_11  and  C_12
REMARK    5  A    between atoms: N_11  and  C_16
REMARK    6  A    between atoms: C_12  and  C_13
REMARK    7  A    between atoms: C_16  and  C_17
REMARK                            x       y       z     vdW  Elec       q    Type
REMARK                         _______ _______ _______ _____ _____    ______ ____
ROOT
ATOM      1  N   UNL     1       2.287   5.324  -7.875  0.00  0.00    -0.179 NA
ATOM      2  C   UNL     1       3.189   6.255  -8.436  0.00  0.00    +0.262 C 
ATOM      3  O   UNL     1       2.745   7.401  -8.709  0.00  0.00    -0.271 OA
ENDROOT
BRANCH   1  10
ATOM      4  C   UNL     1      -2.313   6.279  -4.794  0.00  0.00    +0.032 C 
ATOM      5  C   UNL     1      -1.150   5.805  -5.599  0.00  0.00    -0.016 A 
ATOM      6  C   UNL     1       0.093   5.679  -5.010  0.00  0.00    +0.028 A 
ATOM      7 BR   UNL     1       0.219   5.415  -3.118  0.00  0.00    -0.050 Br
ATOM      8  C   UNL     1       1.250   5.689  -5.772  0.00  0.00    -0.001 A 
ATOM      9  C   UNL     1       2.539   6.103  -5.135  0.00  0.00    +0.033 C 
ATOM     10  C   UNL     1       1.115   5.727  -7.155  0.00  0.00    +0.066 A 
ATOM     11  C   UNL     1      -0.092   5.352  -7.735  0.00  0.00    -0.007 A 
ATOM     12  C   UNL     1      -0.140   5.418  -9.225  0.00  0.00    +0.032 C 
ATOM     13  C   UNL     1      -1.221   5.637  -6.976  0.00  0.00    -0.007 A 
ENDBRANCH   1  10
BRANCH   2  14
ATOM     14  C   UNL     1       4.611   5.911  -8.735  0.00  0.00    +0.161 C 
BRANCH  14  15
ATOM     15  N   UNL     1       4.835   6.024 -10.150  0.00  0.00    -0.246 NA
BRANCH  15  16
ATOM     16  C   UNL     1       6.244   5.965 -10.418  0.00  0.00    +0.189 C 
BRANCH  16  17
ATOM     17  C   UNL     1       6.759   7.350 -10.617  0.00  0.00    +0.381 C 
ATOM     18  O   UNL     1       8.057   7.594 -10.158  0.00  0.00    -0.244 OA
ATOM     19  O   UNL     1       6.429   8.006 -11.649  0.00  0.00    -0.244 OA
ENDBRANCH  16  17
ENDBRANCH  15  16
BRANCH  15  20
ATOM     20  C   UNL     1       4.060   5.112 -10.945  0.00  0.00    +0.189 C 
BRANCH  20  21
ATOM     21  C   UNL     1       4.104   5.436 -12.401  0.00  0.00    +0.381 C 
ATOM     22  O   UNL     1       4.875   4.695 -13.303  0.00  0.00    -0.244 OA
ATOM     23  O   UNL     1       3.152   6.088 -12.925  0.00  0.00    -0.244 OA
ENDBRANCH  20  21
ENDBRANCH  15  20
ENDBRANCH  14  15
ENDBRANCH   2  14
TORSDOF 7
ENDMDL
