MODEL 1
REMARK VINA RESULT:      -7.8      0.000      0.000
REMARK  Name = 
REMARK  3 active torsions:
REMARK  status: ('A' for Active; 'I' for Inactive)
REMARK    1  A    between atoms: N_2  and  C_4
REMARK    2  A    between atoms: C_4  and  C_5
REMARK    3  A    between atoms: C_5  and  C_6
REMARK                            x       y       z     vdW  Elec       q    Type
REMARK                         _______ _______ _______ _____ _____    ______ ____
ROOT
ATOM      1  C   UNL     1       1.821   5.131  -8.635  0.00  0.00    -0.025 C 
ATOM      2  C   UNL     1       2.382   5.336  -9.825  0.00  0.00    -0.001 C 
ATOM      3  C   UNL     1       3.851   5.268  -9.828  0.00  0.00    +0.034 A 
ATOM      4  C   UNL     1       4.678   5.788 -10.815  0.00  0.00    +0.139 A 
ATOM      5  C   UNL     1       6.008   6.007 -10.549  0.00  0.00    +0.037 A 
ATOM      6  C   UNL     1       6.465   5.756  -9.266  0.00  0.00    +0.003 A 
ATOM      7  C   UNL     1       5.723   4.911  -8.454  0.00  0.00    +0.000 A 
ATOM      8  O   UNL     1       4.262   6.249 -12.068  0.00  0.00    -0.471 OA
ATOM      9  C   UNL     1       3.199   5.711 -12.849  0.00  0.00    +0.232 C 
ATOM     10  C   UNL     1       1.873   5.951 -12.203  0.00  0.00    +0.021 A 
ATOM     11  C   UNL     1       0.967   6.590 -13.036  0.00  0.00    -0.001 A 
ATOM     12  C   UNL     1       0.049   7.463 -12.473  0.00  0.00    -0.000 A 
ATOM     13  C   UNL     1      -0.401   7.174 -11.190  0.00  0.00    -0.000 A 
ATOM     14  C   UNL     1       0.286   6.253 -10.409  0.00  0.00    -0.000 A 
ATOM     15  C   UNL     1       4.345   4.983  -8.563  0.00  0.00    +0.003 A 
ATOM     16  C   UNL     1       1.447   5.672 -10.908  0.00  0.00    -0.001 A 
ENDROOT
BRANCH   1  17
ATOM     17  C   UNL     1       2.555   4.206  -7.716  0.00  0.00    +0.043 C 
BRANCH  17  18
ATOM     18  C   UNL     1       1.669   4.083  -6.481  0.00  0.00    +0.077 C 
BRANCH  18  20
ATOM     19  C   UNL     1       0.985   5.162  -4.541  0.00  0.00    +0.090 C 
ATOM     20  N   UNL     1       2.036   5.150  -5.558  0.00  0.00    -0.270 NA
ATOM     21  C   UNL     1       3.287   4.853  -4.871  0.00  0.00    +0.090 C 
ENDBRANCH  18  20
ENDBRANCH  17  18
ENDBRANCH   1  17
TORSDOF 3
ENDMDL
MODEL 2
REMARK VINA RESULT:      -7.6      3.177      7.372
REMARK  Name = 
REMARK  3 active torsions:
REMARK  status: ('A' for Active; 'I' for Inactive)
REMARK    1  A    between atoms: N_2  and  C_4
REMARK    2  A    between atoms: C_4  and  C_5
REMARK    3  A    between atoms: C_5  and  C_6
REMARK                            x       y       z     vdW  Elec       q    Type
REMARK                         _______ _______ _______ _____ _____    ______ ____
ROOT
ATOM      1  C   UNL     1       2.233   5.867  -7.053  0.00  0.00    -0.025 C 
ATOM      2  C   UNL     1       1.816   5.868  -5.788  0.00  0.00    -0.001 C 
ATOM      3  C   UNL     1       0.364   5.709  -5.622  0.00  0.00    +0.034 A 
ATOM      4  C   UNL     1      -0.356   6.034  -4.479  0.00  0.00    +0.139 A 
ATOM      5  C   UNL     1      -1.717   6.206  -4.552  0.00  0.00    +0.037 A 
ATOM      6  C   UNL     1      -2.319   6.111  -5.795  0.00  0.00    +0.003 A 
ATOM      7  C   UNL     1      -1.648   5.435  -6.804  0.00  0.00    +0.000 A 
ATOM      8  O   UNL     1       0.193   6.338  -3.229  0.00  0.00    -0.471 OA
ATOM      9  C   UNL     1       1.368   5.762  -2.667  0.00  0.00    +0.232 C 
ATOM     10  C   UNL     1       2.592   6.170  -3.422  0.00  0.00    +0.021 A 
ATOM     11  C   UNL     1       3.566   6.741  -2.616  0.00  0.00    -0.001 A 
ATOM     12  C   UNL     1       4.368   7.739  -3.148  0.00  0.00    -0.000 A 
ATOM     13  C   UNL     1       4.665   7.662  -4.503  0.00  0.00    -0.000 A 
ATOM     14  C   UNL     1       3.927   6.819  -5.325  0.00  0.00    -0.000 A 
ATOM     15  C   UNL     1      -0.272   5.576  -6.849  0.00  0.00    +0.003 A 
ATOM     16  C   UNL     1       2.864   6.104  -4.785  0.00  0.00    -0.001 A 
ENDROOT
BRANCH   1  17
ATOM     17  C   UNL     1       1.430   5.037  -8.005  0.00  0.00    +0.043 C 
BRANCH  17  18
ATOM     18  C   UNL     1       2.446   4.461  -8.986  0.00  0.00    +0.077 C 
BRANCH  18  20
ATOM     19  C   UNL     1       4.403   5.120 -10.049  0.00  0.00    +0.090 C 
ATOM     20  N   UNL     1       3.055   5.572  -9.706  0.00  0.00    -0.270 NA
ATOM     21  C   UNL     1       2.363   5.834 -10.963  0.00  0.00    +0.090 C 
ENDBRANCH  18  20
ENDBRANCH  17  18
ENDBRANCH   1  17
TORSDOF 3
ENDMDL
MODEL 3
REMARK VINA RESULT:      -7.6      2.800      4.983
REMARK  Name = 
REMARK  3 active torsions:
REMARK  status: ('A' for Active; 'I' for Inactive)
REMARK    1  A    between atoms: N_2  and  C_4
REMARK    2  A    between atoms: C_4  and  C_5
REMARK    3  A    between atoms: C_5  and  C_6
REMARK                            x       y       z     vdW  Elec       q    Type
REMARK                         _______ _______ _______ _____ _____    ______ ____
ROOT
ATOM      1  C   UNL     1       2.020   7.137  -5.121  0.00  0.00    -0.025 C 
ATOM      2  C   UNL     1       1.215   6.534  -5.995  0.00  0.00    -0.001 C 
ATOM      3  C   UNL     1       1.849   6.203  -7.280  0.00  0.00    +0.034 A 
ATOM      4  C   UNL     1       1.173   5.920  -8.460  0.00  0.00    +0.139 A 
ATOM      5  C   UNL     1       1.832   5.997  -9.663  0.00  0.00    +0.037 A 
ATOM      6  C   UNL     1       3.149   6.425  -9.657  0.00  0.00    +0.003 A 
ATOM      7  C   UNL     1       3.868   6.332  -8.474  0.00  0.00    +0.000 A 
ATOM      8  O   UNL     1      -0.198   5.671  -8.575  0.00  0.00    -0.471 OA
ATOM      9  C   UNL     1      -1.012   4.998  -7.618  0.00  0.00    +0.232 C 
ATOM     10  C   UNL     1      -1.154   5.799  -6.364  0.00  0.00    +0.021 A 
ATOM     11  C   UNL     1      -2.475   6.021  -6.004  0.00  0.00    -0.001 A 
ATOM     12  C   UNL     1      -2.801   7.212  -5.375  0.00  0.00    -0.000 A 
ATOM     13  C   UNL     1      -1.840   7.777  -4.545  0.00  0.00    -0.000 A 
ATOM     14  C   UNL     1      -0.523   7.340  -4.616  0.00  0.00    -0.000 A 
ATOM     15  C   UNL     1       3.182   6.587  -7.299  0.00  0.00    +0.003 A 
ATOM     16  C   UNL     1      -0.178   6.376  -5.557  0.00  0.00    -0.001 A 
ENDROOT
BRANCH   1  17
ATOM     17  C   UNL     1       3.467   6.764  -5.198  0.00  0.00    +0.043 C 
BRANCH  17  18
ATOM     18  C   UNL     1       4.015   6.998  -3.794  0.00  0.00    +0.077 C 
BRANCH  18  20
ATOM     19  C   UNL     1       3.817   5.228  -2.304  0.00  0.00    +0.090 C 
ATOM     20  N   UNL     1       4.671   5.772  -3.359  0.00  0.00    -0.270 NA
ATOM     21  C   UNL     1       4.709   4.780  -4.427  0.00  0.00    +0.090 C 
ENDBRANCH  18  20
ENDBRANCH  17  18
ENDBRANCH   1  17
TORSDOF 3
ENDMDL
MODEL 4
REMARK VINA RESULT:      -7.5      2.277      5.621
REMARK  Name = 
REMARK  3 active torsions:
REMARK  status: ('A' for Active; 'I' for Inactive)
REMARK    1  A    between atoms: N_2  and  C_4
REMARK    2  A    between atoms: C_4  and  C_5
REMARK    3  A    between atoms: C_5  and  C_6
REMARK                            x       y       z     vdW  Elec       q    Type
REMARK                         _______ _______ _______ _____ _____    ______ ____
ROOT
ATOM      1  C   UNL     1       2.703   6.076 -11.150  0.00  0.00    -0.025 C 
ATOM      2  C   UNL     1       3.505   5.800 -10.124  0.00  0.00    -0.001 C 
ATOM      3  C   UNL     1       2.808   5.553  -8.852  0.00  0.00    +0.034 A 
ATOM      4  C   UNL     1       3.391   5.607  -7.592  0.00  0.00    +0.139 A 
ATOM      5  C   UNL     1       2.600   5.737  -6.477  0.00  0.00    +0.037 A 
ATOM      6  C   UNL     1       1.234   5.876  -6.660  0.00  0.00    +0.003 A 
ATOM      7  C   UNL     1       0.681   5.450  -7.859  0.00  0.00    +0.000 A 
ATOM      8  O   UNL     1       4.763   5.669  -7.331  0.00  0.00    -0.471 OA
ATOM      9  C   UNL     1       5.791   5.035  -8.088  0.00  0.00    +0.232 C 
ATOM     10  C   UNL     1       5.915   5.639  -9.450  0.00  0.00    +0.021 A 
ATOM     11  C   UNL     1       7.201   6.069  -9.741  0.00  0.00    -0.001 A 
ATOM     12  C   UNL     1       7.362   7.186 -10.546  0.00  0.00    -0.000 A 
ATOM     13  C   UNL     1       6.409   7.402 -11.533  0.00  0.00    -0.000 A 
ATOM     14  C   UNL     1       5.200   6.718 -11.487  0.00  0.00    -0.000 A 
ATOM     15  C   UNL     1       1.432   5.651  -9.004  0.00  0.00    +0.003 A 
ATOM     16  C   UNL     1       4.943   5.865 -10.419  0.00  0.00    -0.001 A 
ENDROOT
BRANCH   1  17
ATOM     17  C   UNL     1       1.354   5.429 -11.119  0.00  0.00    +0.043 C 
BRANCH  17  18
ATOM     18  C   UNL     1       0.702   5.799 -12.447  0.00  0.00    +0.077 C 
BRANCH  18  20
ATOM     19  C   UNL     1       0.357   7.580 -13.898  0.00  0.00    +0.090 C 
ATOM     20  N   UNL     1       0.558   7.249 -12.487  0.00  0.00    -0.270 NA
ATOM     21  C   UNL     1      -0.638   7.685 -11.776  0.00  0.00    +0.090 C 
ENDBRANCH  18  20
ENDBRANCH  17  18
ENDBRANCH   1  17
TORSDOF 3
ENDMDL
MODEL 5
REMARK VINA RESULT:      -7.5      1.655      4.669
REMARK  Name = 
REMARK  3 active torsions:
REMARK  status: ('A' for Active; 'I' for Inactive)
REMARK    1  A    between atoms: N_2  and  C_4
REMARK    2  A    between atoms: C_4  and  C_5
REMARK    3  A    between atoms: C_5  and  C_6
REMARK                            x       y       z     vdW  Elec       q    Type
REMARK                         _______ _______ _______ _____ _____    ______ ____
ROOT
ATOM      1  C   UNL     1       3.804   6.425  -9.458  0.00  0.00    -0.025 C 
ATOM      2  C   UNL     1       4.221   6.400 -10.723  0.00  0.00    -0.001 C 
ATOM      3  C   UNL     1       3.159   6.163 -11.712  0.00  0.00    +0.034 A 
ATOM      4  C   UNL     1       3.359   5.735 -13.018  0.00  0.00    +0.139 A 
ATOM      5  C   UNL     1       2.316   5.189 -13.727  0.00  0.00    +0.037 A 
ATOM      6  C   UNL     1       1.103   5.026 -13.078  0.00  0.00    +0.003 A 
ATOM      7  C   UNL     1       0.852   5.786 -11.945  0.00  0.00    +0.000 A 
ATOM      8  O   UNL     1       4.589   5.684 -13.681  0.00  0.00    -0.471 OA
ATOM      9  C   UNL     1       5.667   6.601 -13.519  0.00  0.00    +0.232 C 
ATOM     10  C   UNL     1       6.276   6.493 -12.158  0.00  0.00    +0.021 A 
ATOM     11  C   UNL     1       7.644   6.272 -12.187  0.00  0.00    -0.001 A 
ATOM     12  C   UNL     1       8.215   5.499 -11.188  0.00  0.00    -0.000 A 
ATOM     13  C   UNL     1       7.633   5.558  -9.928  0.00  0.00    -0.000 A 
ATOM     14  C   UNL     1       6.364   6.103  -9.777  0.00  0.00    -0.000 A 
ATOM     15  C   UNL     1       1.921   6.028 -11.100  0.00  0.00    +0.003 A 
ATOM     16  C   UNL     1       5.672   6.535 -10.905  0.00  0.00    -0.001 A 
ENDROOT
BRANCH   1  17
ATOM     17  C   UNL     1       2.413   6.932  -9.238  0.00  0.00    +0.043 C 
BRANCH  17  18
ATOM     18  C   UNL     1       2.402   7.462  -7.808  0.00  0.00    +0.077 C 
BRANCH  18  20
ATOM     19  C   UNL     1       3.427   7.057  -5.763  0.00  0.00    +0.090 C 
ATOM     20  N   UNL     1       2.847   6.388  -6.928  0.00  0.00    -0.270 NA
ATOM     21  C   UNL     1       1.724   5.594  -6.447  0.00  0.00    +0.090 C 
ENDBRANCH  18  20
ENDBRANCH  17  18
ENDBRANCH   1  17
TORSDOF 3
ENDMDL
MODEL 6
REMARK VINA RESULT:      -7.5      1.763      4.477
REMARK  Name = 
REMARK  3 active torsions:
REMARK  status: ('A' for Active; 'I' for Inactive)
REMARK    1  A    between atoms: N_2  and  C_4
REMARK    2  A    between atoms: C_4  and  C_5
REMARK    3  A    between atoms: C_5  and  C_6
REMARK                            x       y       z     vdW  Elec       q    Type
REMARK                         _______ _______ _______ _____ _____    ______ ____
ROOT
ATOM      1  C   UNL     1       4.846   5.455  -7.754  0.00  0.00    -0.025 C 
ATOM      2  C   UNL     1       4.674   5.826  -9.022  0.00  0.00    -0.001 C 
ATOM      3  C   UNL     1       3.283   5.763  -9.494  0.00  0.00    +0.034 A 
ATOM      4  C   UNL     1       2.886   5.739 -10.825  0.00  0.00    +0.139 A 
ATOM      5  C   UNL     1       1.624   5.305 -11.156  0.00  0.00    +0.037 A 
ATOM      6  C   UNL     1       0.808   4.841 -10.138  0.00  0.00    +0.003 A 
ATOM      7  C   UNL     1       1.093   5.225  -8.835  0.00  0.00    +0.000 A 
ATOM      8  O   UNL     1       3.706   6.004 -11.926  0.00  0.00    -0.471 OA
ATOM      9  C   UNL     1       4.773   6.948 -11.969  0.00  0.00    +0.232 C 
ATOM     10  C   UNL     1       5.907   6.530 -11.089  0.00  0.00    +0.021 A 
ATOM     11  C   UNL     1       7.122   6.473 -11.756  0.00  0.00    -0.001 A 
ATOM     12  C   UNL     1       8.047   5.516 -11.368  0.00  0.00    -0.000 A 
ATOM     13  C   UNL     1       8.071   5.161 -10.025  0.00  0.00    -0.000 A 
ATOM     14  C   UNL     1       7.006   5.506  -9.201  0.00  0.00    -0.000 A 
ATOM     15  C   UNL     1       2.428   5.334  -8.489  0.00  0.00    +0.003 A 
ATOM     16  C   UNL     1       5.907   6.158  -9.749  0.00  0.00    -0.001 A 
ENDROOT
BRANCH   1  17
ATOM     17  C   UNL     1       3.701   5.730  -6.831  0.00  0.00    +0.043 C 
BRANCH  17  18
ATOM     18  C   UNL     1       4.330   5.888  -5.451  0.00  0.00    +0.077 C 
BRANCH  18  20
ATOM     19  C   UNL     1       2.927   7.015  -3.982  0.00  0.00    +0.090 C 
ATOM     20  N   UNL     1       3.999   7.218  -4.956  0.00  0.00    -0.270 NA
ATOM     21  C   UNL     1       5.118   7.812  -4.236  0.00  0.00    +0.090 C 
ENDBRANCH  18  20
ENDBRANCH  17  18
ENDBRANCH   1  17
TORSDOF 3
ENDMDL
MODEL 7
REMARK VINA RESULT:      -7.4      3.338      6.117
REMARK  Name = 
REMARK  3 active torsions:
REMARK  status: ('A' for Active; 'I' for Inactive)
REMARK    1  A    between atoms: N_2  and  C_4
REMARK    2  A    between atoms: C_4  and  C_5
REMARK    3  A    between atoms: C_5  and  C_6
REMARK                            x       y       z     vdW  Elec       q    Type
REMARK                         _______ _______ _______ _____ _____    ______ ____
ROOT
ATOM      1  C   UNL     1       2.358   5.369  -7.222  0.00  0.00    -0.025 C 
ATOM      2  C   UNL     1       1.766   5.796  -6.108  0.00  0.00    -0.001 C 
ATOM      3  C   UNL     1       2.622   5.771  -4.912  0.00  0.00    +0.034 A 
ATOM      4  C   UNL     1       2.169   5.808  -3.599  0.00  0.00    +0.139 A 
ATOM      5  C   UNL     1       2.996   5.405  -2.578  0.00  0.00    +0.037 A 
ATOM      6  C   UNL     1       4.245   4.907  -2.911  0.00  0.00    +0.003 A 
ATOM      7  C   UNL     1       4.778   5.232  -4.150  0.00  0.00    +0.000 A 
ATOM      8  O   UNL     1       0.866   6.110  -3.194  0.00  0.00    -0.471 OA
ATOM      9  C   UNL     1      -0.012   7.042  -3.819  0.00  0.00    +0.232 C 
ATOM     10  C   UNL     1      -0.429   6.573  -5.176  0.00  0.00    +0.021 A 
ATOM     11  C   UNL     1      -1.805   6.529  -5.340  0.00  0.00    -0.001 A 
ATOM     12  C   UNL     1      -2.347   5.545  -6.153  0.00  0.00    -0.000 A 
ATOM     13  C   UNL     1      -1.589   5.133  -7.243  0.00  0.00    -0.000 A 
ATOM     14  C   UNL     1      -0.239   5.455  -7.307  0.00  0.00    -0.000 A 
ATOM     15  C   UNL     1       3.895   5.309  -5.213  0.00  0.00    +0.003 A 
ATOM     16  C   UNL     1       0.346   6.144  -6.249  0.00  0.00    -0.001 A 
ENDROOT
BRANCH   1  17
ATOM     17  C   UNL     1       3.831   5.619  -7.317  0.00  0.00    +0.043 C 
BRANCH  17  18
ATOM     18  C   UNL     1       4.051   6.178  -8.719  0.00  0.00    +0.077 C 
BRANCH  18  20
ATOM     19  C   UNL     1       4.500   5.342 -10.839  0.00  0.00    +0.090 C 
ATOM     20  N   UNL     1       4.916   5.252  -9.440  0.00  0.00    -0.270 NA
ATOM     21  C   UNL     1       6.310   5.674  -9.384  0.00  0.00    +0.090 C 
ENDBRANCH  18  20
ENDBRANCH  17  18
ENDBRANCH   1  17
TORSDOF 3
ENDMDL
MODEL 8
REMARK VINA RESULT:      -7.4      4.621      7.449
REMARK  Name = 
REMARK  3 active torsions:
REMARK  status: ('A' for Active; 'I' for Inactive)
REMARK    1  A    between atoms: N_2  and  C_4
REMARK    2  A    between atoms: C_4  and  C_5
REMARK    3  A    between atoms: C_5  and  C_6
REMARK                            x       y       z     vdW  Elec       q    Type
REMARK                         _______ _______ _______ _____ _____    ______ ____
ROOT
ATOM      1  C   UNL     1       0.395   5.695  -2.561  0.00  0.00    -0.025 C 
ATOM      2  C   UNL     1       0.894   6.008  -3.756  0.00  0.00    -0.001 C 
ATOM      3  C   UNL     1      -0.097   6.041  -4.842  0.00  0.00    +0.034 A 
ATOM      4  C   UNL     1       0.195   5.976  -6.199  0.00  0.00    +0.139 A 
ATOM      5  C   UNL     1      -0.789   5.637  -7.096  0.00  0.00    +0.037 A 
ATOM      6  C   UNL     1      -2.037   5.304  -6.597  0.00  0.00    +0.003 A 
ATOM      7  C   UNL     1      -2.376   5.735  -5.322  0.00  0.00    +0.000 A 
ATOM      8  O   UNL     1       1.466   6.106  -6.766  0.00  0.00    -0.471 OA
ATOM      9  C   UNL     1       2.514   6.949  -6.294  0.00  0.00    +0.232 C 
ATOM     10  C   UNL     1       3.035   6.483  -4.972  0.00  0.00    +0.021 A 
ATOM     11  C   UNL     1       4.406   6.282  -4.966  0.00  0.00    -0.001 A 
ATOM     12  C   UNL     1       4.926   5.271  -4.172  0.00  0.00    -0.000 A 
ATOM     13  C   UNL     1       4.263   4.992  -2.983  0.00  0.00    -0.000 A 
ATOM     14  C   UNL     1       2.976   5.475  -2.780  0.00  0.00    -0.000 A 
ATOM     15  C   UNL     1      -1.369   5.745  -4.373  0.00  0.00    +0.003 A 
ATOM     16  C   UNL     1       2.351   6.189  -3.797  0.00  0.00    -0.001 A 
ENDROOT
BRANCH   1  17
ATOM     17  C   UNL     1      -1.017   6.122  -2.309  0.00  0.00    +0.043 C 
BRANCH  17  18
ATOM     18  C   UNL     1      -1.190   6.059  -0.795  0.00  0.00    +0.077 C 
BRANCH  18  20
ATOM     19  C   UNL     1      -1.970   7.879   0.420  0.00  0.00    +0.090 C 
ATOM     20  N   UNL     1      -0.781   7.345  -0.244  0.00  0.00    -0.270 NA
ATOM     21  C   UNL     1       0.241   7.183   0.783  0.00  0.00    +0.090 C 
ENDBRANCH  18  20
ENDBRANCH  17  18
ENDBRANCH   1  17
TORSDOF 3
ENDMDL
MODEL 9
REMARK VINA RESULT:      -7.3      2.768      5.441
REMARK  Name = 
REMARK  3 active torsions:
REMARK  status: ('A' for Active; 'I' for Inactive)
REMARK    1  A    between atoms: N_2  and  C_4
REMARK    2  A    between atoms: C_4  and  C_5
REMARK    3  A    between atoms: C_5  and  C_6
REMARK                            x       y       z     vdW  Elec       q    Type
REMARK                         _______ _______ _______ _____ _____    ______ ____
ROOT
ATOM      1  C   UNL     1       0.552   5.212  -9.443  0.00  0.00    -0.025 C 
ATOM      2  C   UNL     1       1.132   5.729  -8.361  0.00  0.00    -0.001 C 
ATOM      3  C   UNL     1       2.602   5.722  -8.394  0.00  0.00    +0.034 A 
ATOM      4  C   UNL     1       3.432   5.854  -7.287  0.00  0.00    +0.139 A 
ATOM      5  C   UNL     1       4.747   5.463  -7.366  0.00  0.00    +0.037 A 
ATOM      6  C   UNL     1       5.183   4.883  -8.546  0.00  0.00    +0.003 A 
ATOM      7  C   UNL     1       4.454   5.113  -9.704  0.00  0.00    +0.000 A 
ATOM      8  O   UNL     1       3.028   6.245  -6.007  0.00  0.00    -0.471 OA
ATOM      9  C   UNL     1       2.003   7.187  -5.702  0.00  0.00    +0.232 C 
ATOM     10  C   UNL     1       0.654   6.669  -6.085  0.00  0.00    +0.021 A 
ATOM     11  C   UNL     1      -0.255   6.688  -5.039  0.00  0.00    -0.001 A 
ATOM     12  C   UNL     1      -1.218   5.692  -4.976  0.00  0.00    -0.000 A 
ATOM     13  C   UNL     1      -1.685   5.183  -6.182  0.00  0.00    -0.000 A 
ATOM     14  C   UNL     1      -0.983   5.430  -7.355  0.00  0.00    -0.000 A 
ATOM     15  C   UNL     1       3.078   5.179  -9.579  0.00  0.00    +0.003 A 
ATOM     16  C   UNL     1       0.210   6.143  -7.294  0.00  0.00    -0.001 A 
ENDROOT
BRANCH   1  17
ATOM     17  C   UNL     1       1.299   5.379 -10.728  0.00  0.00    +0.043 C 
BRANCH  17  18
ATOM     18  C   UNL     1       0.345   4.886 -11.812  0.00  0.00    +0.077 C 
BRANCH  18  20
ATOM     19  C   UNL     1       1.964   6.244 -12.776  0.00  0.00    +0.090 C 
ATOM     20  N   UNL     1       0.729   5.517 -13.068  0.00  0.00    -0.270 NA
ATOM     21  C   UNL     1       1.051   4.524 -14.085  0.00  0.00    +0.090 C 
ENDBRANCH  18  20
ENDBRANCH  17  18
ENDBRANCH   1  17
TORSDOF 3
ENDMDL
