MODEL 1
REMARK VINA RESULT:      -9.1      0.000      0.000
REMARK  Name = 
REMARK  0 active torsions:
REMARK  status: ('A' for Active; 'I' for Inactive)
REMARK                            x       y       z     vdW  Elec       q    Type
REMARK                         _______ _______ _______ _____ _____    ______ ____
ROOT
ATOM      1  C   UNL     1       3.118   4.369  -6.496  0.00  0.00    +0.003 C 
ATOM      2  C   UNL     1       2.955   5.715  -6.886  0.00  0.00    +0.028 C 
ATOM      3  C   UNL     1       3.779   6.007  -8.309  0.00  0.00    +0.152 C 
ATOM      4  O   UNL     1       5.056   5.301  -7.793  0.00  0.00    -0.223 OA
ATOM      5  C   UNL     1       3.220   4.581  -8.996  0.00  0.00    +0.033 C 
ATOM      6  C   UNL     1       1.854   4.464  -8.463  0.00  0.00    +0.003 C 
ATOM      7  C   UNL     1       1.609   5.934  -7.790  0.00  0.00    +0.002 C 
ATOM      8  C   UNL     1       0.615   5.348  -6.535  0.00  0.00    +0.001 C 
ATOM      9  C   UNL     1      -0.664   5.369  -7.508  0.00  0.00    +0.004 C 
ATOM     10  C   UNL     1      -1.892   5.584  -6.719  0.00  0.00    +0.022 C 
ATOM     11  C   UNL     1      -1.552   5.631  -5.255  0.00  0.00    -0.042 C 
ATOM     12  C   UNL     1      -0.559   6.593  -4.772  0.00  0.00    +0.016 C 
ATOM     13  C   UNL     1       0.156   6.283  -3.553  0.00  0.00    +0.004 C 
ATOM     14  C   UNL     1      -1.315   7.911  -4.617  0.00  0.00    +0.012 C 
ATOM     15  C   UNL     1      -2.180   7.781  -3.371  0.00  0.00    +0.069 C 
ATOM     16  C   UNL     1      -2.849   6.460  -3.335  0.00  0.00    +0.173 C 
ATOM     17  O   UNL     1      -3.907   6.336  -2.645  0.00  0.00    -0.291 OA
ATOM     18  C   UNL     1      -2.629   5.550  -4.466  0.00  0.00    +0.029 C 
ATOM     19  C   UNL     1       0.419   6.965  -6.023  0.00  0.00    +0.003 C 
ATOM     20  C   UNL     1       1.803   6.917  -5.142  0.00  0.00    +0.000 C 
ATOM     21  C   UNL     1       2.959   6.884  -6.069  0.00  0.00    +0.002 C 
ENDROOT
TORSDOF 0
ENDMDL
MODEL 2
REMARK VINA RESULT:      -8.8      1.313      6.235
REMARK  Name = 
REMARK  0 active torsions:
REMARK  status: ('A' for Active; 'I' for Inactive)
REMARK                            x       y       z     vdW  Elec       q    Type
REMARK                         _______ _______ _______ _____ _____    ______ ____
ROOT
ATOM      1  C   UNL     1      -2.761   5.041  -3.556  0.00  0.00    +0.003 C 
ATOM      2  C   UNL     1      -2.304   6.370  -3.680  0.00  0.00    +0.028 C 
ATOM      3  C   UNL     1      -2.664   7.234  -2.298  0.00  0.00    +0.152 C 
ATOM      4  O   UNL     1      -4.122   6.715  -2.273  0.00  0.00    -0.223 OA
ATOM      5  C   UNL     1      -2.158   5.977  -1.306  0.00  0.00    +0.033 C 
ATOM      6  C   UNL     1      -1.017   5.410  -2.041  0.00  0.00    +0.003 C 
ATOM      7  C   UNL     1      -0.748   6.530  -3.199  0.00  0.00    +0.002 C 
ATOM      8  C   UNL     1      -0.223   5.402  -4.365  0.00  0.00    +0.001 C 
ATOM      9  C   UNL     1       1.258   5.413  -3.741  0.00  0.00    +0.004 C 
ATOM     10  C   UNL     1       2.249   5.111  -4.794  0.00  0.00    +0.022 C 
ATOM     11  C   UNL     1       1.540   4.811  -6.085  0.00  0.00    -0.042 C 
ATOM     12  C   UNL     1       0.607   5.792  -6.644  0.00  0.00    +0.016 C 
ATOM     13  C   UNL     1      -0.446   5.314  -7.514  0.00  0.00    +0.004 C 
ATOM     14  C   UNL     1       1.478   6.805  -7.383  0.00  0.00    +0.012 C 
ATOM     15  C   UNL     1       1.950   6.133  -8.664  0.00  0.00    +0.069 C 
ATOM     16  C   UNL     1       2.383   4.742  -8.396  0.00  0.00    +0.173 C 
ATOM     17  O   UNL     1       3.187   4.191  -9.209  0.00  0.00    -0.291 OA
ATOM     18  C   UNL     1       2.342   4.268  -7.007  0.00  0.00    +0.029 C 
ATOM     19  C   UNL     1       0.064   6.717  -5.415  0.00  0.00    +0.003 C 
ATOM     20  C   UNL     1      -1.496   6.730  -5.923  0.00  0.00    +0.000 C 
ATOM     21  C   UNL     1      -2.353   7.224  -4.820  0.00  0.00    +0.002 C 
ENDROOT
TORSDOF 0
ENDMDL
MODEL 3
REMARK VINA RESULT:      -8.7      3.119      5.632
REMARK  Name = 
REMARK  0 active torsions:
REMARK  status: ('A' for Active; 'I' for Inactive)
REMARK                            x       y       z     vdW  Elec       q    Type
REMARK                         _______ _______ _______ _____ _____    ______ ____
ROOT
ATOM      1  C   UNL     1       6.105   7.588 -11.268  0.00  0.00    +0.003 C 
ATOM      2  C   UNL     1       5.707   6.257 -11.512  0.00  0.00    +0.028 C 
ATOM      3  C   UNL     1       6.949   5.407 -12.235  0.00  0.00    +0.152 C 
ATOM      4  O   UNL     1       7.214   6.536 -13.260  0.00  0.00    -0.223 OA
ATOM      5  C   UNL     1       8.085   6.047 -11.177  0.00  0.00    +0.033 C 
ATOM      6  C   UNL     1       7.346   6.143  -9.910  0.00  0.00    +0.003 C 
ATOM      7  C   UNL     1       5.989   5.287 -10.224  0.00  0.00    +0.002 C 
ATOM      8  C   UNL     1       4.988   6.243  -9.228  0.00  0.00    +0.001 C 
ATOM      9  C   UNL     1       5.443   5.407  -7.932  0.00  0.00    +0.004 C 
ATOM     10  C   UNL     1       4.362   5.410  -6.927  0.00  0.00    +0.022 C 
ATOM     11  C   UNL     1       3.222   6.263  -7.412  0.00  0.00    -0.042 C 
ATOM     12  C   UNL     1       2.602   5.974  -8.706  0.00  0.00    +0.016 C 
ATOM     13  C   UNL     1       1.941   7.056  -9.403  0.00  0.00    +0.004 C 
ATOM     14  C   UNL     1       1.613   4.841  -8.439  0.00  0.00    +0.012 C 
ATOM     15  C   UNL     1       0.425   5.453  -7.710  0.00  0.00    +0.069 C 
ATOM     16  C   UNL     1       0.883   6.388  -6.657  0.00  0.00    +0.173 C 
ATOM     17  O   UNL     1       0.099   6.645  -5.692  0.00  0.00    -0.291 OA
ATOM     18  C   UNL     1       2.330   6.535  -6.453  0.00  0.00    +0.029 C 
ATOM     19  C   UNL     1       3.703   5.189  -9.620  0.00  0.00    +0.003 C 
ATOM     20  C   UNL     1       3.364   6.017 -10.996  0.00  0.00    +0.000 C 
ATOM     21  C   UNL     1       4.448   5.776 -11.977  0.00  0.00    +0.002 C 
ENDROOT
TORSDOF 0
ENDMDL
MODEL 4
REMARK VINA RESULT:      -8.5      1.220      5.971
REMARK  Name = 
REMARK  0 active torsions:
REMARK  status: ('A' for Active; 'I' for Inactive)
REMARK                            x       y       z     vdW  Elec       q    Type
REMARK                         _______ _______ _______ _____ _____    ______ ____
ROOT
ATOM      1  C   UNL     1      -1.124   7.677  -4.500  0.00  0.00    +0.003 C 
ATOM      2  C   UNL     1      -0.646   6.378  -4.225  0.00  0.00    +0.028 C 
ATOM      3  C   UNL     1      -1.795   5.508  -3.383  0.00  0.00    +0.152 C 
ATOM      4  O   UNL     1      -2.048   6.671  -2.393  0.00  0.00    -0.223 OA
ATOM      5  C   UNL     1      -3.028   6.043  -4.388  0.00  0.00    +0.033 C 
ATOM      6  C   UNL     1      -2.378   6.113  -5.706  0.00  0.00    +0.003 C 
ATOM      7  C   UNL     1      -0.964   5.336  -5.447  0.00  0.00    +0.002 C 
ATOM      8  C   UNL     1      -0.078   6.288  -6.550  0.00  0.00    +0.001 C 
ATOM      9  C   UNL     1      -0.575   5.372  -7.773  0.00  0.00    +0.004 C 
ATOM     10  C   UNL     1       0.437   5.377  -8.848  0.00  0.00    +0.022 C 
ATOM     11  C   UNL     1       1.563   6.303  -8.480  0.00  0.00    -0.042 C 
ATOM     12  C   UNL     1       2.280   6.105  -7.218  0.00  0.00    +0.016 C 
ATOM     13  C   UNL     1       2.930   7.249  -6.616  0.00  0.00    +0.004 C 
ATOM     14  C   UNL     1       3.303   5.008  -7.501  0.00  0.00    +0.012 C 
ATOM     15  C   UNL     1       4.410   5.639  -8.334  0.00  0.00    +0.069 C 
ATOM     16  C   UNL     1       3.838   6.501  -9.395  0.00  0.00    +0.173 C 
ATOM     17  O   UNL     1       4.544   6.747 -10.421  0.00  0.00    -0.291 OA
ATOM     18  C   UNL     1       2.376   6.570  -9.507  0.00  0.00    +0.029 C 
ATOM     19  C   UNL     1       1.281   5.315  -6.198  0.00  0.00    +0.003 C 
ATOM     20  C   UNL     1       1.667   6.222  -4.887  0.00  0.00    +0.000 C 
ATOM     21  C   UNL     1       0.662   5.978  -3.825  0.00  0.00    +0.002 C 
ENDROOT
TORSDOF 0
ENDMDL
MODEL 5
REMARK VINA RESULT:      -8.4      3.342      8.092
REMARK  Name = 
REMARK  0 active torsions:
REMARK  status: ('A' for Active; 'I' for Inactive)
REMARK                            x       y       z     vdW  Elec       q    Type
REMARK                         _______ _______ _______ _____ _____    ______ ____
ROOT
ATOM      1  C   UNL     1       1.535   4.214  -9.147  0.00  0.00    +0.003 C 
ATOM      2  C   UNL     1       1.646   5.590  -8.859  0.00  0.00    +0.028 C 
ATOM      3  C   UNL     1       0.780   5.962  -7.481  0.00  0.00    +0.152 C 
ATOM      4  O   UNL     1      -0.462   5.176  -7.968  0.00  0.00    -0.223 OA
ATOM      5  C   UNL     1       1.366   4.613  -6.674  0.00  0.00    +0.033 C 
ATOM      6  C   UNL     1       2.748   4.502  -7.167  0.00  0.00    +0.003 C 
ATOM      7  C   UNL     1       2.962   5.923  -7.946  0.00  0.00    +0.002 C 
ATOM      8  C   UNL     1       4.004   5.276  -9.131  0.00  0.00    +0.001 C 
ATOM      9  C   UNL     1       5.258   5.415  -8.134  0.00  0.00    +0.004 C 
ATOM     10  C   UNL     1       6.498   5.610  -8.911  0.00  0.00    +0.022 C 
ATOM     11  C   UNL     1       6.192   5.532 -10.382  0.00  0.00    -0.042 C 
ATOM     12  C   UNL     1       5.181   6.421 -10.959  0.00  0.00    +0.016 C 
ATOM     13  C   UNL     1       4.505   5.994 -12.165  0.00  0.00    +0.004 C 
ATOM     14  C   UNL     1       5.897   7.748 -11.200  0.00  0.00    +0.012 C 
ATOM     15  C   UNL     1       6.796   7.552 -12.412  0.00  0.00    +0.069 C 
ATOM     16  C   UNL     1       7.507   6.255 -12.331  0.00  0.00    +0.173 C 
ATOM     17  O   UNL     1       8.585   6.114 -12.987  0.00  0.00    -0.291 OA
ATOM     18  C   UNL     1       7.289   5.428 -11.138  0.00  0.00    +0.029 C 
ATOM     19  C   UNL     1       4.161   6.855  -9.761  0.00  0.00    +0.003 C 
ATOM     20  C   UNL     1       2.801   6.693 -10.666  0.00  0.00    +0.000 C 
ATOM     21  C   UNL     1       1.625   6.692  -9.764  0.00  0.00    +0.002 C 
ENDROOT
TORSDOF 0
ENDMDL
MODEL 6
REMARK VINA RESULT:      -8.4      3.038      6.530
REMARK  Name = 
REMARK  0 active torsions:
REMARK  status: ('A' for Active; 'I' for Inactive)
REMARK                            x       y       z     vdW  Elec       q    Type
REMARK                         _______ _______ _______ _____ _____    ______ ____
ROOT
ATOM      1  C   UNL     1       1.752   4.151  -6.388  0.00  0.00    +0.003 C 
ATOM      2  C   UNL     1       1.091   5.391  -6.515  0.00  0.00    +0.028 C 
ATOM      3  C   UNL     1       1.155   6.229  -5.072  0.00  0.00    +0.152 C 
ATOM      4  O   UNL     1       0.725   4.987  -4.255  0.00  0.00    -0.223 OA
ATOM      5  C   UNL     1       2.778   5.857  -4.857  0.00  0.00    +0.033 C 
ATOM      6  C   UNL     1       3.313   5.887  -6.227  0.00  0.00    +0.003 C 
ATOM      7  C   UNL     1       2.088   6.564  -7.072  0.00  0.00    +0.002 C 
ATOM      8  C   UNL     1       2.400   5.684  -8.499  0.00  0.00    +0.001 C 
ATOM      9  C   UNL     1       3.534   6.740  -8.928  0.00  0.00    +0.004 C 
ATOM     10  C   UNL     1       3.640   6.793 -10.399  0.00  0.00    +0.022 C 
ATOM     11  C   UNL     1       2.711   5.780 -11.011  0.00  0.00    -0.042 C 
ATOM     12  C   UNL     1       1.284   5.816 -10.683  0.00  0.00    +0.016 C 
ATOM     13  C   UNL     1       0.528   4.587 -10.793  0.00  0.00    +0.004 C 
ATOM     14  C   UNL     1       0.685   6.884 -11.595  0.00  0.00    +0.012 C 
ATOM     15  C   UNL     1       0.618   6.286 -12.993  0.00  0.00    +0.069 C 
ATOM     16  C   UNL     1       1.871   5.563 -13.313  0.00  0.00    +0.173 C 
ATOM     17  O   UNL     1       2.173   5.386 -14.533  0.00  0.00    -0.291 OA
ATOM     18  C   UNL     1       2.944   5.577 -12.312  0.00  0.00    +0.029 C 
ATOM     19  C   UNL     1       1.126   6.550  -9.235  0.00  0.00    +0.003 C 
ATOM     20  C   UNL     1       0.002   5.498  -8.664  0.00  0.00    +0.000 C 
ATOM     21  C   UNL     1      -0.125   5.684  -7.199  0.00  0.00    +0.002 C 
ENDROOT
TORSDOF 0
ENDMDL
MODEL 7
REMARK VINA RESULT:      -8.4      2.821      4.301
REMARK  Name = 
REMARK  0 active torsions:
REMARK  status: ('A' for Active; 'I' for Inactive)
REMARK                            x       y       z     vdW  Elec       q    Type
REMARK                         _______ _______ _______ _____ _____    ______ ____
ROOT
ATOM      1  C   UNL     1       2.165   4.283  -7.873  0.00  0.00    +0.003 C 
ATOM      2  C   UNL     1       2.359   5.681  -7.895  0.00  0.00    +0.028 C 
ATOM      3  C   UNL     1       1.514   6.359  -9.165  0.00  0.00    +0.152 C 
ATOM      4  O   UNL     1       2.034   5.299 -10.165  0.00  0.00    -0.223 OA
ATOM      5  C   UNL     1       0.152   5.436  -8.834  0.00  0.00    +0.033 C 
ATOM      6  C   UNL     1       0.150   5.358  -7.365  0.00  0.00    +0.003 C 
ATOM      7  C   UNL     1       1.278   6.465  -6.948  0.00  0.00    +0.002 C 
ATOM      8  C   UNL     1       1.803   5.615  -5.566  0.00  0.00    +0.001 C 
ATOM      9  C   UNL     1       0.599   6.236  -4.700  0.00  0.00    +0.004 C 
ATOM     10  C   UNL     1       0.998   6.334  -3.283  0.00  0.00    +0.022 C 
ATOM     11  C   UNL     1       2.369   5.744  -3.101  0.00  0.00    -0.042 C 
ATOM     12  C   UNL     1       3.488   6.253  -3.896  0.00  0.00    +0.016 C 
ATOM     13  C   UNL     1       4.610   5.372  -4.140  0.00  0.00    +0.004 C 
ATOM     14  C   UNL     1       3.958   7.514  -3.174  0.00  0.00    +0.012 C 
ATOM     15  C   UNL     1       4.708   7.059  -1.930  0.00  0.00    +0.069 C 
ATOM     16  C   UNL     1       3.975   5.966  -1.250  0.00  0.00    +0.173 C 
ATOM     17  O   UNL     1       4.195   5.766  -0.015  0.00  0.00    -0.291 OA
ATOM     18  C   UNL     1       2.687   5.548  -1.816  0.00  0.00    +0.029 C 
ATOM     19  C   UNL     1       2.871   6.911  -5.256  0.00  0.00    +0.003 C 
ATOM     20  C   UNL     1       4.016   6.283  -6.251  0.00  0.00    +0.000 C 
ATOM     21  C   UNL     1       3.555   6.417  -7.653  0.00  0.00    +0.002 C 
ENDROOT
TORSDOF 0
ENDMDL
MODEL 8
REMARK VINA RESULT:      -8.2      3.337      5.152
REMARK  Name = 
REMARK  0 active torsions:
REMARK  status: ('A' for Active; 'I' for Inactive)
REMARK                            x       y       z     vdW  Elec       q    Type
REMARK                         _______ _______ _______ _____ _____    ______ ____
ROOT
ATOM      1  C   UNL     1       0.531   6.970  -6.632  0.00  0.00    +0.003 C 
ATOM      2  C   UNL     1       1.229   5.747  -6.722  0.00  0.00    +0.028 C 
ATOM      3  C   UNL     1       1.373   5.282  -8.319  0.00  0.00    +0.152 C 
ATOM      4  O   UNL     1      -0.122   5.561  -8.605  0.00  0.00    -0.223 OA
ATOM      5  C   UNL     1       1.795   6.835  -8.798  0.00  0.00    +0.033 C 
ATOM      6  C   UNL     1       2.598   7.327  -7.668  0.00  0.00    +0.003 C 
ATOM      7  C   UNL     1       2.849   5.970  -6.793  0.00  0.00    +0.002 C 
ATOM      8  C   UNL     1       2.850   6.772  -5.288  0.00  0.00    +0.001 C 
ATOM      9  C   UNL     1       4.398   7.166  -5.475  0.00  0.00    +0.004 C 
ATOM     10  C   UNL     1       5.047   7.291  -4.156  0.00  0.00    +0.022 C 
ATOM     11  C   UNL     1       4.028   7.090  -3.068  0.00  0.00    -0.042 C 
ATOM     12  C   UNL     1       3.233   5.860  -3.039  0.00  0.00    +0.016 C 
ATOM     13  C   UNL     1       1.939   5.899  -2.393  0.00  0.00    +0.004 C 
ATOM     14  C   UNL     1       4.124   4.817  -2.368  0.00  0.00    +0.012 C 
ATOM     15  C   UNL     1       4.150   5.147  -0.882  0.00  0.00    +0.069 C 
ATOM     16  C   UNL     1       4.316   6.604  -0.674  0.00  0.00    +0.173 C 
ATOM     17  O   UNL     1       4.786   7.007   0.435  0.00  0.00    -0.291 OA
ATOM     18  C   UNL     1       4.475   7.452  -1.861  0.00  0.00    +0.029 C 
ATOM     19  C   UNL     1       3.184   5.265  -4.558  0.00  0.00    +0.003 C 
ATOM     20  C   UNL     1       1.592   4.870  -4.506  0.00  0.00    +0.000 C 
ATOM     21  C   UNL     1       1.122   4.599  -5.885  0.00  0.00    +0.002 C 
ENDROOT
TORSDOF 0
ENDMDL
MODEL 9
REMARK VINA RESULT:      -8.1      2.639      3.782
REMARK  Name = 
REMARK  0 active torsions:
REMARK  status: ('A' for Active; 'I' for Inactive)
REMARK                            x       y       z     vdW  Elec       q    Type
REMARK                         _______ _______ _______ _____ _____    ______ ____
ROOT
ATOM      1  C   UNL     1       3.043   4.290  -8.787  0.00  0.00    +0.003 C 
ATOM      2  C   UNL     1       3.685   5.533  -8.603  0.00  0.00    +0.028 C 
ATOM      3  C   UNL     1       3.665   6.407 -10.025  0.00  0.00    +0.152 C 
ATOM      4  O   UNL     1       4.140   5.192 -10.857  0.00  0.00    -0.223 OA
ATOM      5  C   UNL     1       2.056   6.024 -10.311  0.00  0.00    +0.033 C 
ATOM      6  C   UNL     1       1.470   6.013  -8.962  0.00  0.00    +0.003 C 
ATOM      7  C   UNL     1       2.654   6.680  -8.054  0.00  0.00    +0.002 C 
ATOM      8  C   UNL     1       2.299   5.760  -6.663  0.00  0.00    +0.001 C 
ATOM      9  C   UNL     1       1.138   6.793  -6.250  0.00  0.00    +0.004 C 
ATOM     10  C   UNL     1       0.976   6.806  -4.783  0.00  0.00    +0.022 C 
ATOM     11  C   UNL     1       1.893   5.788  -4.163  0.00  0.00    -0.042 C 
ATOM     12  C   UNL     1       3.331   5.848  -4.435  0.00  0.00    +0.016 C 
ATOM     13  C   UNL     1       4.097   4.624  -4.328  0.00  0.00    +0.004 C 
ATOM     14  C   UNL     1       3.883   6.898  -3.474  0.00  0.00    +0.012 C 
ATOM     15  C   UNL     1       3.905   6.265  -2.090  0.00  0.00    +0.069 C 
ATOM     16  C   UNL     1       2.649   5.520  -1.837  0.00  0.00    +0.173 C 
ATOM     17  O   UNL     1       2.303   5.308  -0.634  0.00  0.00    -0.291 OA
ATOM     18  C   UNL     1       1.614   5.549  -2.877  0.00  0.00    +0.029 C 
ATOM     19  C   UNL     1       3.535   6.620  -5.858  0.00  0.00    +0.003 C 
ATOM     20  C   UNL     1       4.691   5.596  -6.413  0.00  0.00    +0.000 C 
ATOM     21  C   UNL     1       4.871   5.821  -7.866  0.00  0.00    +0.002 C 
ENDROOT
TORSDOF 0
ENDMDL
