MODEL 1
REMARK VINA RESULT:      -5.7      0.000      0.000
REMARK  Name = 
REMARK  12 active torsions:
REMARK  status: ('A' for Active; 'I' for Inactive)
REMARK    1  A    between atoms: N_4  and  C_5
REMARK    2  A    between atoms: N_4  and  C_10
REMARK    3  A    between atoms: C_5  and  C_6
REMARK    4  A    between atoms: C_6  and  C_8
REMARK    5  A    between atoms: C_13  and  C_14
REMARK    6  A    between atoms: N_16  and  C_17
REMARK    7  A    between atoms: C_17  and  C_18
REMARK    8  A    between atoms: C_18  and  C_20
REMARK    9  A    between atoms: C_24  and  C_25
REMARK   10  A    between atoms: N_27  and  C_28
REMARK   11  A    between atoms: C_28  and  C_29
REMARK   12  A    between atoms: C_29  and  C_31
REMARK                            x       y       z     vdW  Elec       q    Type
REMARK                         _______ _______ _______ _____ _____    ______ ____
ROOT
ATOM      1  C   UNL     1       1.815   6.224 -13.020  0.00  0.00    +0.065 A 
ATOM      2  C   UNL     1       3.198   6.181 -13.180  0.00  0.00    +0.049 A 
ATOM      3  I   UNL     1       3.943   6.933 -15.004  0.00  0.00    -0.041 I 
ATOM      4  C   UNL     1       4.086   5.894 -12.184  0.00  0.00    +0.067 A 
ATOM      5  C   UNL     1       3.568   5.747 -10.909  0.00  0.00    +0.040 A 
ATOM      6  I   UNL     1       4.771   5.062  -9.345  0.00  0.00    -0.042 I 
ATOM      7  C   UNL     1       2.274   6.147 -10.634  0.00  0.00    +0.067 A 
ATOM      8  C   UNL     1       1.395   6.203 -11.698  0.00  0.00    +0.049 A 
ATOM      9  I   UNL     1      -0.540   6.841 -11.355  0.00  0.00    -0.041 I 
ENDROOT
BRANCH   1  12
ATOM     10  C   UNL     1       0.549   4.312 -14.341  0.00  0.00    +0.095 C 
ATOM     11  C   UNL     1       0.683   4.530 -14.260  0.00  0.00    +0.230 C 
ATOM     12  N   UNL     1       0.977   5.828 -14.127  0.00  0.00    -0.255 N 
ATOM     13  O   UNL     1       0.304   3.478 -14.364  0.00  0.00    -0.275 OA
BRANCH  12  14
ATOM     14  C   UNL     1       0.858   6.555 -15.372  0.00  0.00    +0.134 C 
BRANCH  14  15
ATOM     15  C   UNL     1      -0.295   7.713 -15.129  0.00  0.00    +0.205 C 
ATOM     16  O   UNL     1      -1.094   7.345 -16.369  0.00  0.00    -0.218 OA
BRANCH  15  17
ATOM     17  C   UNL     1       0.570   8.868 -15.932  0.00  0.00    +0.217 C 
ATOM     18  O   UNL     1       0.952   9.800 -15.023  0.00  0.00    -0.218 OA
ENDBRANCH  15  17
ENDBRANCH  14  15
ENDBRANCH  12  14
ENDBRANCH   1  12
BRANCH   4  19
ATOM     19  C   UNL     1       5.363   5.272 -12.561  0.00  0.00    +0.266 C 
ATOM     20  N   UNL     1       6.545   6.070 -12.451  0.00  0.00    -0.199 NA
ATOM     21  O   UNL     1       5.413   4.294 -13.369  0.00  0.00    -0.268 OA
BRANCH  20  22
ATOM     22  C   UNL     1       7.790   5.456 -12.842  0.00  0.00    +0.151 C 
BRANCH  22  23
ATOM     23  C   UNL     1       8.795   6.043 -11.668  0.00  0.00    +0.206 C 
ATOM     24  O   UNL     1       8.323   5.005 -10.662  0.00  0.00    -0.218 OA
BRANCH  23  25
ATOM     25  C   UNL     1       7.696   7.158 -11.146  0.00  0.00    +0.217 C 
ATOM     26  O   UNL     1       7.870   7.307  -9.813  0.00  0.00    -0.218 OA
ENDBRANCH  23  25
ENDBRANCH  22  23
ENDBRANCH  20  22
ENDBRANCH   4  19
BRANCH   7  27
ATOM     27  C   UNL     1       1.942   6.637  -9.294  0.00  0.00    +0.266 C 
ATOM     28  N   UNL     1       1.137   5.787  -8.481  0.00  0.00    -0.199 NA
ATOM     29  O   UNL     1       1.952   7.860  -8.992  0.00  0.00    -0.268 OA
BRANCH  28  30
ATOM     30  C   UNL     1       0.825   6.086  -7.096  0.00  0.00    +0.151 C 
BRANCH  30  31
ATOM     31  C   UNL     1       2.016   5.329  -6.237  0.00  0.00    +0.206 C 
ATOM     32  O   UNL     1       1.020   4.874  -5.180  0.00  0.00    -0.218 OA
BRANCH  31  33
ATOM     33  C   UNL     1       2.410   6.660  -5.351  0.00  0.00    +0.217 C 
ATOM     34  O   UNL     1       3.303   7.406  -6.022  0.00  0.00    -0.218 OA
ENDBRANCH  31  33
ENDBRANCH  30  31
ENDBRANCH  28  30
ENDBRANCH   7  27
TORSDOF 12
ENDMDL
MODEL 2
REMARK VINA RESULT:      -5.6      1.785      6.209
REMARK  Name = 
REMARK  12 active torsions:
REMARK  status: ('A' for Active; 'I' for Inactive)
REMARK    1  A    between atoms: N_4  and  C_5
REMARK    2  A    between atoms: N_4  and  C_10
REMARK    3  A    between atoms: C_5  and  C_6
REMARK    4  A    between atoms: C_6  and  C_8
REMARK    5  A    between atoms: C_13  and  C_14
REMARK    6  A    between atoms: N_16  and  C_17
REMARK    7  A    between atoms: C_17  and  C_18
REMARK    8  A    between atoms: C_18  and  C_20
REMARK    9  A    between atoms: C_24  and  C_25
REMARK   10  A    between atoms: N_27  and  C_28
REMARK   11  A    between atoms: C_28  and  C_29
REMARK   12  A    between atoms: C_29  and  C_31
REMARK                            x       y       z     vdW  Elec       q    Type
REMARK                         _______ _______ _______ _____ _____    ______ ____
ROOT
ATOM      1  C   UNL     1       4.628   5.748 -10.985  0.00  0.00    +0.065 A 
ATOM      2  C   UNL     1       3.667   5.610 -11.984  0.00  0.00    +0.049 A 
ATOM      3  I   UNL     1       4.389   5.111 -13.901  0.00  0.00    -0.041 I 
ATOM      4  C   UNL     1       2.321   5.567 -11.764  0.00  0.00    +0.067 A 
ATOM      5  C   UNL     1       1.904   5.548 -10.445  0.00  0.00    +0.040 A 
ATOM      6  I   UNL     1      -0.121   5.737  -9.967  0.00  0.00    -0.042 I 
ATOM      7  C   UNL     1       2.812   5.304  -9.432  0.00  0.00    +0.067 A 
ATOM      8  C   UNL     1       4.138   5.583  -9.697  0.00  0.00    +0.049 A 
ATOM      9  I   UNL     1       5.547   5.191  -8.238  0.00  0.00    -0.041 I 
ENDROOT
BRANCH   1  12
ATOM     10  C   UNL     1       5.897   8.056 -11.249  0.00  0.00    +0.095 C 
ATOM     11  C   UNL     1       5.804   7.804 -11.265  0.00  0.00    +0.230 C 
ATOM     12  N   UNL     1       5.843   6.467 -11.287  0.00  0.00    -0.255 N 
ATOM     13  O   UNL     1       5.871   8.919 -11.152  0.00  0.00    -0.275 OA
BRANCH  12  14
ATOM     14  C   UNL     1       6.922   5.956 -12.104  0.00  0.00    +0.134 C 
BRANCH  14  15
ATOM     15  C   UNL     1       8.016   5.281 -11.066  0.00  0.00    +0.205 C 
ATOM     16  O   UNL     1       8.172   6.538 -10.225  0.00  0.00    -0.218 OA
BRANCH  15  17
ATOM     17  C   UNL     1       9.301   5.668 -12.028  0.00  0.00    +0.217 C 
ATOM     18  O   UNL     1       8.808   6.144 -13.199  0.00  0.00    -0.218 OA
ENDBRANCH  15  17
ENDBRANCH  14  15
ENDBRANCH  12  14
ENDBRANCH   1  12
BRANCH   4  19
ATOM     19  C   UNL     1       1.435   6.048 -12.834  0.00  0.00    +0.266 C 
ATOM     20  N   UNL     1       1.167   7.452 -12.890  0.00  0.00    -0.199 NA
ATOM     21  O   UNL     1       0.580   5.286 -13.381  0.00  0.00    -0.268 OA
BRANCH  20  22
ATOM     22  C   UNL     1       0.282   7.910 -13.932  0.00  0.00    +0.151 C 
BRANCH  22  23
ATOM     23  C   UNL     1       1.337   8.008 -15.201  0.00  0.00    +0.206 C 
ATOM     24  O   UNL     1       1.075   9.495 -15.380  0.00  0.00    -0.218 OA
BRANCH  23  25
ATOM     25  C   UNL     1       0.192   7.595 -16.314  0.00  0.00    +0.217 C 
ATOM     26  O   UNL     1       0.834   7.080 -17.387  0.00  0.00    -0.218 OA
ENDBRANCH  23  25
ENDBRANCH  22  23
ENDBRANCH  20  22
ENDBRANCH   4  19
BRANCH   7  27
ATOM     27  C   UNL     1       2.364   4.626  -8.212  0.00  0.00    +0.266 C 
ATOM     28  N   UNL     1       2.243   5.429  -7.041  0.00  0.00    -0.199 NA
ATOM     29  O   UNL     1       2.491   3.386  -8.035  0.00  0.00    -0.268 OA
BRANCH  28  30
ATOM     30  C   UNL     1       1.702   4.923  -5.792  0.00  0.00    +0.151 C 
BRANCH  30  31
ATOM     31  C   UNL     1       2.496   5.783  -4.626  0.00  0.00    +0.206 C 
ATOM     32  O   UNL     1       3.133   6.688  -5.671  0.00  0.00    -0.218 OA
BRANCH  31  33
ATOM     33  C   UNL     1       3.819   4.801  -4.613  0.00  0.00    +0.217 C 
ATOM     34  O   UNL     1       4.925   5.530  -4.396  0.00  0.00    -0.218 OA
ENDBRANCH  31  33
ENDBRANCH  30  31
ENDBRANCH  28  30
ENDBRANCH   7  27
TORSDOF 12
ENDMDL
MODEL 3
REMARK VINA RESULT:      -5.6      5.016     10.542
REMARK  Name = 
REMARK  12 active torsions:
REMARK  status: ('A' for Active; 'I' for Inactive)
REMARK    1  A    between atoms: N_4  and  C_5
REMARK    2  A    between atoms: N_4  and  C_10
REMARK    3  A    between atoms: C_5  and  C_6
REMARK    4  A    between atoms: C_6  and  C_8
REMARK    5  A    between atoms: C_13  and  C_14
REMARK    6  A    between atoms: N_16  and  C_17
REMARK    7  A    between atoms: C_17  and  C_18
REMARK    8  A    between atoms: C_18  and  C_20
REMARK    9  A    between atoms: C_24  and  C_25
REMARK   10  A    between atoms: N_27  and  C_28
REMARK   11  A    between atoms: C_28  and  C_29
REMARK   12  A    between atoms: C_29  and  C_31
REMARK                            x       y       z     vdW  Elec       q    Type
REMARK                         _______ _______ _______ _____ _____    ______ ____
ROOT
ATOM      1  C   UNL     1       0.319   5.885  -3.166  0.00  0.00    +0.065 A 
ATOM      2  C   UNL     1       1.508   5.505  -2.547  0.00  0.00    +0.049 A 
ATOM      3  I   UNL     1       1.346   4.004  -1.075  0.00  0.00    -0.041 I 
ATOM      4  C   UNL     1       2.753   5.872  -2.967  0.00  0.00    +0.067 A 
ATOM      5  C   UNL     1       2.829   6.578  -4.155  0.00  0.00    +0.040 A 
ATOM      6  I   UNL     1       4.636   7.416  -4.781  0.00  0.00    -0.042 I 
ATOM      7  C   UNL     1       1.730   6.652  -4.991  0.00  0.00    +0.067 A 
ATOM      8  C   UNL     1       0.489   6.469  -4.413  0.00  0.00    +0.049 A 
ATOM      9  I   UNL     1      -1.186   6.520  -5.622  0.00  0.00    -0.041 I 
ENDROOT
BRANCH   1  12
ATOM     10  C   UNL     1      -2.181   5.238  -2.586  0.00  0.00    +0.095 C 
ATOM     11  C   UNL     1      -1.943   5.357  -2.627  0.00  0.00    +0.230 C 
ATOM     12  N   UNL     1      -0.855   6.083  -2.350  0.00  0.00    -0.255 N 
ATOM     13  O   UNL     1      -2.850   4.701  -2.731  0.00  0.00    -0.275 OA
BRANCH  12  14
ATOM     14  C   UNL     1      -1.168   7.302  -1.637  0.00  0.00    +0.134 C 
BRANCH  14  15
ATOM     15  C   UNL     1      -1.114   6.931  -0.028  0.00  0.00    +0.205 C 
ATOM     16  O   UNL     1      -2.443   7.598   0.291  0.00  0.00    -0.218 OA
BRANCH  15  17
ATOM     17  C   UNL     1      -0.252   8.287   0.348  0.00  0.00    +0.217 C 
ATOM     18  O   UNL     1      -1.137   9.249   0.710  0.00  0.00    -0.218 OA
ENDBRANCH  15  17
ENDBRANCH  14  15
ENDBRANCH  12  14
ENDBRANCH   1  12
BRANCH   4  19
ATOM     19  C   UNL     1       3.818   5.966  -1.958  0.00  0.00    +0.266 C 
ATOM     20  N   UNL     1       3.881   7.160  -1.174  0.00  0.00    -0.199 NA
ATOM     21  O   UNL     1       4.893   5.299  -2.062  0.00  0.00    -0.268 OA
BRANCH  20  22
ATOM     22  C   UNL     1       4.941   7.250  -0.200  0.00  0.00    +0.151 C 
BRANCH  22  23
ATOM     23  C   UNL     1       4.284   8.336   0.859  0.00  0.00    +0.206 C 
ATOM     24  O   UNL     1       3.124   7.408   1.183  0.00  0.00    -0.218 OA
BRANCH  23  25
ATOM     25  C   UNL     1       3.429   9.117  -0.317  0.00  0.00    +0.217 C 
ATOM     26  O   UNL     1       3.296  10.407   0.064  0.00  0.00    -0.218 OA
ENDBRANCH  23  25
ENDBRANCH  22  23
ENDBRANCH  20  22
ENDBRANCH   4  19
BRANCH   7  27
ATOM     27  C   UNL     1       1.934   6.758  -6.438  0.00  0.00    +0.266 C 
ATOM     28  N   UNL     1       2.388   5.586  -7.109  0.00  0.00    -0.199 NA
ATOM     29  O   UNL     1       2.140   7.856  -7.019  0.00  0.00    -0.268 OA
BRANCH  28  30
ATOM     30  C   UNL     1       2.522   5.508  -8.552  0.00  0.00    +0.151 C 
BRANCH  30  31
ATOM     31  C   UNL     1       3.716   4.390  -8.790  0.00  0.00    +0.206 C 
ATOM     32  O   UNL     1       4.674   5.164  -7.895  0.00  0.00    -0.218 OA
BRANCH  31  33
ATOM     33  C   UNL     1       4.319   5.124 -10.136  0.00  0.00    +0.217 C 
ATOM     34  O   UNL     1       3.663   6.273 -10.361  0.00  0.00    -0.218 OA
ENDBRANCH  31  33
ENDBRANCH  30  31
ENDBRANCH  28  30
ENDBRANCH   7  27
TORSDOF 12
ENDMDL
MODEL 4
REMARK VINA RESULT:      -5.4      4.556      9.696
REMARK  Name = 
REMARK  12 active torsions:
REMARK  status: ('A' for Active; 'I' for Inactive)
REMARK    1  A    between atoms: N_4  and  C_5
REMARK    2  A    between atoms: N_4  and  C_10
REMARK    3  A    between atoms: C_5  and  C_6
REMARK    4  A    between atoms: C_6  and  C_8
REMARK    5  A    between atoms: C_13  and  C_14
REMARK    6  A    between atoms: N_16  and  C_17
REMARK    7  A    between atoms: C_17  and  C_18
REMARK    8  A    between atoms: C_18  and  C_20
REMARK    9  A    between atoms: C_24  and  C_25
REMARK   10  A    between atoms: N_27  and  C_28
REMARK   11  A    between atoms: C_28  and  C_29
REMARK   12  A    between atoms: C_29  and  C_31
REMARK                            x       y       z     vdW  Elec       q    Type
REMARK                         _______ _______ _______ _____ _____    ______ ____
ROOT
ATOM      1  C   UNL     1       0.083   5.915  -4.321  0.00  0.00    +0.065 A 
ATOM      2  C   UNL     1       1.082   5.868  -3.352  0.00  0.00    +0.049 A 
ATOM      3  I   UNL     1       0.452   5.404  -1.394  0.00  0.00    -0.041 I 
ATOM      4  C   UNL     1       2.420   5.890  -3.617  0.00  0.00    +0.067 A 
ATOM      5  C   UNL     1       2.795   5.844  -4.948  0.00  0.00    +0.040 A 
ATOM      6  I   UNL     1       4.789   6.124  -5.502  0.00  0.00    -0.042 I 
ATOM      7  C   UNL     1       1.869   5.511  -5.919  0.00  0.00    +0.067 A 
ATOM      8  C   UNL     1       0.538   5.728  -5.618  0.00  0.00    +0.049 A 
ATOM      9  I   UNL     1      -0.893   5.204  -7.012  0.00  0.00    -0.041 I 
ENDROOT
BRANCH   1  12
ATOM     10  C   UNL     1      -1.440   8.076  -4.458  0.00  0.00    +0.095 C 
ATOM     11  C   UNL     1      -1.312   7.849  -4.392  0.00  0.00    +0.230 C 
ATOM     12  N   UNL     1      -1.160   6.578  -4.004  0.00  0.00    -0.255 N 
ATOM     13  O   UNL     1      -1.550   8.873  -4.787  0.00  0.00    -0.275 OA
BRANCH  12  14
ATOM     14  C   UNL     1      -2.020   6.230  -2.893  0.00  0.00    +0.134 C 
BRANCH  14  15
ATOM     15  C   UNL     1      -3.016   5.026  -3.430  0.00  0.00    +0.205 C 
ATOM     16  O   UNL     1      -3.059   5.539  -4.861  0.00  0.00    -0.218 OA
BRANCH  15  17
ATOM     17  C   UNL     1      -4.384   5.849  -3.010  0.00  0.00    +0.217 C 
ATOM     18  O   UNL     1      -4.022   6.838  -2.155  0.00  0.00    -0.218 OA
ENDBRANCH  15  17
ENDBRANCH  14  15
ENDBRANCH  12  14
ENDBRANCH   1  12
BRANCH   4  19
ATOM     19  C   UNL     1       3.312   6.460  -2.596  0.00  0.00    +0.266 C 
ATOM     20  N   UNL     1       3.373   7.885  -2.492  0.00  0.00    -0.199 NA
ATOM     21  O   UNL     1       4.314   5.816  -2.156  0.00  0.00    -0.268 OA
BRANCH  20  22
ATOM     22  C   UNL     1       4.266   8.432  -1.500  0.00  0.00    +0.151 C 
BRANCH  22  23
ATOM     23  C   UNL     1       3.259   8.491  -0.190  0.00  0.00    +0.206 C 
ATOM     24  O   UNL     1       3.520   9.975   0.019  0.00  0.00    -0.218 OA
BRANCH  23  25
ATOM     25  C   UNL     1       4.449   8.056   0.868  0.00  0.00    +0.217 C 
ATOM     26  O   UNL     1       4.141   6.827   1.343  0.00  0.00    -0.218 OA
ENDBRANCH  23  25
ENDBRANCH  22  23
ENDBRANCH  20  22
ENDBRANCH   4  19
BRANCH   7  27
ATOM     27  C   UNL     1       2.314   4.813  -7.128  0.00  0.00    +0.266 C 
ATOM     28  N   UNL     1       2.328   5.569  -8.336  0.00  0.00    -0.199 NA
ATOM     29  O   UNL     1       2.270   3.560  -7.248  0.00  0.00    -0.268 OA
BRANCH  28  30
ATOM     30  C   UNL     1       2.852   5.046  -9.585  0.00  0.00    +0.151 C 
BRANCH  30  31
ATOM     31  C   UNL     1       1.904   5.740 -10.747  0.00  0.00    +0.206 C 
ATOM     32  O   UNL     1       1.321   6.722  -9.740  0.00  0.00    -0.218 OA
BRANCH  31  33
ATOM     33  C   UNL     1       0.642   4.704 -10.526  0.00  0.00    +0.217 C 
ATOM     34  O   UNL     1      -0.286   4.908 -11.474  0.00  0.00    -0.218 OA
ENDBRANCH  31  33
ENDBRANCH  30  31
ENDBRANCH  28  30
ENDBRANCH   7  27
TORSDOF 12
ENDMDL
MODEL 5
REMARK VINA RESULT:      -5.3      1.546      6.737
REMARK  Name = 
REMARK  12 active torsions:
REMARK  status: ('A' for Active; 'I' for Inactive)
REMARK    1  A    between atoms: N_4  and  C_5
REMARK    2  A    between atoms: N_4  and  C_10
REMARK    3  A    between atoms: C_5  and  C_6
REMARK    4  A    between atoms: C_6  and  C_8
REMARK    5  A    between atoms: C_13  and  C_14
REMARK    6  A    between atoms: N_16  and  C_17
REMARK    7  A    between atoms: C_17  and  C_18
REMARK    8  A    between atoms: C_18  and  C_20
REMARK    9  A    between atoms: C_24  and  C_25
REMARK   10  A    between atoms: N_27  and  C_28
REMARK   11  A    between atoms: C_28  and  C_29
REMARK   12  A    between atoms: C_29  and  C_31
REMARK                            x       y       z     vdW  Elec       q    Type
REMARK                         _______ _______ _______ _____ _____    ______ ____
ROOT
ATOM      1  C   UNL     1       2.258   5.810  -9.770  0.00  0.00    +0.065 A 
ATOM      2  C   UNL     1       3.636   5.787  -9.974  0.00  0.00    +0.049 A 
ATOM      3  I   UNL     1       4.799   5.066  -8.371  0.00  0.00    -0.041 I 
ATOM      4  C   UNL     1       4.244   5.990 -11.179  0.00  0.00    +0.067 A 
ATOM      5  C   UNL     1       3.418   6.116 -12.282  0.00  0.00    +0.040 A 
ATOM      6  I   UNL     1       4.198   6.679 -14.136  0.00  0.00    -0.042 I 
ATOM      7  C   UNL     1       2.082   5.773 -12.193  0.00  0.00    +0.067 A 
ATOM      8  C   UNL     1       1.509   5.803 -10.937  0.00  0.00    +0.049 A 
ATOM      9  I   UNL     1      -0.472   5.253 -10.736  0.00  0.00    -0.041 I 
ENDROOT
BRANCH   1  12
ATOM     10  C   UNL     1       2.061   7.764  -7.995  0.00  0.00    +0.095 C 
ATOM     11  C   UNL     1       2.079   7.531  -8.128  0.00  0.00    +0.230 C 
ATOM     12  N   UNL     1       1.754   6.289  -8.504  0.00  0.00    -0.255 N 
ATOM     13  O   UNL     1       2.217   8.598  -7.806  0.00  0.00    -0.275 OA
BRANCH  12  14
ATOM     14  C   UNL     1       1.399   5.445  -7.385  0.00  0.00    +0.134 C 
BRANCH  14  15
ATOM     15  C   UNL     1       0.175   6.216  -6.586  0.00  0.00    +0.205 C 
ATOM     16  O   UNL     1       0.517   5.611  -5.234  0.00  0.00    -0.218 OA
BRANCH  15  17
ATOM     17  C   UNL     1      -0.917   5.027  -6.931  0.00  0.00    +0.217 C 
ATOM     18  O   UNL     1      -2.136   5.458  -6.521  0.00  0.00    -0.218 OA
ENDBRANCH  15  17
ENDBRANCH  14  15
ENDBRANCH  12  14
ENDBRANCH   1  12
BRANCH   4  19
ATOM     19  C   UNL     1       5.599   6.559 -11.176  0.00  0.00    +0.266 C 
ATOM     20  N   UNL     1       6.692   5.662 -10.958  0.00  0.00    -0.199 NA
ATOM     21  O   UNL     1       5.807   7.781 -10.904  0.00  0.00    -0.268 OA
BRANCH  20  22
ATOM     22  C   UNL     1       8.016   6.234 -10.938  0.00  0.00    +0.151 C 
BRANCH  22  23
ATOM     23  C   UNL     1       8.780   5.259 -12.033  0.00  0.00    +0.206 C 
ATOM     24  O   UNL     1       9.955   6.217 -12.156  0.00  0.00    -0.218 OA
BRANCH  23  25
ATOM     25  C   UNL     1       8.001   5.930 -13.324  0.00  0.00    +0.217 C 
ATOM     26  O   UNL     1       7.415   4.925 -14.014  0.00  0.00    -0.218 OA
ENDBRANCH  23  25
ENDBRANCH  22  23
ENDBRANCH  20  22
ENDBRANCH   4  19
BRANCH   7  27
ATOM     27  C   UNL     1       1.393   5.252 -13.376  0.00  0.00    +0.266 C 
ATOM     28  N   UNL     1       0.616   6.181 -14.128  0.00  0.00    -0.199 NA
ATOM     29  O   UNL     1       1.105   4.034 -13.517  0.00  0.00    -0.268 OA
BRANCH  28  30
ATOM     30  C   UNL     1      -0.027   5.836 -15.383  0.00  0.00    +0.151 C 
BRANCH  30  31
ATOM     31  C   UNL     1      -0.477   7.291 -16.023  0.00  0.00    +0.206 C 
ATOM     32  O   UNL     1      -0.944   6.625 -17.310  0.00  0.00    -0.218 OA
BRANCH  31  33
ATOM     33  C   UNL     1       1.000   7.613 -16.677  0.00  0.00    +0.217 C 
ATOM     34  O   UNL     1       1.030   7.207 -17.956  0.00  0.00    -0.218 OA
ENDBRANCH  31  33
ENDBRANCH  30  31
ENDBRANCH  28  30
ENDBRANCH   7  27
TORSDOF 12
ENDMDL
MODEL 6
REMARK VINA RESULT:      -5.2      5.103     11.695
REMARK  Name = 
REMARK  12 active torsions:
REMARK  status: ('A' for Active; 'I' for Inactive)
REMARK    1  A    between atoms: N_4  and  C_5
REMARK    2  A    between atoms: N_4  and  C_10
REMARK    3  A    between atoms: C_5  and  C_6
REMARK    4  A    between atoms: C_6  and  C_8
REMARK    5  A    between atoms: C_13  and  C_14
REMARK    6  A    between atoms: N_16  and  C_17
REMARK    7  A    between atoms: C_17  and  C_18
REMARK    8  A    between atoms: C_18  and  C_20
REMARK    9  A    between atoms: C_24  and  C_25
REMARK   10  A    between atoms: N_27  and  C_28
REMARK   11  A    between atoms: C_28  and  C_29
REMARK   12  A    between atoms: C_29  and  C_31
REMARK                            x       y       z     vdW  Elec       q    Type
REMARK                         _______ _______ _______ _____ _____    ______ ____
ROOT
ATOM      1  C   UNL     1       3.129   6.541  -2.061  0.00  0.00    +0.065 A 
ATOM      2  C   UNL     1       1.742   6.498  -1.941  0.00  0.00    +0.049 A 
ATOM      3  I   UNL     1       0.932   7.415  -0.224  0.00  0.00    -0.041 I 
ATOM      4  C   UNL     1       0.890   6.106  -2.932  0.00  0.00    +0.067 A 
ATOM      5  C   UNL     1       1.450   5.842  -4.170  0.00  0.00    +0.040 A 
ATOM      6  I   UNL     1       0.305   4.995  -5.697  0.00  0.00    -0.042 I 
ATOM      7  C   UNL     1       2.749   6.228  -4.441  0.00  0.00    +0.067 A 
ATOM      8  C   UNL     1       3.593   6.396  -3.360  0.00  0.00    +0.049 A 
ATOM      9  I   UNL     1       5.533   7.020  -3.701  0.00  0.00    -0.041 I 
ENDROOT
BRANCH   1  12
ATOM     10  C   UNL     1       4.576   4.829  -0.652  0.00  0.00    +0.095 C 
ATOM     11  C   UNL     1       4.415   5.025  -0.742  0.00  0.00    +0.230 C 
ATOM     12  N   UNL     1       3.934   6.263  -0.894  0.00  0.00    -0.255 N 
ATOM     13  O   UNL     1       4.944   4.042  -0.613  0.00  0.00    -0.275 OA
BRANCH  12  14
ATOM     14  C   UNL     1       3.845   6.982   0.358  0.00  0.00    +0.134 C 
BRANCH  14  15
ATOM     15  C   UNL     1       5.343   7.618   0.641  0.00  0.00    +0.205 C 
ATOM     16  O   UNL     1       5.497   6.958   2.001  0.00  0.00    -0.218 OA
BRANCH  15  17
ATOM     17  C   UNL     1       4.729   9.004   1.293  0.00  0.00    +0.217 C 
ATOM     18  O   UNL     1       4.006   9.627   0.329  0.00  0.00    -0.218 OA
ENDBRANCH  15  17
ENDBRANCH  14  15
ENDBRANCH  12  14
ENDBRANCH   1  12
BRANCH   4  19
ATOM     19  C   UNL     1      -0.395   5.510  -2.537  0.00  0.00    +0.266 C 
ATOM     20  N   UNL     1      -1.556   6.341  -2.599  0.00  0.00    -0.199 NA
ATOM     21  O   UNL     1      -0.451   4.514  -1.752  0.00  0.00    -0.268 OA
BRANCH  20  22
ATOM     22  C   UNL     1      -2.807   5.751  -2.191  0.00  0.00    +0.151 C 
BRANCH  22  23
ATOM     23  C   UNL     1      -3.769   6.177  -3.467  0.00  0.00    +0.206 C 
ATOM     24  O   UNL     1      -3.249   5.029  -4.318  0.00  0.00    -0.218 OA
BRANCH  23  25
ATOM     25  C   UNL     1      -2.659   7.233  -4.079  0.00  0.00    +0.217 C 
ATOM     26  O   UNL     1      -2.871   7.318  -5.412  0.00  0.00    -0.218 OA
ENDBRANCH  23  25
ENDBRANCH  22  23
ENDBRANCH  20  22
ENDBRANCH   4  19
BRANCH   7  27
ATOM     27  C   UNL     1       3.121   6.590  -5.811  0.00  0.00    +0.266 C 
ATOM     28  N   UNL     1       3.933   5.658  -6.522  0.00  0.00    -0.199 NA
ATOM     29  O   UNL     1       3.138   7.780  -6.223  0.00  0.00    -0.268 OA
BRANCH  28  30
ATOM     30  C   UNL     1       4.282   5.826  -7.921  0.00  0.00    +0.151 C 
BRANCH  30  31
ATOM     31  C   UNL     1       2.962   5.265  -8.741  0.00  0.00    +0.206 C 
ATOM     32  O   UNL     1       3.607   3.897  -8.923  0.00  0.00    -0.218 OA
BRANCH  31  33
ATOM     33  C   UNL     1       3.502   5.759 -10.217  0.00  0.00    +0.217 C 
ATOM     34  O   UNL     1       4.639   5.116 -10.525  0.00  0.00    -0.218 OA
ENDBRANCH  31  33
ENDBRANCH  30  31
ENDBRANCH  28  30
ENDBRANCH   7  27
TORSDOF 12
ENDMDL
MODEL 7
REMARK VINA RESULT:      -5.2      7.538     12.948
REMARK  Name = 
REMARK  12 active torsions:
REMARK  status: ('A' for Active; 'I' for Inactive)
REMARK    1  A    between atoms: N_4  and  C_5
REMARK    2  A    between atoms: N_4  and  C_10
REMARK    3  A    between atoms: C_5  and  C_6
REMARK    4  A    between atoms: C_6  and  C_8
REMARK    5  A    between atoms: C_13  and  C_14
REMARK    6  A    between atoms: N_16  and  C_17
REMARK    7  A    between atoms: C_17  and  C_18
REMARK    8  A    between atoms: C_18  and  C_20
REMARK    9  A    between atoms: C_24  and  C_25
REMARK   10  A    between atoms: N_27  and  C_28
REMARK   11  A    between atoms: C_28  and  C_29
REMARK   12  A    between atoms: C_29  and  C_31
REMARK                            x       y       z     vdW  Elec       q    Type
REMARK                         _______ _______ _______ _____ _____    ______ ____
ROOT
ATOM      1  C   UNL     1       2.267   7.496   0.327  0.00  0.00    +0.065 A 
ATOM      2  C   UNL     1       2.158   6.569  -0.707  0.00  0.00    +0.049 A 
ATOM      3  I   UNL     1       3.894   5.454  -1.139  0.00  0.00    -0.041 I 
ATOM      4  C   UNL     1       0.983   6.198  -1.294  0.00  0.00    +0.067 A 
ATOM      5  C   UNL     1      -0.180   6.701  -0.738  0.00  0.00    +0.040 A 
ATOM      6  I   UNL     1      -2.020   6.419  -1.685  0.00  0.00    -0.042 I 
ATOM      7  C   UNL     1      -0.151   7.310   0.502  0.00  0.00    +0.067 A 
ATOM      8  C   UNL     1       1.057   7.842   0.911  0.00  0.00    +0.049 A 
ATOM      9  I   UNL     1       1.173   8.722   2.777  0.00  0.00    -0.041 I 
ENDROOT
BRANCH   1  12
ATOM     10  C   UNL     1       3.615   9.603  -0.538  0.00  0.00    +0.095 C 
ATOM     11  C   UNL     1       3.532   9.365  -0.442  0.00  0.00    +0.230 C 
ATOM     12  N   UNL     1       3.447   8.325   0.393  0.00  0.00    -0.255 N 
ATOM     13  O   UNL     1       3.616  10.318  -1.032  0.00  0.00    -0.275 OA
BRANCH  12  14
ATOM     14  C   UNL     1       4.743   7.879   0.858  0.00  0.00    +0.134 C 
BRANCH  14  15
ATOM     15  C   UNL     1       5.154   8.867   2.117  0.00  0.00    +0.205 C 
ATOM     16  O   UNL     1       6.623   8.477   2.098  0.00  0.00    -0.218 OA
BRANCH  15  17
ATOM     17  C   UNL     1       4.783   7.725   3.250  0.00  0.00    +0.217 C 
ATOM     18  O   UNL     1       5.367   6.562   2.867  0.00  0.00    -0.218 OA
ENDBRANCH  15  17
ENDBRANCH  14  15
ENDBRANCH  12  14
ENDBRANCH   1  12
BRANCH   4  19
ATOM     19  C   UNL     1       1.026   5.757  -2.696  0.00  0.00    +0.266 C 
ATOM     20  N   UNL     1       1.764   6.561  -3.620  0.00  0.00    -0.199 NA
ATOM     21  O   UNL     1       0.119   5.016  -3.187  0.00  0.00    -0.268 OA
BRANCH  20  22
ATOM     22  C   UNL     1       1.783   6.129  -4.996  0.00  0.00    +0.151 C 
BRANCH  22  23
ATOM     23  C   UNL     1       3.413   6.042  -5.260  0.00  0.00    +0.206 C 
ATOM     24  O   UNL     1       3.639   7.435  -4.693  0.00  0.00    -0.218 OA
BRANCH  23  25
ATOM     25  C   UNL     1       3.293   6.609  -6.805  0.00  0.00    +0.217 C 
ATOM     26  O   UNL     1       2.484   7.693  -6.779  0.00  0.00    -0.218 OA
ENDBRANCH  23  25
ENDBRANCH  22  23
ENDBRANCH  20  22
ENDBRANCH   4  19
BRANCH   7  27
ATOM     27  C   UNL     1      -1.326   7.227   1.373  0.00  0.00    +0.266 C 
ATOM     28  N   UNL     1      -2.107   8.411   1.511  0.00  0.00    -0.199 NA
ATOM     29  O   UNL     1      -1.438   6.368   2.287  0.00  0.00    -0.268 OA
BRANCH  28  30
ATOM     30  C   UNL     1      -3.359   8.446   2.246  0.00  0.00    +0.151 C 
BRANCH  30  31
ATOM     31  C   UNL     1      -2.979   9.210   3.660  0.00  0.00    +0.206 C 
ATOM     32  O   UNL     1      -4.369   9.823   3.749  0.00  0.00    -0.218 OA
BRANCH  31  33
ATOM     33  C   UNL     1      -2.386  10.561   2.928  0.00  0.00    +0.217 C 
ATOM     34  O   UNL     1      -1.429  11.111   3.692  0.00  0.00    -0.218 OA
ENDBRANCH  31  33
ENDBRANCH  30  31
ENDBRANCH  28  30
ENDBRANCH   7  27
TORSDOF 12
ENDMDL
MODEL 8
REMARK VINA RESULT:      -5.1      5.094      9.421
REMARK  Name = 
REMARK  12 active torsions:
REMARK  status: ('A' for Active; 'I' for Inactive)
REMARK    1  A    between atoms: N_4  and  C_5
REMARK    2  A    between atoms: N_4  and  C_10
REMARK    3  A    between atoms: C_5  and  C_6
REMARK    4  A    between atoms: C_6  and  C_8
REMARK    5  A    between atoms: C_13  and  C_14
REMARK    6  A    between atoms: N_16  and  C_17
REMARK    7  A    between atoms: C_17  and  C_18
REMARK    8  A    between atoms: C_18  and  C_20
REMARK    9  A    between atoms: C_24  and  C_25
REMARK   10  A    between atoms: N_27  and  C_28
REMARK   11  A    between atoms: C_28  and  C_29
REMARK   12  A    between atoms: C_29  and  C_31
REMARK                            x       y       z     vdW  Elec       q    Type
REMARK                         _______ _______ _______ _____ _____    ______ ____
ROOT
ATOM      1  C   UNL     1       3.199   6.150  -5.072  0.00  0.00    +0.065 A 
ATOM      2  C   UNL     1       2.003   5.455  -4.910  0.00  0.00    +0.049 A 
ATOM      3  I   UNL     1       1.570   4.003  -6.376  0.00  0.00    -0.041 I 
ATOM      4  C   UNL     1       1.226   5.500  -3.789  0.00  0.00    +0.067 A 
ATOM      5  C   UNL     1       1.730   6.199  -2.707  0.00  0.00    +0.040 A 
ATOM      6  I   UNL     1       0.543   6.558  -1.026  0.00  0.00    -0.042 I 
ATOM      7  C   UNL     1       3.058   6.582  -2.684  0.00  0.00    +0.067 A 
ATOM      8  C   UNL     1       3.695   6.709  -3.903  0.00  0.00    +0.049 A 
ATOM      9  I   UNL     1       5.694   7.231  -3.928  0.00  0.00    -0.041 I 
ENDROOT
BRANCH   1  12
ATOM     10  C   UNL     1       2.584   7.565  -7.223  0.00  0.00    +0.095 C 
ATOM     11  C   UNL     1       2.674   7.387  -7.043  0.00  0.00    +0.230 C 
ATOM     12  N   UNL     1       3.555   6.620  -6.390  0.00  0.00    -0.255 N 
ATOM     13  O   UNL     1       2.034   8.125  -7.597  0.00  0.00    -0.275 OA
BRANCH  12  14
ATOM     14  C   UNL     1       4.478   5.953  -7.281  0.00  0.00    +0.134 C 
BRANCH  14  15
ATOM     15  C   UNL     1       3.684   5.757  -8.717  0.00  0.00    +0.205 C 
ATOM     16  O   UNL     1       4.070   4.294  -8.866  0.00  0.00    -0.218 OA
BRANCH  15  17
ATOM     17  C   UNL     1       4.978   6.271  -9.605  0.00  0.00    +0.217 C 
ATOM     18  O   UNL     1       4.505   7.062 -10.600  0.00  0.00    -0.218 OA
ENDBRANCH  15  17
ENDBRANCH  14  15
ENDBRANCH  12  14
ENDBRANCH   1  12
BRANCH   4  19
ATOM     19  C   UNL     1      -0.220   5.283  -3.947  0.00  0.00    +0.266 C 
ATOM     20  N   UNL     1      -0.936   6.191  -4.788  0.00  0.00    -0.199 NA
ATOM     21  O   UNL     1      -0.899   4.668  -3.069  0.00  0.00    -0.268 OA
BRANCH  20  22
ATOM     22  C   UNL     1      -2.357   5.980  -4.920  0.00  0.00    +0.151 C 
BRANCH  22  23
ATOM     23  C   UNL     1      -2.913   7.515  -4.659  0.00  0.00    +0.206 C 
ATOM     24  O   UNL     1      -1.516   8.105  -4.777  0.00  0.00    -0.218 OA
BRANCH  23  25
ATOM     25  C   UNL     1      -2.800   7.383  -3.018  0.00  0.00    +0.217 C 
ATOM     26  O   UNL     1      -3.743   6.501  -2.615  0.00  0.00    -0.218 OA
ENDBRANCH  23  25
ENDBRANCH  22  23
ENDBRANCH  20  22
ENDBRANCH   4  19
BRANCH   7  27
ATOM     27  C   UNL     1       3.757   6.677  -1.400  0.00  0.00    +0.266 C 
ATOM     28  N   UNL     1       3.979   7.988  -0.886  0.00  0.00    -0.199 NA
ATOM     29  O   UNL     1       4.509   5.766  -0.963  0.00  0.00    -0.268 OA
BRANCH  28  30
ATOM     30  C   UNL     1       4.554   8.233   0.424  0.00  0.00    +0.151 C 
BRANCH  30  31
ATOM     31  C   UNL     1       3.926   9.692   0.878  0.00  0.00    +0.206 C 
ATOM     32  O   UNL     1       2.541   9.086   1.053  0.00  0.00    -0.218 OA
BRANCH  31  33
ATOM     33  C   UNL     1       3.569  10.167  -0.658  0.00  0.00    +0.217 C 
ATOM     34  O   UNL     1       3.305  11.483  -0.678  0.00  0.00    -0.218 OA
ENDBRANCH  31  33
ENDBRANCH  30  31
ENDBRANCH  28  30
ENDBRANCH   7  27
TORSDOF 12
ENDMDL
MODEL 9
REMARK VINA RESULT:      -5.0      5.514     12.016
REMARK  Name = 
REMARK  12 active torsions:
REMARK  status: ('A' for Active; 'I' for Inactive)
REMARK    1  A    between atoms: N_4  and  C_5
REMARK    2  A    between atoms: N_4  and  C_10
REMARK    3  A    between atoms: C_5  and  C_6
REMARK    4  A    between atoms: C_6  and  C_8
REMARK    5  A    between atoms: C_13  and  C_14
REMARK    6  A    between atoms: N_16  and  C_17
REMARK    7  A    between atoms: C_17  and  C_18
REMARK    8  A    between atoms: C_18  and  C_20
REMARK    9  A    between atoms: C_24  and  C_25
REMARK   10  A    between atoms: N_27  and  C_28
REMARK   11  A    between atoms: C_28  and  C_29
REMARK   12  A    between atoms: C_29  and  C_31
REMARK                            x       y       z     vdW  Elec       q    Type
REMARK                         _______ _______ _______ _____ _____    ______ ____
ROOT
ATOM      1  C   UNL     1       2.141   5.797  -2.543  0.00  0.00    +0.065 A 
ATOM      2  C   UNL     1       1.061   6.312  -1.829  0.00  0.00    +0.049 A 
ATOM      3  I   UNL     1       1.522   7.236   0.009  0.00  0.00    -0.041 I 
ATOM      4  C   UNL     1      -0.203   6.444  -2.325  0.00  0.00    +0.067 A 
ATOM      5  C   UNL     1      -0.384   6.146  -3.664  0.00  0.00    +0.040 A 
ATOM      6  I   UNL     1      -2.303   6.062  -4.485  0.00  0.00    -0.042 I 
ATOM      7  C   UNL     1       0.709   5.998  -4.497  0.00  0.00    +0.067 A 
ATOM      8  C   UNL     1       1.908   5.655  -3.903  0.00  0.00    +0.049 A 
ATOM      9  I   UNL     1       3.587   5.468  -5.093  0.00  0.00    -0.041 I 
ENDROOT
BRANCH   1  12
ATOM     10  C   UNL     1       2.779   3.816  -0.907  0.00  0.00    +0.095 C 
ATOM     11  C   UNL     1       2.760   4.045  -1.049  0.00  0.00    +0.230 C 
ATOM     12  N   UNL     1       3.154   5.057  -1.829  0.00  0.00    -0.255 N 
ATOM     13  O   UNL     1       2.511   3.114  -0.470  0.00  0.00    -0.275 OA
BRANCH  12  14
ATOM     14  C   UNL     1       4.443   5.587  -1.442  0.00  0.00    +0.134 C 
BRANCH  14  15
ATOM     15  C   UNL     1       4.329   7.231  -1.563  0.00  0.00    +0.205 C 
ATOM     16  O   UNL     1       5.493   7.359  -2.532  0.00  0.00    -0.218 OA
BRANCH  15  17
ATOM     17  C   UNL     1       5.294   7.484  -0.247  0.00  0.00    +0.217 C 
ATOM     18  O   UNL     1       5.088   6.458   0.616  0.00  0.00    -0.218 OA
ENDBRANCH  15  17
ENDBRANCH  14  15
ENDBRANCH  12  14
ENDBRANCH   1  12
BRANCH   4  19
ATOM     19  C   UNL     1      -1.323   6.379  -1.374  0.00  0.00    +0.266 C 
ATOM     20  N   UNL     1      -1.609   7.553  -0.609  0.00  0.00    -0.199 NA
ATOM     21  O   UNL     1      -1.719   5.275  -0.888  0.00  0.00    -0.268 OA
BRANCH  20  22
ATOM     22  C   UNL     1      -2.697   7.472   0.334  0.00  0.00    +0.151 C 
BRANCH  22  23
ATOM     23  C   UNL     1      -1.881   7.694   1.754  0.00  0.00    +0.206 C 
ATOM     24  O   UNL     1      -3.038   7.147   2.575  0.00  0.00    -0.218 OA
BRANCH  23  25
ATOM     25  C   UNL     1      -2.399   9.252   1.924  0.00  0.00    +0.217 C 
ATOM     26  O   UNL     1      -1.396  10.062   1.516  0.00  0.00    -0.218 OA
ENDBRANCH  23  25
ENDBRANCH  22  23
ENDBRANCH  20  22
ENDBRANCH   4  19
BRANCH   7  27
ATOM     27  C   UNL     1       0.589   6.359  -5.912  0.00  0.00    +0.266 C 
ATOM     28  N   UNL     1       0.504   5.283  -6.843  0.00  0.00    -0.199 NA
ATOM     29  O   UNL     1       0.969   7.469  -6.367  0.00  0.00    -0.268 OA
BRANCH  28  30
ATOM     30  C   UNL     1       0.267   5.486  -8.261  0.00  0.00    +0.151 C 
BRANCH  30  31
ATOM     31  C   UNL     1       1.759   5.320  -8.951  0.00  0.00    +0.206 C 
ATOM     32  O   UNL     1       1.707   6.739  -9.500  0.00  0.00    -0.218 OA
BRANCH  31  33
ATOM     33  C   UNL     1       1.184   4.708 -10.368  0.00  0.00    +0.217 C 
ATOM     34  O   UNL     1      -0.131   4.959 -10.472  0.00  0.00    -0.218 OA
ENDBRANCH  31  33
ENDBRANCH  30  31
ENDBRANCH  28  30
ENDBRANCH   7  27
TORSDOF 12
ENDMDL
