MODEL 1
REMARK VINA RESULT:     -11.9      0.000      0.000
REMARK  Name = 
REMARK  6 active torsions:
REMARK  status: ('A' for Active; 'I' for Inactive)
REMARK    1  A    between atoms: C_7  and  C_8
REMARK    2  A    between atoms: C_8  and  S_9
REMARK    3  A    between atoms: C_16  and  C_17
REMARK    4  A    between atoms: C_20  and  C_21
REMARK    5  A    between atoms: C_25  and  C_26
REMARK    6  A    between atoms: C_26  and  S_27
REMARK                            x       y       z     vdW  Elec       q    Type
REMARK                         _______ _______ _______ _____ _____    ______ ____
ROOT
ATOM      1  C   UNL     1       1.379   5.504  -8.465  0.00  0.00    -0.000 A 
ATOM      2  C   UNL     1       2.106   4.205  -8.647  0.00  0.00    -0.000 A 
ATOM      3  C   UNL     1       3.595   4.198  -8.836  0.00  0.00    -0.000 A 
ATOM      4  C   UNL     1       4.356   5.491  -8.843  0.00  0.00    -0.000 A 
ATOM      5  C   UNL     1       3.628   6.790  -8.661  0.00  0.00    -0.000 A 
ATOM      6  C   UNL     1       2.140   6.797  -8.472  0.00  0.00    -0.000 A 
ENDROOT
BRANCH   1  12
ATOM      7  C   UNL     1       0.002   5.496  -7.258  0.00  0.00    +0.001 C 
ATOM      8  C   UNL     1      -0.767   5.483  -5.970  0.00  0.00    +0.012 C 
ATOM      9  C   UNL     1      -0.891   5.463  -4.475  0.00  0.00    +0.075 C 
ATOM     10  C   UNL     1       0.089   5.473  -5.611  0.00  0.00    +0.170 C 
ATOM     11  C   UNL     1      -0.689   5.495  -6.894  0.00  0.00    +0.012 C 
ATOM     12  C   UNL     1      -0.108   5.511  -8.277  0.00  0.00    -0.001 C 
ATOM     13  O   UNL     1       1.584   5.462  -5.486  0.00  0.00    -0.292 OA
ATOM     14  C   UNL     1      -2.351   5.468  -4.132  0.00  0.00    +0.009 C 
ATOM     15  C   UNL     1      -3.129   5.490  -5.414  0.00  0.00    +0.005 C 
ATOM     16  C   UNL     1      -2.150   5.500  -6.551  0.00  0.00    +0.026 C 
ATOM     17  C   UNL     1       0.731   5.475  -6.055  0.00  0.00    +0.001 C 
BRANCH   9  18
ATOM     18  C   UNL     1       0.245   5.443  -3.496  0.00  0.00    +0.133 C 
BRANCH  18  19
ATOM     19  S   UNL     1      -0.016   5.693  -2.040  0.00  0.00    -0.107 S 
ATOM     20  O   UNL     1      -0.276   5.942  -0.584  0.00  0.00    -0.291 OA
ATOM     21  O   UNL     1      -0.478   7.083  -2.360  0.00  0.00    -0.371 OA
ATOM     22  O   UNL     1       0.447   4.302  -1.719  0.00  0.00    -0.371 OA
ENDBRANCH  18  19
ENDBRANCH   9  18
ENDBRANCH   1  12
BRANCH   4  23
ATOM     23  C   UNL     1       5.843   5.484  -9.032  0.00  0.00    -0.001 C 
ATOM     24  C   UNL     1       6.426   5.640 -10.406  0.00  0.00    +0.012 C 
ATOM     25  C   UNL     1       7.887   5.652 -10.747  0.00  0.00    +0.026 C 
ATOM     26  C   UNL     1       6.505   5.750 -11.323  0.00  0.00    +0.012 C 
ATOM     27  C   UNL     1       6.631   5.928 -12.807  0.00  0.00    +0.075 C 
ATOM     28  C   UNL     1       8.091   5.941 -13.149  0.00  0.00    +0.009 C 
ATOM     29  C   UNL     1       5.007   5.770 -11.237  0.00  0.00    +0.001 C 
ATOM     30  C   UNL     1       5.735   5.609 -10.043  0.00  0.00    +0.001 C 
ATOM     31  C   UNL     1       8.867   5.770 -11.877  0.00  0.00    +0.005 C 
ATOM     32  C   UNL     1       5.650   5.810 -11.678  0.00  0.00    +0.170 C 
ATOM     33  O   UNL     1       4.155   5.855 -11.801  0.00  0.00    -0.292 OA
BRANCH  27  34
ATOM     34  C   UNL     1       5.496   6.069 -13.778  0.00  0.00    +0.133 C 
BRANCH  34  35
ATOM     35  S   UNL     1       5.567   7.097 -14.868  0.00  0.00    -0.107 S 
ATOM     36  O   UNL     1       5.638   8.126 -15.958  0.00  0.00    -0.291 OA
ATOM     37  O   UNL     1       4.691   6.241 -15.733  0.00  0.00    -0.371 OA
ATOM     38  O   UNL     1       6.443   7.954 -14.003  0.00  0.00    -0.371 OA
ENDBRANCH  34  35
ENDBRANCH  27  34
ENDBRANCH   4  23
TORSDOF 6
ENDMDL
MODEL 2
REMARK VINA RESULT:     -11.9      0.029     10.359
REMARK  Name = 
REMARK  6 active torsions:
REMARK  status: ('A' for Active; 'I' for Inactive)
REMARK    1  A    between atoms: C_7  and  C_8
REMARK    2  A    between atoms: C_8  and  S_9
REMARK    3  A    between atoms: C_16  and  C_17
REMARK    4  A    between atoms: C_20  and  C_21
REMARK    5  A    between atoms: C_25  and  C_26
REMARK    6  A    between atoms: C_26  and  S_27
REMARK                            x       y       z     vdW  Elec       q    Type
REMARK                         _______ _______ _______ _____ _____    ______ ____
ROOT
ATOM      1  C   UNL     1       4.348   5.482  -8.829  0.00  0.00    -0.000 A 
ATOM      2  C   UNL     1       3.624   6.785  -8.659  0.00  0.00    -0.000 A 
ATOM      3  C   UNL     1       2.135   6.797  -8.473  0.00  0.00    -0.000 A 
ATOM      4  C   UNL     1       1.370   5.506  -8.457  0.00  0.00    -0.000 A 
ATOM      5  C   UNL     1       2.095   4.204  -8.627  0.00  0.00    -0.000 A 
ATOM      6  C   UNL     1       3.584   4.192  -8.813  0.00  0.00    -0.000 A 
ENDROOT
BRANCH   1  12
ATOM      7  C   UNL     1       5.730   5.594 -10.026  0.00  0.00    +0.001 C 
ATOM      8  C   UNL     1       6.503   5.730 -11.304  0.00  0.00    +0.012 C 
ATOM      9  C   UNL     1       6.633   5.906 -12.789  0.00  0.00    +0.075 C 
ATOM     10  C   UNL     1       5.649   5.793 -11.662  0.00  0.00    +0.170 C 
ATOM     11  C   UNL     1       6.422   5.622 -10.387  0.00  0.00    +0.012 C 
ATOM     12  C   UNL     1       5.836   5.470  -9.015  0.00  0.00    -0.001 C 
ATOM     13  O   UNL     1       4.155   5.843 -11.787  0.00  0.00    -0.292 OA
ATOM     14  C   UNL     1       8.094   5.913 -13.128  0.00  0.00    +0.009 C 
ATOM     15  C   UNL     1       8.867   5.742 -11.854  0.00  0.00    +0.005 C 
ATOM     16  C   UNL     1       7.883   5.629 -10.726  0.00  0.00    +0.026 C 
ATOM     17  C   UNL     1       5.005   5.755 -11.222  0.00  0.00    +0.001 C 
BRANCH   9  18
ATOM     18  C   UNL     1       5.501   6.049 -13.762  0.00  0.00    +0.133 C 
BRANCH  18  19
ATOM     19  S   UNL     1       5.562   7.097 -14.833  0.00  0.00    -0.107 S 
ATOM     20  O   UNL     1       5.623   8.145 -15.905  0.00  0.00    -0.291 OA
ATOM     21  O   UNL     1       6.392   7.967 -13.937  0.00  0.00    -0.371 OA
ATOM     22  O   UNL     1       4.732   6.227 -15.731  0.00  0.00    -0.371 OA
ENDBRANCH  18  19
ENDBRANCH   9  18
ENDBRANCH   1  12
BRANCH   4  23
ATOM     23  C   UNL     1      -0.117   5.518  -8.272  0.00  0.00    -0.001 C 
ATOM     24  C   UNL     1      -0.701   5.502  -6.890  0.00  0.00    +0.012 C 
ATOM     25  C   UNL     1      -2.162   5.511  -6.550  0.00  0.00    +0.026 C 
ATOM     26  C   UNL     1      -0.780   5.487  -5.966  0.00  0.00    +0.012 C 
ATOM     27  C   UNL     1      -0.908   5.464  -4.472  0.00  0.00    +0.075 C 
ATOM     28  C   UNL     1      -2.369   5.473  -4.131  0.00  0.00    +0.009 C 
ATOM     29  C   UNL     1       0.718   5.473  -6.048  0.00  0.00    +0.001 C 
ATOM     30  C   UNL     1      -0.009   5.501  -7.253  0.00  0.00    +0.001 C 
ATOM     31  C   UNL     1      -3.144   5.502  -5.415  0.00  0.00    +0.005 C 
ATOM     32  C   UNL     1       0.074   5.473  -5.606  0.00  0.00    +0.170 C 
ATOM     33  O   UNL     1       1.569   5.455  -5.478  0.00  0.00    -0.292 OA
BRANCH  27  34
ATOM     34  C   UNL     1       0.226   5.436  -3.490  0.00  0.00    +0.133 C 
BRANCH  34  35
ATOM     35  S   UNL     1      -0.035   5.696  -2.036  0.00  0.00    -0.107 S 
ATOM     36  O   UNL     1      -0.296   5.956  -0.582  0.00  0.00    -0.291 OA
ATOM     37  O   UNL     1      -0.521   7.075  -2.369  0.00  0.00    -0.371 OA
ATOM     38  O   UNL     1       0.451   4.316  -1.703  0.00  0.00    -0.371 OA
ENDBRANCH  34  35
ENDBRANCH  27  34
ENDBRANCH   4  23
TORSDOF 6
ENDMDL
MODEL 3
REMARK VINA RESULT:     -11.5      2.253      9.995
REMARK  Name = 
REMARK  6 active torsions:
REMARK  status: ('A' for Active; 'I' for Inactive)
REMARK    1  A    between atoms: C_7  and  C_8
REMARK    2  A    between atoms: C_8  and  S_9
REMARK    3  A    between atoms: C_16  and  C_17
REMARK    4  A    between atoms: C_20  and  C_21
REMARK    5  A    between atoms: C_25  and  C_26
REMARK    6  A    between atoms: C_26  and  S_27
REMARK                            x       y       z     vdW  Elec       q    Type
REMARK                         _______ _______ _______ _____ _____    ______ ____
ROOT
ATOM      1  C   UNL     1       2.268   5.735  -9.061  0.00  0.00    -0.000 A 
ATOM      2  C   UNL     1       2.534   6.963  -8.242  0.00  0.00    -0.000 A 
ATOM      3  C   UNL     1       2.789   6.841  -6.768  0.00  0.00    -0.000 A 
ATOM      4  C   UNL     1       2.779   5.491  -6.114  0.00  0.00    -0.000 A 
ATOM      5  C   UNL     1       2.513   4.263  -6.934  0.00  0.00    -0.000 A 
ATOM      6  C   UNL     1       2.258   4.385  -8.407  0.00  0.00    -0.000 A 
ENDROOT
BRANCH   1  12
ATOM      7  C   UNL     1       3.012   5.753 -10.735  0.00  0.00    +0.001 C 
ATOM      8  C   UNL     1       4.011   5.708 -11.853  0.00  0.00    +0.012 C 
ATOM      9  C   UNL     1       5.394   5.583 -12.421  0.00  0.00    +0.075 C 
ATOM     10  C   UNL     1       4.601   5.595 -11.146  0.00  0.00    +0.170 C 
ATOM     11  C   UNL     1       3.156   5.785 -11.502  0.00  0.00    +0.012 C 
ATOM     12  C   UNL     1       2.013   5.856 -10.533  0.00  0.00    -0.001 C 
ATOM     13  O   UNL     1       5.156   5.444  -9.761  0.00  0.00    -0.292 OA
ATOM     14  C   UNL     1       5.293   5.688 -13.913  0.00  0.00    +0.009 C 
ATOM     15  C   UNL     1       3.848   5.877 -14.268  0.00  0.00    +0.005 C 
ATOM     16  C   UNL     1       3.055   5.890 -12.995  0.00  0.00    +0.026 C 
ATOM     17  C   UNL     1       4.368   5.575 -10.402  0.00  0.00    +0.001 C 
BRANCH   9  18
ATOM     18  C   UNL     1       6.656   5.388 -11.633  0.00  0.00    +0.133 C 
BRANCH  18  19
ATOM     19  S   UNL     1       7.977   5.777 -12.226  0.00  0.00    -0.107 S 
ATOM     20  O   UNL     1       9.298   6.168 -12.820  0.00  0.00    -0.291 OA
ATOM     21  O   UNL     1       7.864   4.657 -13.217  0.00  0.00    -0.371 OA
ATOM     22  O   UNL     1       8.090   6.899 -11.236  0.00  0.00    -0.371 OA
ENDBRANCH  18  19
ENDBRANCH   9  18
ENDBRANCH   1  12
BRANCH   4  23
ATOM     23  C   UNL     1       3.034   5.370  -4.642  0.00  0.00    -0.001 C 
ATOM     24  C   UNL     1       1.890   5.435  -3.674  0.00  0.00    +0.012 C 
ATOM     25  C   UNL     1       1.991   5.329  -2.181  0.00  0.00    +0.026 C 
ATOM     26  C   UNL     1       1.035   5.507  -3.323  0.00  0.00    +0.012 C 
ATOM     27  C   UNL     1      -0.349   5.625  -2.756  0.00  0.00    +0.075 C 
ATOM     28  C   UNL     1      -0.248   5.519  -1.263  0.00  0.00    +0.009 C 
ATOM     29  C   UNL     1       0.678   5.639  -4.774  0.00  0.00    +0.001 C 
ATOM     30  C   UNL     1       2.035   5.468  -4.441  0.00  0.00    +0.001 C 
ATOM     31  C   UNL     1       1.198   5.336  -0.908  0.00  0.00    +0.005 C 
ATOM     32  C   UNL     1       0.444   5.618  -4.029  0.00  0.00    +0.170 C 
ATOM     33  O   UNL     1      -0.111   5.767  -5.415  0.00  0.00    -0.292 OA
BRANCH  27  34
ATOM     34  C   UNL     1      -1.611   5.814  -3.544  0.00  0.00    +0.133 C 
BRANCH  34  35
ATOM     35  S   UNL     1      -2.861   6.277  -2.856  0.00  0.00    -0.107 S 
ATOM     36  O   UNL     1      -4.112   6.739  -2.167  0.00  0.00    -0.291 OA
ATOM     37  O   UNL     1      -2.316   7.672  -2.800  0.00  0.00    -0.371 OA
ATOM     38  O   UNL     1      -3.407   4.880  -2.911  0.00  0.00    -0.371 OA
ENDBRANCH  34  35
ENDBRANCH  27  34
ENDBRANCH   4  23
TORSDOF 6
ENDMDL
MODEL 4
REMARK VINA RESULT:     -11.4      2.675      9.955
REMARK  Name = 
REMARK  6 active torsions:
REMARK  status: ('A' for Active; 'I' for Inactive)
REMARK    1  A    between atoms: C_7  and  C_8
REMARK    2  A    between atoms: C_8  and  S_9
REMARK    3  A    between atoms: C_16  and  C_17
REMARK    4  A    between atoms: C_20  and  C_21
REMARK    5  A    between atoms: C_25  and  C_26
REMARK    6  A    between atoms: C_26  and  S_27
REMARK                            x       y       z     vdW  Elec       q    Type
REMARK                         _______ _______ _______ _____ _____    ______ ____
ROOT
ATOM      1  C   UNL     1       3.546   5.933  -8.476  0.00  0.00    -0.000 A 
ATOM      2  C   UNL     1       3.244   4.578  -7.909  0.00  0.00    -0.000 A 
ATOM      3  C   UNL     1       2.152   4.415  -6.892  0.00  0.00    -0.000 A 
ATOM      4  C   UNL     1       1.362   5.608  -6.443  0.00  0.00    -0.000 A 
ATOM      5  C   UNL     1       1.663   6.963  -7.010  0.00  0.00    -0.000 A 
ATOM      6  C   UNL     1       2.755   7.126  -8.026  0.00  0.00    -0.000 A 
ENDROOT
BRANCH   1  12
ATOM      7  C   UNL     1       3.971   5.956 -10.257  0.00  0.00    +0.001 C 
ATOM      8  C   UNL     1       3.860   5.893 -11.751  0.00  0.00    +0.012 C 
ATOM      9  C   UNL     1       3.113   5.723 -13.041  0.00  0.00    +0.075 C 
ATOM     10  C   UNL     1       2.967   5.741 -11.548  0.00  0.00    +0.170 C 
ATOM     11  C   UNL     1       4.321   5.998 -10.954  0.00  0.00    +0.012 C 
ATOM     12  C   UNL     1       4.637   6.096  -9.491  0.00  0.00    -0.001 C 
ATOM     13  O   UNL     1       1.693   5.539 -10.784  0.00  0.00    -0.292 OA
ATOM     14  C   UNL     1       4.094   5.863 -14.167  0.00  0.00    +0.009 C 
ATOM     15  C   UNL     1       5.448   6.120 -13.573  0.00  0.00    +0.005 C 
ATOM     16  C   UNL     1       5.303   6.138 -12.079  0.00  0.00    +0.026 C 
ATOM     17  C   UNL     1       2.701   5.716 -10.815  0.00  0.00    +0.001 C 
BRANCH   9  18
ATOM     18  C   UNL     1       1.643   5.460 -13.181  0.00  0.00    +0.133 C 
BRANCH  18  19
ATOM     19  S   UNL     1       0.939   5.799 -14.461  0.00  0.00    -0.107 S 
ATOM     20  O   UNL     1       0.235   6.137 -15.742  0.00  0.00    -0.291 OA
ATOM     21  O   UNL     1       0.924   7.247 -14.071  0.00  0.00    -0.371 OA
ATOM     22  O   UNL     1       0.953   4.350 -14.852  0.00  0.00    -0.371 OA
ENDBRANCH  18  19
ENDBRANCH   9  18
ENDBRANCH   1  12
BRANCH   4  23
ATOM     23  C   UNL     1       0.271   5.445  -5.428  0.00  0.00    -0.001 C 
ATOM     24  C   UNL     1       0.569   5.633  -3.970  0.00  0.00    +0.012 C 
ATOM     25  C   UNL     1      -0.416   5.503  -2.845  0.00  0.00    +0.026 C 
ATOM     26  C   UNL     1       1.017   5.800  -3.176  0.00  0.00    +0.012 C 
ATOM     27  C   UNL     1       1.743   6.071  -1.891  0.00  0.00    +0.075 C 
ATOM     28  C   UNL     1       0.760   5.941  -0.767  0.00  0.00    +0.009 C 
ATOM     29  C   UNL     1       2.174   5.984  -4.113  0.00  0.00    +0.001 C 
ATOM     30  C   UNL     1       0.922   5.655  -4.666  0.00  0.00    +0.001 C 
ATOM     31  C   UNL     1      -0.574   5.591  -1.356  0.00  0.00    +0.005 C 
ATOM     32  C   UNL     1       1.903   5.984  -3.381  0.00  0.00    +0.170 C 
ATOM     33  O   UNL     1       3.174   6.208  -4.146  0.00  0.00    -0.292 OA
BRANCH  27  34
ATOM     34  C   UNL     1       3.198   6.411  -1.756  0.00  0.00    +0.133 C 
BRANCH  34  35
ATOM     35  S   UNL     1       3.821   6.509  -0.396  0.00  0.00    -0.107 S 
ATOM     36  O   UNL     1       4.444   6.609   0.966  0.00  0.00    -0.291 OA
ATOM     37  O   UNL     1       4.115   5.039  -0.422  0.00  0.00    -0.371 OA
ATOM     38  O   UNL     1       3.527   7.981  -0.368  0.00  0.00    -0.371 OA
ENDBRANCH  34  35
ENDBRANCH  27  34
ENDBRANCH   4  23
TORSDOF 6
ENDMDL
MODEL 5
REMARK VINA RESULT:     -11.4      2.683      3.494
REMARK  Name = 
REMARK  6 active torsions:
REMARK  status: ('A' for Active; 'I' for Inactive)
REMARK    1  A    between atoms: C_7  and  C_8
REMARK    2  A    between atoms: C_8  and  S_9
REMARK    3  A    between atoms: C_16  and  C_17
REMARK    4  A    between atoms: C_20  and  C_21
REMARK    5  A    between atoms: C_25  and  C_26
REMARK    6  A    between atoms: C_26  and  S_27
REMARK                            x       y       z     vdW  Elec       q    Type
REMARK                         _______ _______ _______ _____ _____    ______ ____
ROOT
ATOM      1  C   UNL     1       1.355   5.638  -6.437  0.00  0.00    -0.000 A 
ATOM      2  C   UNL     1       2.152   4.450  -6.888  0.00  0.00    -0.000 A 
ATOM      3  C   UNL     1       3.241   4.619  -7.905  0.00  0.00    -0.000 A 
ATOM      4  C   UNL     1       3.534   5.976  -8.472  0.00  0.00    -0.000 A 
ATOM      5  C   UNL     1       2.737   7.165  -8.022  0.00  0.00    -0.000 A 
ATOM      6  C   UNL     1       1.647   6.996  -7.005  0.00  0.00    -0.000 A 
ENDROOT
BRANCH   1  12
ATOM      7  C   UNL     1       0.919   5.672  -4.659  0.00  0.00    +0.001 C 
ATOM      8  C   UNL     1       1.018   5.804  -3.168  0.00  0.00    +0.012 C 
ATOM      9  C   UNL     1       1.748   6.062  -1.883  0.00  0.00    +0.075 C 
ATOM     10  C   UNL     1       1.904   5.987  -3.373  0.00  0.00    +0.170 C 
ATOM     11  C   UNL     1       0.567   5.645  -3.962  0.00  0.00    +0.012 C 
ATOM     12  C   UNL     1       0.266   5.470  -5.421  0.00  0.00    -0.001 C 
ATOM     13  O   UNL     1       3.173   6.214  -4.140  0.00  0.00    -0.292 OA
ATOM     14  C   UNL     1       0.768   5.925  -0.757  0.00  0.00    +0.009 C 
ATOM     15  C   UNL     1      -0.569   5.583  -1.345  0.00  0.00    +0.005 C 
ATOM     16  C   UNL     1      -0.414   5.508  -2.836  0.00  0.00    +0.026 C 
ATOM     17  C   UNL     1       2.174   5.993  -4.106  0.00  0.00    +0.001 C 
BRANCH   9  18
ATOM     18  C   UNL     1       3.205   6.397  -1.748  0.00  0.00    +0.133 C 
BRANCH  18  19
ATOM     19  S   UNL     1       3.824   6.512  -0.387  0.00  0.00    -0.107 S 
ATOM     20  O   UNL     1       4.444   6.626   0.974  0.00  0.00    -0.291 OA
ATOM     21  O   UNL     1       3.513   7.979  -0.368  0.00  0.00    -0.371 OA
ATOM     22  O   UNL     1       4.136   5.045  -0.406  0.00  0.00    -0.371 OA
ENDBRANCH  18  19
ENDBRANCH   9  18
ENDBRANCH   1  12
BRANCH   4  23
ATOM     23  C   UNL     1       4.623   6.145  -9.489  0.00  0.00    -0.001 C 
ATOM     24  C   UNL     1       4.309   6.031 -10.951  0.00  0.00    +0.012 C 
ATOM     25  C   UNL     1       5.289   6.175 -12.078  0.00  0.00    +0.026 C 
ATOM     26  C   UNL     1       3.849   5.915 -11.748  0.00  0.00    +0.012 C 
ATOM     27  C   UNL     1       3.105   5.727 -13.036  0.00  0.00    +0.075 C 
ATOM     28  C   UNL     1       4.084   5.870 -14.163  0.00  0.00    +0.009 C 
ATOM     29  C   UNL     1       2.692   5.731 -10.810  0.00  0.00    +0.001 C 
ATOM     30  C   UNL     1       3.959   5.991 -10.253  0.00  0.00    +0.001 C 
ATOM     31  C   UNL     1       5.434   6.148 -13.571  0.00  0.00    +0.005 C 
ATOM     32  C   UNL     1       2.959   5.754 -11.543  0.00  0.00    +0.170 C 
ATOM     33  O   UNL     1       1.686   5.541 -10.777  0.00  0.00    -0.292 OA
BRANCH  27  34
ATOM     34  C   UNL     1       1.637   5.444 -13.174  0.00  0.00    +0.133 C 
BRANCH  34  35
ATOM     35  S   UNL     1       0.927   5.775 -14.453  0.00  0.00    -0.107 S 
ATOM     36  O   UNL     1       0.217   6.105 -15.732  0.00  0.00    -0.291 OA
ATOM     37  O   UNL     1       0.911   7.225 -14.070  0.00  0.00    -0.371 OA
ATOM     38  O   UNL     1       0.944   4.325 -14.836  0.00  0.00    -0.371 OA
ENDBRANCH  34  35
ENDBRANCH  27  34
ENDBRANCH   4  23
TORSDOF 6
ENDMDL
MODEL 6
REMARK VINA RESULT:     -11.1      1.655      2.437
REMARK  Name = 
REMARK  6 active torsions:
REMARK  status: ('A' for Active; 'I' for Inactive)
REMARK    1  A    between atoms: C_7  and  C_8
REMARK    2  A    between atoms: C_8  and  S_9
REMARK    3  A    between atoms: C_16  and  C_17
REMARK    4  A    between atoms: C_20  and  C_21
REMARK    5  A    between atoms: C_25  and  C_26
REMARK    6  A    between atoms: C_26  and  S_27
REMARK                            x       y       z     vdW  Elec       q    Type
REMARK                         _______ _______ _______ _____ _____    ______ ____
ROOT
ATOM      1  C   UNL     1       0.466   5.507  -6.276  0.00  0.00    -0.000 A 
ATOM      2  C   UNL     1       1.331   4.283  -6.204  0.00  0.00    -0.000 A 
ATOM      3  C   UNL     1       2.785   4.369  -6.566  0.00  0.00    -0.000 A 
ATOM      4  C   UNL     1       3.374   5.678  -6.999  0.00  0.00    -0.000 A 
ATOM      5  C   UNL     1       2.510   6.902  -7.071  0.00  0.00    -0.000 A 
ATOM      6  C   UNL     1       1.056   6.817  -6.709  0.00  0.00    -0.000 A 
ENDROOT
BRANCH   1  12
ATOM      7  C   UNL     1      -0.786   5.732  -4.959  0.00  0.00    +0.001 C 
ATOM      8  C   UNL     1      -1.430   6.039  -3.640  0.00  0.00    +0.012 C 
ATOM      9  C   UNL     1      -1.420   6.469  -2.202  0.00  0.00    +0.075 C 
ATOM     10  C   UNL     1      -0.553   6.226  -3.403  0.00  0.00    +0.170 C 
ATOM     11  C   UNL     1      -1.436   5.774  -4.528  0.00  0.00    +0.012 C 
ATOM     12  C   UNL     1      -0.986   5.422  -5.915  0.00  0.00    -0.001 C 
ATOM     13  O   UNL     1       0.935   6.405  -3.467  0.00  0.00    -0.292 OA
ATOM     14  C   UNL     1      -2.831   6.431  -1.697  0.00  0.00    +0.009 C 
ATOM     15  C   UNL     1      -3.715   5.979  -2.822  0.00  0.00    +0.005 C 
ATOM     16  C   UNL     1      -2.849   5.737  -4.023  0.00  0.00    +0.026 C 
ATOM     17  C   UNL     1       0.042   6.157  -3.903  0.00  0.00    +0.001 C 
BRANCH   9  18
ATOM     18  C   UNL     1      -0.209   6.865  -1.409  0.00  0.00    +0.133 C 
BRANCH  18  19
ATOM     19  S   UNL     1      -0.349   7.232   0.038  0.00  0.00    -0.107 S 
ATOM     20  O   UNL     1      -0.489   7.597   1.487  0.00  0.00    -0.291 OA
ATOM     21  O   UNL     1      -1.226   8.389  -0.338  0.00  0.00    -0.371 OA
ATOM     22  O   UNL     1       0.527   6.074   0.415  0.00  0.00    -0.371 OA
ENDBRANCH  18  19
ENDBRANCH   9  18
ENDBRANCH   1  12
BRANCH   4  23
ATOM     23  C   UNL     1       4.826   5.764  -7.360  0.00  0.00    -0.001 C 
ATOM     24  C   UNL     1       5.251   5.644  -8.794  0.00  0.00    +0.012 C 
ATOM     25  C   UNL     1       6.661   5.709  -9.304  0.00  0.00    +0.026 C 
ATOM     26  C   UNL     1       5.228   5.541  -9.715  0.00  0.00    +0.012 C 
ATOM     27  C   UNL     1       5.189   5.375 -11.205  0.00  0.00    +0.075 C 
ATOM     28  C   UNL     1       6.597   5.440 -11.716  0.00  0.00    +0.009 C 
ATOM     29  C   UNL     1       3.753   5.442  -9.455  0.00  0.00    +0.001 C 
ATOM     30  C   UNL     1       4.607   5.636  -8.353  0.00  0.00    +0.001 C 
ATOM     31  C   UNL     1       7.507   5.647 -10.542  0.00  0.00    +0.005 C 
ATOM     32  C   UNL     1       4.342   5.437  -9.969  0.00  0.00    +0.170 C 
ATOM     33  O   UNL     1       2.847   5.314  -9.916  0.00  0.00    -0.292 OA
BRANCH  27  34
ATOM     34  C   UNL     1       3.956   5.178 -12.038  0.00  0.00    +0.133 C 
BRANCH  34  35
ATOM     35  S   UNL     1       3.937   5.636 -13.466  0.00  0.00    -0.107 S 
ATOM     36  O   UNL     1       3.916   6.096 -14.894  0.00  0.00    -0.291 OA
ATOM     37  O   UNL     1       5.042   4.677 -13.791  0.00  0.00    -0.371 OA
ATOM     38  O   UNL     1       2.830   6.597 -13.141  0.00  0.00    -0.371 OA
ENDBRANCH  34  35
ENDBRANCH  27  34
ENDBRANCH   4  23
TORSDOF 6
ENDMDL
MODEL 7
REMARK VINA RESULT:     -11.1      1.662     10.557
REMARK  Name = 
REMARK  6 active torsions:
REMARK  status: ('A' for Active; 'I' for Inactive)
REMARK    1  A    between atoms: C_7  and  C_8
REMARK    2  A    between atoms: C_8  and  S_9
REMARK    3  A    between atoms: C_16  and  C_17
REMARK    4  A    between atoms: C_20  and  C_21
REMARK    5  A    between atoms: C_25  and  C_26
REMARK    6  A    between atoms: C_26  and  S_27
REMARK                            x       y       z     vdW  Elec       q    Type
REMARK                         _______ _______ _______ _____ _____    ______ ____
ROOT
ATOM      1  C   UNL     1       3.380   5.669  -6.968  0.00  0.00    -0.000 A 
ATOM      2  C   UNL     1       2.530   6.904  -7.028  0.00  0.00    -0.000 A 
ATOM      3  C   UNL     1       1.074   6.831  -6.674  0.00  0.00    -0.000 A 
ATOM      4  C   UNL     1       0.467   5.523  -6.260  0.00  0.00    -0.000 A 
ATOM      5  C   UNL     1       1.317   4.288  -6.199  0.00  0.00    -0.000 A 
ATOM      6  C   UNL     1       2.774   4.361  -6.553  0.00  0.00    -0.000 A 
ENDROOT
BRANCH   1  12
ATOM      7  C   UNL     1       4.620   5.615  -8.315  0.00  0.00    +0.001 C 
ATOM      8  C   UNL     1       5.247   5.513  -9.674  0.00  0.00    +0.012 C 
ATOM      9  C   UNL     1       5.214   5.345 -11.164  0.00  0.00    +0.075 C 
ATOM     10  C   UNL     1       4.361   5.416  -9.932  0.00  0.00    +0.170 C 
ATOM     11  C   UNL     1       5.267   5.617  -8.753  0.00  0.00    +0.012 C 
ATOM     12  C   UNL     1       4.835   5.742  -7.322  0.00  0.00    -0.001 C 
ATOM     13  O   UNL     1       2.866   5.306  -9.887  0.00  0.00    -0.292 OA
ATOM     14  C   UNL     1       6.626   5.398 -11.668  0.00  0.00    +0.009 C 
ATOM     15  C   UNL     1       7.531   5.599 -10.489  0.00  0.00    +0.005 C 
ATOM     16  C   UNL     1       6.679   5.670  -9.256  0.00  0.00    +0.026 C 
ATOM     17  C   UNL     1       3.770   5.427  -9.422  0.00  0.00    +0.001 C 
BRANCH   9  18
ATOM     18  C   UNL     1       3.985   5.158 -12.003  0.00  0.00    +0.133 C 
BRANCH  18  19
ATOM     19  S   UNL     1       3.971   5.627 -13.428  0.00  0.00    -0.107 S 
ATOM     20  O   UNL     1       3.959   6.096 -14.853  0.00  0.00    -0.291 OA
ATOM     21  O   UNL     1       2.812   6.528 -13.122  0.00  0.00    -0.371 OA
ATOM     22  O   UNL     1       5.131   4.726 -13.735  0.00  0.00    -0.371 OA
ENDBRANCH  18  19
ENDBRANCH   9  18
ENDBRANCH   1  12
BRANCH   4  23
ATOM     23  C   UNL     1      -0.987   5.450  -5.906  0.00  0.00    -0.001 C 
ATOM     24  C   UNL     1      -1.436   5.755  -4.507  0.00  0.00    +0.012 C 
ATOM     25  C   UNL     1      -2.850   5.724  -4.008  0.00  0.00    +0.026 C 
ATOM     26  C   UNL     1      -1.428   5.985  -3.609  0.00  0.00    +0.012 C 
ATOM     27  C   UNL     1      -1.415   6.356  -2.156  0.00  0.00    +0.075 C 
ATOM     28  C   UNL     1      -2.828   6.324  -1.656  0.00  0.00    +0.009 C 
ATOM     29  C   UNL     1       0.047   6.085  -3.864  0.00  0.00    +0.001 C 
ATOM     30  C   UNL     1      -0.785   5.719  -4.938  0.00  0.00    +0.001 C 
ATOM     31  C   UNL     1      -3.716   5.934  -2.801  0.00  0.00    +0.005 C 
ATOM     32  C   UNL     1      -0.548   6.146  -3.363  0.00  0.00    +0.170 C 
ATOM     33  O   UNL     1       0.943   6.299  -3.415  0.00  0.00    -0.292 OA
BRANCH  27  34
ATOM     34  C   UNL     1      -0.200   6.698  -1.344  0.00  0.00    +0.133 C 
BRANCH  34  35
ATOM     35  S   UNL     1      -0.355   7.322   0.011  0.00  0.00    -0.107 S 
ATOM     36  O   UNL     1      -0.511   7.946   1.366  0.00  0.00    -0.291 OA
ATOM     37  O   UNL     1      -1.272   8.357  -0.570  0.00  0.00    -0.371 OA
ATOM     38  O   UNL     1       0.562   6.287   0.592  0.00  0.00    -0.371 OA
ENDBRANCH  34  35
ENDBRANCH  27  34
ENDBRANCH   4  23
TORSDOF 6
ENDMDL
MODEL 8
REMARK VINA RESULT:     -10.7      2.812      3.884
REMARK  Name = 
REMARK  6 active torsions:
REMARK  status: ('A' for Active; 'I' for Inactive)
REMARK    1  A    between atoms: C_7  and  C_8
REMARK    2  A    between atoms: C_8  and  S_9
REMARK    3  A    between atoms: C_16  and  C_17
REMARK    4  A    between atoms: C_20  and  C_21
REMARK    5  A    between atoms: C_25  and  C_26
REMARK    6  A    between atoms: C_26  and  S_27
REMARK                            x       y       z     vdW  Elec       q    Type
REMARK                         _______ _______ _______ _____ _____    ______ ____
ROOT
ATOM      1  C   UNL     1      -0.117   5.568  -9.795  0.00  0.00    -0.000 A 
ATOM      2  C   UNL     1       0.155   6.944 -10.328  0.00  0.00    -0.000 A 
ATOM      3  C   UNL     1       0.802   7.115 -11.670  0.00  0.00    -0.000 A 
ATOM      4  C   UNL     1       1.179   5.910 -12.480  0.00  0.00    -0.000 A 
ATOM      5  C   UNL     1       0.907   4.534 -11.948  0.00  0.00    -0.000 A 
ATOM      6  C   UNL     1       0.259   4.363 -10.605  0.00  0.00    -0.000 A 
ENDROOT
BRANCH   1  12
ATOM      7  C   UNL     1       0.143   5.474  -7.985  0.00  0.00    +0.001 C 
ATOM      8  C   UNL     1       0.801   5.460  -6.636  0.00  0.00    +0.012 C 
ATOM      9  C   UNL     1       1.978   5.537  -5.710  0.00  0.00    +0.075 C 
ATOM     10  C   UNL     1       1.562   5.587  -7.151  0.00  0.00    +0.170 C 
ATOM     11  C   UNL     1       0.074   5.412  -7.209  0.00  0.00    +0.012 C 
ATOM     12  C   UNL     1      -0.764   5.398  -8.454  0.00  0.00    -0.001 C 
ATOM     13  O   UNL     1       2.475   5.778  -8.326  0.00  0.00    -0.292 OA
ATOM     14  C   UNL     1       1.475   5.379  -4.306  0.00  0.00    +0.009 C 
ATOM     15  C   UNL     1      -0.014   5.204  -4.365  0.00  0.00    +0.005 C 
ATOM     16  C   UNL     1      -0.431   5.254  -5.805  0.00  0.00    +0.026 C 
ATOM     17  C   UNL     1       1.541   5.638  -7.929  0.00  0.00    +0.001 C 
BRANCH   9  18
ATOM     18  C   UNL     1       3.408   5.737  -6.117  0.00  0.00    +0.133 C 
BRANCH  18  19
ATOM     19  S   UNL     1       4.403   6.262  -5.124  0.00  0.00    -0.107 S 
ATOM     20  O   UNL     1       5.398   6.785  -4.131  0.00  0.00    -0.291 OA
ATOM     21  O   UNL     1       3.944   7.662  -5.402  0.00  0.00    -0.371 OA
ATOM     22  O   UNL     1       4.862   4.861  -4.846  0.00  0.00    -0.371 OA
ENDBRANCH  18  19
ENDBRANCH   9  18
ENDBRANCH   1  12
BRANCH   4  23
ATOM     23  C   UNL     1       1.826   6.081 -13.822  0.00  0.00    -0.001 C 
ATOM     24  C   UNL     1       3.321   6.109 -13.935  0.00  0.00    +0.012 C 
ATOM     25  C   UNL     1       4.106   6.272 -15.203  0.00  0.00    +0.026 C 
ATOM     26  C   UNL     1       4.223   6.091 -13.719  0.00  0.00    +0.012 C 
ATOM     27  C   UNL     1       5.681   6.061 -13.367  0.00  0.00    +0.075 C 
ATOM     28  C   UNL     1       6.466   6.224 -14.634  0.00  0.00    +0.009 C 
ATOM     29  C   UNL     1       3.671   5.916 -12.334  0.00  0.00    +0.001 C 
ATOM     30  C   UNL     1       2.758   6.038 -13.399  0.00  0.00    +0.001 C 
ATOM     31  C   UNL     1       5.493   6.355 -15.769  0.00  0.00    +0.005 C 
ATOM     32  C   UNL     1       4.294   5.979 -12.801  0.00  0.00    +0.170 C 
ATOM     33  O   UNL     1       3.942   5.798 -11.354  0.00  0.00    -0.292 OA
BRANCH  27  34
ATOM     34  C   UNL     1       6.252   5.898 -11.990  0.00  0.00    +0.133 C 
BRANCH  34  35
ATOM     35  S   UNL     1       7.734   5.749 -11.807  0.00  0.00    -0.107 S 
ATOM     36  O   UNL     1       9.216   5.600 -11.623  0.00  0.00    -0.291 OA
ATOM     37  O   UNL     1       7.705   4.475 -12.597  0.00  0.00    -0.371 OA
ATOM     38  O   UNL     1       7.763   7.023 -11.016  0.00  0.00    -0.371 OA
ENDBRANCH  34  35
ENDBRANCH  27  34
ENDBRANCH   4  23
TORSDOF 6
ENDMDL
MODEL 9
REMARK VINA RESULT:     -10.6      2.826      9.021
REMARK  Name = 
REMARK  6 active torsions:
REMARK  status: ('A' for Active; 'I' for Inactive)
REMARK    1  A    between atoms: C_7  and  C_8
REMARK    2  A    between atoms: C_8  and  S_9
REMARK    3  A    between atoms: C_16  and  C_17
REMARK    4  A    between atoms: C_20  and  C_21
REMARK    5  A    between atoms: C_25  and  C_26
REMARK    6  A    between atoms: C_26  and  S_27
REMARK                            x       y       z     vdW  Elec       q    Type
REMARK                         _______ _______ _______ _____ _____    ______ ____
ROOT
ATOM      1  C   UNL     1       1.158   5.868 -12.340  0.00  0.00    -0.000 A 
ATOM      2  C   UNL     1       0.778   7.071 -11.527  0.00  0.00    -0.000 A 
ATOM      3  C   UNL     1       0.153   6.896 -10.175  0.00  0.00    -0.000 A 
ATOM      4  C   UNL     1      -0.094   5.519  -9.634  0.00  0.00    -0.000 A 
ATOM      5  C   UNL     1       0.286   4.316 -10.447  0.00  0.00    -0.000 A 
ATOM      6  C   UNL     1       0.912   4.491 -11.799  0.00  0.00    -0.000 A 
ENDROOT
BRANCH   1  12
ATOM      7  C   UNL     1       2.722   6.006 -13.283  0.00  0.00    +0.001 C 
ATOM      8  C   UNL     1       4.181   6.069 -13.625  0.00  0.00    +0.012 C 
ATOM      9  C   UNL     1       5.645   6.050 -13.296  0.00  0.00    +0.075 C 
ATOM     10  C   UNL     1       4.267   5.958 -12.708  0.00  0.00    +0.170 C 
ATOM     11  C   UNL     1       3.276   6.081 -13.828  0.00  0.00    +0.012 C 
ATOM     12  C   UNL     1       1.783   6.043 -13.691  0.00  0.00    -0.001 C 
ATOM     13  O   UNL     1       3.939   5.776 -11.256  0.00  0.00    -0.292 OA
ATOM     14  C   UNL     1       6.409   6.217 -14.575  0.00  0.00    +0.009 C 
ATOM     15  C   UNL     1       5.418   6.340 -15.695  0.00  0.00    +0.005 C 
ATOM     16  C   UNL     1       4.041   6.248 -15.108  0.00  0.00    +0.026 C 
ATOM     17  C   UNL     1       3.652   5.891 -12.232  0.00  0.00    +0.001 C 
BRANCH   9  18
ATOM     18  C   UNL     1       6.239   5.891 -11.928  0.00  0.00    +0.133 C 
BRANCH  18  19
ATOM     19  S   UNL     1       7.723   5.748 -11.768  0.00  0.00    -0.107 S 
ATOM     20  O   UNL     1       9.208   5.605 -11.607  0.00  0.00    -0.291 OA
ATOM     21  O   UNL     1       7.686   4.471 -12.553  0.00  0.00    -0.371 OA
ATOM     22  O   UNL     1       7.761   7.025 -10.982  0.00  0.00    -0.371 OA
ENDBRANCH  18  19
ENDBRANCH   9  18
ENDBRANCH   1  12
BRANCH   4  23
ATOM     23  C   UNL     1      -0.719   5.345  -8.283  0.00  0.00    -0.001 C 
ATOM     24  C   UNL     1       0.136   5.378  -7.051  0.00  0.00    +0.012 C 
ATOM     25  C   UNL     1      -0.346   5.219  -5.639  0.00  0.00    +0.026 C 
ATOM     26  C   UNL     1       0.871   5.439  -6.489  0.00  0.00    +0.012 C 
ATOM     27  C   UNL     1       2.060   5.539  -5.580  0.00  0.00    +0.075 C 
ATOM     28  C   UNL     1       1.579   5.380  -4.168  0.00  0.00    +0.009 C 
ATOM     29  C   UNL     1       1.589   5.623  -7.793  0.00  0.00    +0.001 C 
ATOM     30  C   UNL     1       0.194   5.437  -7.828  0.00  0.00    +0.001 C 
ATOM     31  C   UNL     1       0.092   5.182  -4.205  0.00  0.00    +0.005 C 
ATOM     32  C   UNL     1       1.622   5.576  -7.015  0.00  0.00    +0.170 C 
ATOM     33  O   UNL     1       2.515   5.776  -8.204  0.00  0.00    -0.292 OA
BRANCH  27  34
ATOM     34  C   UNL     1       3.481   5.760  -6.008  0.00  0.00    +0.133 C 
BRANCH  34  35
ATOM     35  S   UNL     1       4.484   6.292  -5.029  0.00  0.00    -0.107 S 
ATOM     36  O   UNL     1       5.488   6.824  -4.049  0.00  0.00    -0.291 OA
ATOM     37  O   UNL     1       4.014   7.689  -5.304  0.00  0.00    -0.371 OA
ATOM     38  O   UNL     1       4.955   4.894  -4.753  0.00  0.00    -0.371 OA
ENDBRANCH  34  35
ENDBRANCH  27  34
ENDBRANCH   4  23
TORSDOF 6
ENDMDL
