MODEL 1
REMARK VINA RESULT:      -7.3      0.000      0.000
REMARK  Name = 
REMARK  6 active torsions:
REMARK  status: ('A' for Active; 'I' for Inactive)
REMARK    1  A    between atoms: N_4  and  C_5
REMARK    2  A    between atoms: C_6  and  C_7
REMARK    3  A    between atoms: C_7  and  C_9
REMARK    4  A    between atoms: C_9  and  C_11
REMARK    5  A    between atoms: C_14  and  C_15
REMARK    6  A    between atoms: C_19  and  N_20
REMARK                            x       y       z     vdW  Elec       q    Type
REMARK                         _______ _______ _______ _____ _____    ______ ____
ROOT
ATOM      1  C   UNL     1       1.888   5.902  -8.336  0.00  0.00    +0.182 C 
ATOM      2  C   UNL     1       1.501   7.100  -7.152  0.00  0.00    +0.230 C 
ATOM      3  C   UNL     1       2.850   6.923  -6.262  0.00  0.00    +0.062 C 
ATOM      4  C   UNL     1       3.363   5.729  -6.181  0.00  0.00    +0.217 C 
ATOM      5  O   UNL     1       3.933   5.371  -7.411  0.00  0.00    -0.468 OA
ATOM      6  C   UNL     1       3.529   6.368  -8.511  0.00  0.00    +0.222 C 
ENDROOT
BRANCH   1   9
ATOM      7  C   UNL     1      -0.163   7.229 -11.210  0.00  0.00    +0.096 C 
ATOM      8  C   UNL     1       0.548   6.337 -10.509  0.00  0.00    +0.242 C 
ATOM      9  N   UNL     1       1.466   6.736  -9.580  0.00  0.00    -0.199 NA
ATOM     10  O   UNL     1      -0.086   5.292 -10.322  0.00  0.00    -0.273 OA
ENDBRANCH   1   9
BRANCH   2  11
ATOM     11  N   UNL     1       0.717   6.044  -6.258  0.00  0.00    -0.083 NA
ATOM     12  C   UNL     1      -0.517   6.476  -5.745  0.00  0.00    +0.535 C 
ATOM     13  N   UNL     1      -1.396   5.481  -5.200  0.00  0.00    +0.135 NA
ATOM     14  N   UNL     1      -0.410   7.559  -5.031  0.00  0.00    +0.135 NA
ENDBRANCH   2  11
BRANCH   4  15
ATOM     15  C   UNL     1       4.325   5.526  -5.074  0.00  0.00    +0.421 C 
ATOM     16  O   UNL     1       4.096   4.454  -4.207  0.00  0.00    -0.237 OA
ATOM     17  O   UNL     1       4.974   6.505  -4.599  0.00  0.00    -0.237 OA
ENDBRANCH   4  15
BRANCH   6  18
ATOM     18  C   UNL     1       3.647   5.258  -9.832  0.00  0.00    +0.226 C 
ATOM     19  O   UNL     1       4.425   4.183  -9.110  0.00  0.00    -0.216 OA
BRANCH  18  20
ATOM     20  C   UNL     1       5.151   5.947 -10.390  0.00  0.00    +0.219 C 
ATOM     21  O   UNL     1       4.477   7.255 -10.801  0.00  0.00    -0.217 OA
BRANCH  20  22
ATOM     22  C   UNL     1       4.942   5.312 -11.915  0.00  0.00    +0.218 C 
ATOM     23  O   UNL     1       6.233   4.989 -12.325  0.00  0.00    -0.217 OA
ENDBRANCH  20  22
ENDBRANCH  18  20
ENDBRANCH   6  18
TORSDOF 6
ENDMDL
MODEL 2
REMARK VINA RESULT:      -7.2      2.575      5.431
REMARK  Name = 
REMARK  6 active torsions:
REMARK  status: ('A' for Active; 'I' for Inactive)
REMARK    1  A    between atoms: N_4  and  C_5
REMARK    2  A    between atoms: C_6  and  C_7
REMARK    3  A    between atoms: C_7  and  C_9
REMARK    4  A    between atoms: C_9  and  C_11
REMARK    5  A    between atoms: C_14  and  C_15
REMARK    6  A    between atoms: C_19  and  N_20
REMARK                            x       y       z     vdW  Elec       q    Type
REMARK                         _______ _______ _______ _____ _____    ______ ____
ROOT
ATOM      1  C   UNL     1       1.922   6.301  -7.973  0.00  0.00    +0.182 C 
ATOM      2  C   UNL     1       3.287   5.294  -8.307  0.00  0.00    +0.230 C 
ATOM      3  C   UNL     1       3.949   5.382  -6.825  0.00  0.00    +0.062 C 
ATOM      4  C   UNL     1       3.810   6.500  -6.172  0.00  0.00    +0.217 C 
ATOM      5  O   UNL     1       2.478   6.649  -5.761  0.00  0.00    -0.468 OA
ATOM      6  C   UNL     1       1.577   5.606  -6.443  0.00  0.00    +0.222 C 
ENDROOT
BRANCH   1   9
ATOM      7  C   UNL     1      -0.093   4.620 -10.683  0.00  0.00    +0.096 C 
ATOM      8  C   UNL     1       0.362   5.627  -9.927  0.00  0.00    +0.242 C 
ATOM      9  N   UNL     1       0.862   5.405  -8.676  0.00  0.00    -0.199 NA
ATOM     10  O   UNL     1       0.841   6.535 -10.617  0.00  0.00    -0.273 OA
ENDBRANCH   1   9
BRANCH   2  11
ATOM     11  N   UNL     1       4.146   6.533  -8.816  0.00  0.00    -0.083 NA
ATOM     12  C   UNL     1       4.677   6.415 -10.111  0.00  0.00    +0.535 C 
ATOM     13  N   UNL     1       5.190   7.604 -10.730  0.00  0.00    +0.135 NA
ATOM     14  N   UNL     1       5.428   5.361 -10.249  0.00  0.00    +0.135 NA
ENDBRANCH   2  11
BRANCH   4  15
ATOM     15  C   UNL     1       4.738   6.688  -5.032  0.00  0.00    +0.421 C 
ATOM     16  O   UNL     1       4.974   5.589  -4.202  0.00  0.00    -0.237 OA
ATOM     17  O   UNL     1       4.885   7.832  -4.508  0.00  0.00    -0.237 OA
ENDBRANCH   4  15
BRANCH   6  18
ATOM     18  C   UNL     1       0.126   6.546  -6.405  0.00  0.00    +0.226 C 
ATOM     19  O   UNL     1       0.355   7.194  -5.060  0.00  0.00    -0.216 OA
BRANCH  18  20
ATOM     20  C   UNL     1      -0.779   5.276  -5.619  0.00  0.00    +0.219 C 
ATOM     21  O   UNL     1      -1.480   4.879  -6.918  0.00  0.00    -0.217 OA
BRANCH  20  22
ATOM     22  C   UNL     1      -2.014   6.321  -5.225  0.00  0.00    +0.218 C 
ATOM     23  O   UNL     1      -2.780   5.607  -4.307  0.00  0.00    -0.217 OA
ENDBRANCH  20  22
ENDBRANCH  18  20
ENDBRANCH   6  18
TORSDOF 6
ENDMDL
MODEL 3
REMARK VINA RESULT:      -7.2      4.331      6.699
REMARK  Name = 
REMARK  6 active torsions:
REMARK  status: ('A' for Active; 'I' for Inactive)
REMARK    1  A    between atoms: N_4  and  C_5
REMARK    2  A    between atoms: C_6  and  C_7
REMARK    3  A    between atoms: C_7  and  C_9
REMARK    4  A    between atoms: C_9  and  C_11
REMARK    5  A    between atoms: C_14  and  C_15
REMARK    6  A    between atoms: C_19  and  N_20
REMARK                            x       y       z     vdW  Elec       q    Type
REMARK                         _______ _______ _______ _____ _____    ______ ____
ROOT
ATOM      1  C   UNL     1       1.751   6.420  -3.131  0.00  0.00    +0.182 C 
ATOM      2  C   UNL     1       1.957   5.519  -1.671  0.00  0.00    +0.230 C 
ATOM      3  C   UNL     1       0.388   5.156  -1.454  0.00  0.00    +0.062 C 
ATOM      4  C   UNL     1      -0.490   6.038  -1.836  0.00  0.00    +0.217 C 
ATOM      5  O   UNL     1      -0.530   6.096  -3.237  0.00  0.00    -0.468 OA
ATOM      6  C   UNL     1       0.648   5.319  -3.848  0.00  0.00    +0.222 C 
ENDROOT
BRANCH   1   9
ATOM      7  C   UNL     1       5.263   5.799  -4.360  0.00  0.00    +0.096 C 
ATOM      8  C   UNL     1       4.106   6.455  -4.208  0.00  0.00    +0.242 C 
ATOM      9  N   UNL     1       2.952   5.794  -3.898  0.00  0.00    -0.199 NA
ATOM     10  O   UNL     1       4.283   7.599  -3.773  0.00  0.00    -0.273 OA
ENDBRANCH   1   9
BRANCH   2  11
ATOM     11  N   UNL     1       1.825   6.830  -0.778  0.00  0.00    -0.083 NA
ATOM     12  C   UNL     1       3.030   7.358  -0.288  0.00  0.00    +0.535 C 
ATOM     13  N   UNL     1       3.002   8.687   0.253  0.00  0.00    +0.135 NA
ATOM     14  N   UNL     1       3.703   6.496   0.417  0.00  0.00    +0.135 NA
ENDBRANCH   2  11
BRANCH   4  15
ATOM     15  C   UNL     1      -1.851   5.863  -1.276  0.00  0.00    +0.421 C 
ATOM     16  O   UNL     1      -2.692   4.936  -1.898  0.00  0.00    -0.237 OA
ATOM     17  O   UNL     1      -2.419   6.814  -0.661  0.00  0.00    -0.237 OA
ENDBRANCH   4  15
BRANCH   6  18
ATOM     18  C   UNL     1       0.756   6.244  -5.305  0.00  0.00    +0.226 C 
ATOM     19  O   UNL     1      -0.684   6.696  -5.351  0.00  0.00    -0.216 OA
BRANCH  18  20
ATOM     20  C   UNL     1       0.341   4.876  -6.307  0.00  0.00    +0.219 C 
ATOM     21  O   UNL     1       1.747   4.288  -6.205  0.00  0.00    -0.217 OA
BRANCH  20  22
ATOM     22  C   UNL     1       0.742   5.700  -7.698  0.00  0.00    +0.218 C 
ATOM     23  O   UNL     1      -0.276   5.370  -8.589  0.00  0.00    -0.217 OA
ENDBRANCH  20  22
ENDBRANCH  18  20
ENDBRANCH   6  18
TORSDOF 6
ENDMDL
MODEL 4
REMARK VINA RESULT:      -7.2      4.551      7.285
REMARK  Name = 
REMARK  6 active torsions:
REMARK  status: ('A' for Active; 'I' for Inactive)
REMARK    1  A    between atoms: N_4  and  C_5
REMARK    2  A    between atoms: C_6  and  C_7
REMARK    3  A    between atoms: C_7  and  C_9
REMARK    4  A    between atoms: C_9  and  C_11
REMARK    5  A    between atoms: C_14  and  C_15
REMARK    6  A    between atoms: C_19  and  N_20
REMARK                            x       y       z     vdW  Elec       q    Type
REMARK                         _______ _______ _______ _____ _____    ______ ____
ROOT
ATOM      1  C   UNL     1       1.755   6.791  -1.879  0.00  0.00    +0.182 C 
ATOM      2  C   UNL     1       0.954   5.897  -0.636  0.00  0.00    +0.230 C 
ATOM      3  C   UNL     1      -0.150   5.191  -1.597  0.00  0.00    +0.062 C 
ATOM      4  C   UNL     1      -0.582   5.875  -2.617  0.00  0.00    +0.217 C 
ATOM      5  O   UNL     1       0.428   5.981  -3.584  0.00  0.00    -0.468 OA
ATOM      6  C   UNL     1       1.777   5.507  -3.016  0.00  0.00    +0.222 C 
ENDROOT
BRANCH   1   9
ATOM      7  C   UNL     1       5.004   6.952   0.030  0.00  0.00    +0.096 C 
ATOM      8  C   UNL     1       4.037   7.366  -0.798  0.00  0.00    +0.242 C 
ATOM      9  N   UNL     1       3.208   6.476  -1.419  0.00  0.00    -0.199 NA
ATOM     10  O   UNL     1       3.598   8.474  -0.470  0.00  0.00    -0.273 OA
ENDBRANCH   1   9
BRANCH   2  11
ATOM     11  N   UNL     1      -0.028   7.109  -0.320  0.00  0.00    -0.083 NA
ATOM     12  C   UNL     1       0.313   7.896   0.792  0.00  0.00    +0.535 C 
ATOM     13  N   UNL     1      -0.348   9.162   0.938  0.00  0.00    +0.135 NA
ATOM     14  N   UNL     1       0.405   7.199   1.887  0.00  0.00    +0.135 NA
ENDBRANCH   2  11
BRANCH   4  15
ATOM     15  C   UNL     1      -1.842   5.384  -3.223  0.00  0.00    +0.421 C 
ATOM     16  O   UNL     1      -2.378   6.117  -4.285  0.00  0.00    -0.237 OA
ATOM     17  O   UNL     1      -2.663   4.706  -2.536  0.00  0.00    -0.237 OA
ENDBRANCH   4  15
BRANCH   6  18
ATOM     18  C   UNL     1       2.773   6.493  -4.029  0.00  0.00    +0.226 C 
ATOM     19  O   UNL     1       1.825   6.578  -5.203  0.00  0.00    -0.216 OA
BRANCH  18  20
ATOM     20  C   UNL     1       3.538   5.111  -4.770  0.00  0.00    +0.219 C 
ATOM     21  O   UNL     1       4.645   5.074  -3.718  0.00  0.00    -0.217 OA
BRANCH  20  22
ATOM     22  C   UNL     1       4.459   6.080  -5.763  0.00  0.00    +0.218 C 
ATOM     23  O   UNL     1       4.485   5.394  -6.974  0.00  0.00    -0.217 OA
ENDBRANCH  20  22
ENDBRANCH  18  20
ENDBRANCH   6  18
TORSDOF 6
ENDMDL
MODEL 5
REMARK VINA RESULT:      -7.1      2.694      6.710
REMARK  Name = 
REMARK  6 active torsions:
REMARK  status: ('A' for Active; 'I' for Inactive)
REMARK    1  A    between atoms: N_4  and  C_5
REMARK    2  A    between atoms: C_6  and  C_7
REMARK    3  A    between atoms: C_7  and  C_9
REMARK    4  A    between atoms: C_9  and  C_11
REMARK    5  A    between atoms: C_14  and  C_15
REMARK    6  A    between atoms: C_19  and  N_20
REMARK                            x       y       z     vdW  Elec       q    Type
REMARK                         _______ _______ _______ _____ _____    ______ ____
ROOT
ATOM      1  C   UNL     1       2.653   5.967  -7.239  0.00  0.00    +0.182 C 
ATOM      2  C   UNL     1       3.078   7.100  -8.473  0.00  0.00    +0.230 C 
ATOM      3  C   UNL     1       1.741   6.902  -9.375  0.00  0.00    +0.062 C 
ATOM      4  C   UNL     1       1.209   5.714  -9.407  0.00  0.00    +0.217 C 
ATOM      5  O   UNL     1       0.613   5.425  -8.171  0.00  0.00    -0.468 OA
ATOM      6  C   UNL     1       1.017   6.468  -7.114  0.00  0.00    +0.222 C 
ENDROOT
BRANCH   1   9
ATOM      7  C   UNL     1       4.743   7.524  -4.513  0.00  0.00    +0.096 C 
ATOM      8  C   UNL     1       4.081   6.558  -5.162  0.00  0.00    +0.242 C 
ATOM      9  N   UNL     1       3.069   6.853  -6.030  0.00  0.00    -0.199 NA
ATOM     10  O   UNL     1       4.802   5.579  -5.385  0.00  0.00    -0.273 OA
ENDBRANCH   1   9
BRANCH   2  11
ATOM     11  N   UNL     1       3.858   5.988  -9.302  0.00  0.00    -0.083 NA
ATOM     12  C   UNL     1       5.056   6.406  -9.905  0.00  0.00    +0.535 C 
ATOM     13  N   UNL     1       5.942   5.390 -10.397  0.00  0.00    +0.135 NA
ATOM     14  N   UNL     1       4.885   7.416 -10.708  0.00  0.00    +0.135 NA
ENDBRANCH   2  11
BRANCH   4  15
ATOM     15  C   UNL     1       0.260   5.473 -10.519  0.00  0.00    +0.421 C 
ATOM     16  O   UNL     1      -0.544   6.541 -10.927  0.00  0.00    -0.237 OA
ATOM     17  O   UNL     1      -0.198   4.311 -10.732  0.00  0.00    -0.237 OA
ENDBRANCH   4  15
BRANCH   6  18
ATOM     18  C   UNL     1       0.859   5.426  -5.743  0.00  0.00    +0.226 C 
ATOM     19  O   UNL     1      -0.310   4.616  -6.252  0.00  0.00    -0.216 OA
BRANCH  18  20
ATOM     20  C   UNL     1      -0.257   6.504  -4.944  0.00  0.00    +0.219 C 
ATOM     21  O   UNL     1       0.842   7.101  -4.067  0.00  0.00    -0.217 OA
BRANCH  20  22
ATOM     22  C   UNL     1      -0.618   5.363  -3.785  0.00  0.00    +0.218 C 
ATOM     23  O   UNL     1      -1.974   5.555  -3.533  0.00  0.00    -0.217 OA
ENDBRANCH  20  22
ENDBRANCH  18  20
ENDBRANCH   6  18
TORSDOF 6
ENDMDL
MODEL 6
REMARK VINA RESULT:      -7.0      1.492      4.475
REMARK  Name = 
REMARK  6 active torsions:
REMARK  status: ('A' for Active; 'I' for Inactive)
REMARK    1  A    between atoms: N_4  and  C_5
REMARK    2  A    between atoms: C_6  and  C_7
REMARK    3  A    between atoms: C_7  and  C_9
REMARK    4  A    between atoms: C_9  and  C_11
REMARK    5  A    between atoms: C_14  and  C_15
REMARK    6  A    between atoms: C_19  and  N_20
REMARK                            x       y       z     vdW  Elec       q    Type
REMARK                         _______ _______ _______ _____ _____    ______ ____
ROOT
ATOM      1  C   UNL     1       2.629   6.382  -7.637  0.00  0.00    +0.182 C 
ATOM      2  C   UNL     1       1.318   5.340  -7.211  0.00  0.00    +0.230 C 
ATOM      3  C   UNL     1       0.668   5.243  -8.698  0.00  0.00    +0.062 C 
ATOM      4  C   UNL     1       0.754   6.296  -9.460  0.00  0.00    +0.217 C 
ATOM      5  O   UNL     1       2.080   6.476  -9.876  0.00  0.00    -0.468 OA
ATOM      6  C   UNL     1       3.029   5.557  -9.087  0.00  0.00    +0.222 C 
ENDROOT
BRANCH   1   9
ATOM      7  C   UNL     1       4.752   5.157  -4.770  0.00  0.00    +0.096 C 
ATOM      8  C   UNL     1       4.253   6.033  -5.650  0.00  0.00    +0.242 C 
ATOM      9  N   UNL     1       3.729   5.621  -6.841  0.00  0.00    -0.199 NA
ATOM     10  O   UNL     1       3.769   7.021  -5.086  0.00  0.00    -0.273 OA
ENDBRANCH   1   9
BRANCH   2  11
ATOM     11  N   UNL     1       0.387   6.575  -6.834  0.00  0.00    -0.083 NA
ATOM     12  C   UNL     1      -0.244   6.503  -5.581  0.00  0.00    +0.535 C 
ATOM     13  N   UNL     1      -0.837   7.703  -5.065  0.00  0.00    +0.135 NA
ATOM     14  N   UNL     1      -0.975   5.434  -5.451  0.00  0.00    +0.135 NA
ENDBRANCH   2  11
BRANCH   4  15
ATOM     15  C   UNL     1      -0.170   6.318 -10.618  0.00  0.00    +0.421 C 
ATOM     16  O   UNL     1      -0.297   5.145 -11.366  0.00  0.00    -0.237 OA
ATOM     17  O   UNL     1      -0.410   7.403 -11.226  0.00  0.00    -0.237 OA
ENDBRANCH   4  15
BRANCH   6  18
ATOM     18  C   UNL     1       4.427   6.567  -9.212  0.00  0.00    +0.226 C 
ATOM     19  O   UNL     1       4.157   7.096 -10.601  0.00  0.00    -0.216 OA
BRANCH  18  20
ATOM     20  C   UNL     1       5.394   5.290  -9.905  0.00  0.00    +0.219 C 
ATOM     21  O   UNL     1       6.014   4.934  -8.555  0.00  0.00    -0.217 OA
BRANCH  20  22
ATOM     22  C   UNL     1       6.641   6.341 -10.246  0.00  0.00    +0.218 C 
ATOM     23  O   UNL     1       7.679   5.509 -10.657  0.00  0.00    -0.217 OA
ENDBRANCH  20  22
ENDBRANCH  18  20
ENDBRANCH   6  18
TORSDOF 6
ENDMDL
MODEL 7
REMARK VINA RESULT:      -6.9      2.010      5.628
REMARK  Name = 
REMARK  6 active torsions:
REMARK  status: ('A' for Active; 'I' for Inactive)
REMARK    1  A    between atoms: N_4  and  C_5
REMARK    2  A    between atoms: C_6  and  C_7
REMARK    3  A    between atoms: C_7  and  C_9
REMARK    4  A    between atoms: C_9  and  C_11
REMARK    5  A    between atoms: C_14  and  C_15
REMARK    6  A    between atoms: C_19  and  N_20
REMARK                            x       y       z     vdW  Elec       q    Type
REMARK                         _______ _______ _______ _____ _____    ______ ____
ROOT
ATOM      1  C   UNL     1       1.852   6.190  -6.500  0.00  0.00    +0.182 C 
ATOM      2  C   UNL     1       1.449   4.948  -7.633  0.00  0.00    +0.230 C 
ATOM      3  C   UNL     1       2.965   4.673  -8.152  0.00  0.00    +0.062 C 
ATOM      4  C   UNL     1       3.776   5.690  -8.202  0.00  0.00    +0.217 C 
ATOM      5  O   UNL     1       4.121   6.089  -6.903  0.00  0.00    -0.468 OA
ATOM      6  C   UNL     1       3.229   5.390  -5.863  0.00  0.00    +0.222 C 
ENDROOT
BRANCH   1   9
ATOM      7  C   UNL     1      -1.123   5.738  -4.226  0.00  0.00    +0.096 C 
ATOM      8  C   UNL     1      -0.088   6.368  -4.794  0.00  0.00    +0.242 C 
ATOM      9  N   UNL     1       0.953   5.673  -5.340  0.00  0.00    -0.199 NA
ATOM     10  O   UNL     1      -0.431   7.442  -5.303  0.00  0.00    -0.273 OA
ENDBRANCH   1   9
BRANCH   2  11
ATOM     11  N   UNL     1       1.196   6.010  -8.791  0.00  0.00    -0.083 NA
ATOM     12  C   UNL     1       0.231   5.650  -9.746  0.00  0.00    +0.535 C 
ATOM     13  N   UNL     1      -0.254   6.680 -10.621  0.00  0.00    +0.135 NA
ATOM     14  N   UNL     1       0.505   4.521 -10.332  0.00  0.00    +0.135 NA
ENDBRANCH   2  11
BRANCH   4  15
ATOM     15  C   UNL     1       4.987   5.497  -9.034  0.00  0.00    +0.421 C 
ATOM     16  O   UNL     1       4.802   5.238 -10.395  0.00  0.00    -0.237 OA
ATOM     17  O   UNL     1       6.056   5.056  -8.518  0.00  0.00    -0.237 OA
ENDBRANCH   4  15
BRANCH   6  18
ATOM     18  C   UNL     1       3.325   6.629  -4.660  0.00  0.00    +0.226 C 
ATOM     19  O   UNL     1       4.701   7.137  -5.019  0.00  0.00    -0.216 OA
BRANCH  18  20
ATOM     20  C   UNL     1       4.046   5.555  -3.488  0.00  0.00    +0.219 C 
ATOM     21  O   UNL     1       2.696   5.242  -2.843  0.00  0.00    -0.217 OA
BRANCH  20  22
ATOM     22  C   UNL     1       4.311   6.806  -2.420  0.00  0.00    +0.218 C 
ATOM     23  O   UNL     1       4.371   6.181  -1.177  0.00  0.00    -0.217 OA
ENDBRANCH  20  22
ENDBRANCH  18  20
ENDBRANCH   6  18
TORSDOF 6
ENDMDL
MODEL 8
REMARK VINA RESULT:      -6.9      2.896      5.281
REMARK  Name = 
REMARK  6 active torsions:
REMARK  status: ('A' for Active; 'I' for Inactive)
REMARK    1  A    between atoms: N_4  and  C_5
REMARK    2  A    between atoms: C_6  and  C_7
REMARK    3  A    between atoms: C_7  and  C_9
REMARK    4  A    between atoms: C_9  and  C_11
REMARK    5  A    between atoms: C_14  and  C_15
REMARK    6  A    between atoms: C_19  and  N_20
REMARK                            x       y       z     vdW  Elec       q    Type
REMARK                         _______ _______ _______ _____ _____    ______ ____
ROOT
ATOM      1  C   UNL     1       1.986   6.358  -4.808  0.00  0.00    +0.182 C 
ATOM      2  C   UNL     1       1.095   5.222  -3.858  0.00  0.00    +0.230 C 
ATOM      3  C   UNL     1      -0.321   5.399  -4.637  0.00  0.00    +0.062 C 
ATOM      4  C   UNL     1      -0.604   6.580  -5.105  0.00  0.00    +0.217 C 
ATOM      5  O   UNL     1       0.220   6.870  -6.201  0.00  0.00    -0.468 OA
ATOM      6  C   UNL     1       1.356   5.839  -6.317  0.00  0.00    +0.222 C 
ENDROOT
BRANCH   1   9
ATOM      7  C   UNL     1       5.232   4.596  -4.044  0.00  0.00    +0.096 C 
ATOM      8  C   UNL     1       4.410   5.630  -4.258  0.00  0.00    +0.242 C 
ATOM      9  N   UNL     1       3.261   5.484  -4.983  0.00  0.00    -0.199 NA
ATOM     10  O   UNL     1       4.434   6.435  -3.319  0.00  0.00    -0.273 OA
ENDBRANCH   1   9
BRANCH   2  11
ATOM     11  N   UNL     1       0.701   6.337  -2.793  0.00  0.00    -0.083 NA
ATOM     12  C   UNL     1       0.587   5.898  -1.464  0.00  0.00    +0.535 C 
ATOM     13  N   UNL     1       0.539   6.897  -0.435  0.00  0.00    +0.135 NA
ATOM     14  N   UNL     1      -0.277   4.935  -1.329  0.00  0.00    +0.135 NA
ENDBRANCH   2  11
BRANCH   4  15
ATOM     15  C   UNL     1      -2.029   6.804  -5.443  0.00  0.00    +0.421 C 
ATOM     16  O   UNL     1      -2.566   6.067  -6.503  0.00  0.00    -0.237 OA
ATOM     17  O   UNL     1      -2.581   7.917  -5.195  0.00  0.00    -0.237 OA
ENDBRANCH   4  15
BRANCH   6  18
ATOM     18  C   UNL     1       2.493   6.888  -7.090  0.00  0.00    +0.226 C 
ATOM     19  O   UNL     1       1.495   7.699  -7.883  0.00  0.00    -0.216 OA
BRANCH  18  20
ATOM     20  C   UNL     1       2.682   5.818  -8.456  0.00  0.00    +0.219 C 
ATOM     21  O   UNL     1       3.942   5.182  -7.869  0.00  0.00    -0.217 OA
BRANCH  20  22
ATOM     22  C   UNL     1       3.587   6.943  -9.286  0.00  0.00    +0.218 C 
ATOM     23  O   UNL     1       3.564   6.490 -10.602  0.00  0.00    -0.217 OA
ENDBRANCH  20  22
ENDBRANCH  18  20
ENDBRANCH   6  18
TORSDOF 6
ENDMDL
MODEL 9
REMARK VINA RESULT:      -6.9      4.142      7.769
REMARK  Name = 
REMARK  6 active torsions:
REMARK  status: ('A' for Active; 'I' for Inactive)
REMARK    1  A    between atoms: N_4  and  C_5
REMARK    2  A    between atoms: C_6  and  C_7
REMARK    3  A    between atoms: C_7  and  C_9
REMARK    4  A    between atoms: C_9  and  C_11
REMARK    5  A    between atoms: C_14  and  C_15
REMARK    6  A    between atoms: C_19  and  N_20
REMARK                            x       y       z     vdW  Elec       q    Type
REMARK                         _______ _______ _______ _____ _____    ______ ____
ROOT
ATOM      1  C   UNL     1       2.320   5.901  -3.319  0.00  0.00    +0.182 C 
ATOM      2  C   UNL     1       1.514   6.544  -4.706  0.00  0.00    +0.230 C 
ATOM      3  C   UNL     1       0.015   6.515  -4.079  0.00  0.00    +0.062 C 
ATOM      4  C   UNL     1      -0.272   5.548  -3.254  0.00  0.00    +0.217 C 
ATOM      5  O   UNL     1       0.406   5.739  -2.042  0.00  0.00    -0.468 OA
ATOM      6  C   UNL     1       1.462   6.850  -2.177  0.00  0.00    +0.222 C 
ENDROOT
BRANCH   1   9
ATOM      7  C   UNL     1       5.615   7.513  -4.201  0.00  0.00    +0.096 C 
ATOM      8  C   UNL     1       4.789   6.585  -3.702  0.00  0.00    +0.242 C 
ATOM      9  N   UNL     1       3.514   6.900  -3.327  0.00  0.00    -0.199 NA
ATOM     10  O   UNL     1       5.022   5.465  -4.171  0.00  0.00    -0.273 OA
ENDBRANCH   1   9
BRANCH   2  11
ATOM     11  N   UNL     1       1.328   5.095  -5.338  0.00  0.00    -0.083 NA
ATOM     12  C   UNL     1       2.055   4.845  -6.514  0.00  0.00    +0.535 C 
ATOM     13  N   UNL     1       2.166   3.482  -6.949  0.00  0.00    +0.135 NA
ATOM     14  N   UNL     1       1.785   5.698  -7.458  0.00  0.00    +0.135 NA
ENDBRANCH   2  11
BRANCH   4  15
ATOM     15  C   UNL     1      -1.717   5.321  -3.020  0.00  0.00    +0.421 C 
ATOM     16  O   UNL     1      -2.620   6.028  -3.818  0.00  0.00    -0.237 OA
ATOM     17  O   UNL     1      -2.134   4.963  -1.879  0.00  0.00    -0.237 OA
ENDBRANCH   4  15
BRANCH   6  18
ATOM     18  C   UNL     1       2.532   6.251  -0.957  0.00  0.00    +0.226 C 
ATOM     19  O   UNL     1       1.478   5.643  -0.062  0.00  0.00    -0.216 OA
BRANCH  18  20
ATOM     20  C   UNL     1       2.442   7.728  -0.031  0.00  0.00    +0.219 C 
ATOM     21  O   UNL     1       3.363   8.470  -0.997  0.00  0.00    -0.217 OA
BRANCH  20  22
ATOM     22  C   UNL     1       3.734   7.279   0.919  0.00  0.00    +0.218 C 
ATOM     23  O   UNL     1       3.288   7.497   2.220  0.00  0.00    -0.217 OA
ENDBRANCH  20  22
ENDBRANCH  18  20
ENDBRANCH   6  18
TORSDOF 6
ENDMDL
