MODEL 1
REMARK VINA RESULT:      -5.6      0.000      0.000
REMARK  Name = 
REMARK  9 active torsions:
REMARK  status: ('A' for Active; 'I' for Inactive)
REMARK    1  A    between atoms: C_2  and  C_3
REMARK    2  A    between atoms: C_3  and  C_4
REMARK    3  A    between atoms: C_4  and  C_6
REMARK    4  A    between atoms: C_4  and  C_11
REMARK    5  A    between atoms: C_6  and  O_7
REMARK    6  A    between atoms: O_7  and  C_8
REMARK    7  A    between atoms: C_11  and  O_12
REMARK    8  A    between atoms: O_12  and  C_13
REMARK    9  A    between atoms: N_15  and  C_16
REMARK                            x       y       z     vdW  Elec       q    Type
REMARK                         _______ _______ _______ _____ _____    ______ ____
ROOT
ATOM      1  C   UNL     1      -0.222   5.956  -5.709  0.00  0.00    +0.081 C 
ATOM      2  C   UNL     1      -1.597   5.359  -5.972  0.00  0.00    +0.007 C 
ENDROOT
BRANCH   1   3
ATOM      3  C   UNL     1       0.478   5.036  -4.756  0.00  0.00    +0.214 C 
BRANCH   3   4
ATOM      4  O   UNL     1       0.979   5.730  -3.615  0.00  0.00    -0.433 OA
BRANCH   4   5
ATOM      5  C   UNL     1       0.441   5.501  -2.368  0.00  0.00    +0.421 C 
ATOM      6  N   UNL     1      -0.413   6.430  -1.693  0.00  0.00    -0.170 NA
ATOM      7  O   UNL     1       0.563   4.380  -1.787  0.00  0.00    -0.225 OA
BRANCH   6   8
ATOM      8  C   UNL     1      -1.644   6.006  -1.030  0.00  0.00    +0.099 C 
ATOM      9  C   UNL     1      -2.203   7.264  -0.374  0.00  0.00    +0.024 C 
ATOM     10  C   UNL     1      -2.672   5.607  -2.084  0.00  0.00    +0.024 C 
ENDBRANCH   6   8
ENDBRANCH   4   5
ENDBRANCH   3   4
ENDBRANCH   1   3
BRANCH   1  11
ATOM     11  C   UNL     1       0.497   6.021  -7.033  0.00  0.00    +0.214 C 
BRANCH  11  12
ATOM     12  O   UNL     1       1.896   5.967  -6.889  0.00  0.00    -0.432 OA
BRANCH  12  13
ATOM     13  C   UNL     1       2.656   7.111  -6.987  0.00  0.00    +0.441 C 
ATOM     14  O   UNL     1       3.399   7.435  -6.013  0.00  0.00    -0.223 OA
ATOM     15  N   UNL     1       2.253   8.147  -7.865  0.00  0.00    -0.048 NA
ENDBRANCH  12  13
ENDBRANCH  11  12
ENDBRANCH   1  11
BRANCH   1  16
ATOM     16  C   UNL     1      -0.335   7.349  -5.155  0.00  0.00    +0.007 C 
BRANCH  16  18
ATOM     17  C   UNL     1      -2.035   8.583  -4.156  0.00  0.00    +0.000 C 
ATOM     18  C   UNL     1      -1.737   7.769  -4.851  0.00  0.00    +0.000 C 
ENDBRANCH  16  18
ENDBRANCH   1  16
TORSDOF 9
ENDMDL
MODEL 2
REMARK VINA RESULT:      -5.4      2.378      3.567
REMARK  Name = 
REMARK  9 active torsions:
REMARK  status: ('A' for Active; 'I' for Inactive)
REMARK    1  A    between atoms: C_2  and  C_3
REMARK    2  A    between atoms: C_3  and  C_4
REMARK    3  A    between atoms: C_4  and  C_6
REMARK    4  A    between atoms: C_4  and  C_11
REMARK    5  A    between atoms: C_6  and  O_7
REMARK    6  A    between atoms: O_7  and  C_8
REMARK    7  A    between atoms: C_11  and  O_12
REMARK    8  A    between atoms: O_12  and  C_13
REMARK    9  A    between atoms: N_15  and  C_16
REMARK                            x       y       z     vdW  Elec       q    Type
REMARK                         _______ _______ _______ _____ _____    ______ ____
ROOT
ATOM      1  C   UNL     1      -0.095   5.720  -6.396  0.00  0.00    +0.081 C 
ATOM      2  C   UNL     1      -1.468   5.108  -6.634  0.00  0.00    +0.007 C 
ENDROOT
BRANCH   1   3
ATOM      3  C   UNL     1       0.741   4.669  -5.733  0.00  0.00    +0.214 C 
BRANCH   3   4
ATOM      4  O   UNL     1       1.345   5.146  -4.532  0.00  0.00    -0.433 OA
BRANCH   4   5
ATOM      5  C   UNL     1       2.690   5.446  -4.501  0.00  0.00    +0.421 C 
ATOM      6  N   UNL     1       3.200   6.766  -4.283  0.00  0.00    -0.170 NA
ATOM      7  O   UNL     1       3.574   4.538  -4.532  0.00  0.00    -0.225 OA
BRANCH   6   8
ATOM      8  C   UNL     1       4.301   7.024  -3.358  0.00  0.00    +0.099 C 
ATOM      9  C   UNL     1       5.437   7.562  -4.224  0.00  0.00    +0.024 C 
ATOM     10  C   UNL     1       3.920   8.172  -2.430  0.00  0.00    +0.024 C 
ENDBRANCH   6   8
ENDBRANCH   4   5
ENDBRANCH   3   4
ENDBRANCH   1   3
BRANCH   1  11
ATOM     11  C   UNL     1       0.466   6.095  -7.744  0.00  0.00    +0.214 C 
BRANCH  11  12
ATOM     12  O   UNL     1       1.871   6.024  -7.782  0.00  0.00    -0.432 OA
BRANCH  12  13
ATOM     13  C   UNL     1       2.619   7.119  -8.150  0.00  0.00    +0.441 C 
ATOM     14  O   UNL     1       2.177   8.277  -7.882  0.00  0.00    -0.223 OA
ATOM     15  N   UNL     1       3.543   7.011  -9.219  0.00  0.00    -0.048 NA
ENDBRANCH  12  13
ENDBRANCH  11  12
ENDBRANCH   1  11
BRANCH   1  16
ATOM     16  C   UNL     1      -0.196   6.963  -5.555  0.00  0.00    +0.007 C 
BRANCH  16  18
ATOM     17  C   UNL     1      -1.879   8.117  -4.439  0.00  0.00    +0.000 C 
ATOM     18  C   UNL     1      -1.566   7.219  -5.015  0.00  0.00    +0.000 C 
ENDBRANCH  16  18
ENDBRANCH   1  16
TORSDOF 9
ENDMDL
MODEL 3
REMARK VINA RESULT:      -5.4      2.431      6.113
REMARK  Name = 
REMARK  9 active torsions:
REMARK  status: ('A' for Active; 'I' for Inactive)
REMARK    1  A    between atoms: C_2  and  C_3
REMARK    2  A    between atoms: C_3  and  C_4
REMARK    3  A    between atoms: C_4  and  C_6
REMARK    4  A    between atoms: C_4  and  C_11
REMARK    5  A    between atoms: C_6  and  O_7
REMARK    6  A    between atoms: O_7  and  C_8
REMARK    7  A    between atoms: C_11  and  O_12
REMARK    8  A    between atoms: O_12  and  C_13
REMARK    9  A    between atoms: N_15  and  C_16
REMARK                            x       y       z     vdW  Elec       q    Type
REMARK                         _______ _______ _______ _____ _____    ______ ____
ROOT
ATOM      1  C   UNL     1       1.112   5.432  -5.478  0.00  0.00    +0.081 C 
ATOM      2  C   UNL     1       2.400   6.238  -5.385  0.00  0.00    +0.007 C 
ENDROOT
BRANCH   1   3
ATOM      3  C   UNL     1       1.455   4.139  -6.154  0.00  0.00    +0.214 C 
BRANCH   3   4
ATOM      4  O   UNL     1       2.655   4.238  -6.917  0.00  0.00    -0.433 OA
BRANCH   4   5
ATOM      5  C   UNL     1       2.617   4.144  -8.291  0.00  0.00    +0.421 C 
ATOM      6  N   UNL     1       1.422   4.310  -9.061  0.00  0.00    -0.170 NA
ATOM      7  O   UNL     1       3.676   4.033  -8.979  0.00  0.00    -0.225 OA
BRANCH   6   8
ATOM      8  C   UNL     1       1.392   5.128 -10.271  0.00  0.00    +0.099 C 
ATOM      9  C   UNL     1       0.121   4.714 -11.007  0.00  0.00    +0.024 C 
ATOM     10  C   UNL     1       1.180   6.589  -9.887  0.00  0.00    +0.024 C 
ENDBRANCH   6   8
ENDBRANCH   4   5
ENDBRANCH   3   4
ENDBRANCH   1   3
BRANCH   1  11
ATOM     11  C   UNL     1       0.628   5.201  -4.069  0.00  0.00    +0.214 C 
BRANCH  11  12
ATOM     12  O   UNL     1      -0.014   6.330  -3.527  0.00  0.00    -0.432 OA
BRANCH  12  13
ATOM     13  C   UNL     1      -1.224   6.206  -2.882  0.00  0.00    +0.441 C 
ATOM     14  O   UNL     1      -1.605   5.053  -2.517  0.00  0.00    -0.223 OA
ATOM     15  N   UNL     1      -2.226   7.188  -3.076  0.00  0.00    -0.048 NA
ENDBRANCH  12  13
ENDBRANCH  11  12
ENDBRANCH   1  11
BRANCH   1  16
ATOM     16  C   UNL     1       0.054   6.190  -6.232  0.00  0.00    +0.007 C 
BRANCH  16  18
ATOM     17  C   UNL     1      -2.161   5.521  -6.475  0.00  0.00    +0.000 C 
ATOM     18  C   UNL     1      -1.086   5.340  -6.694  0.00  0.00    +0.000 C 
ENDBRANCH  16  18
ENDBRANCH   1  16
TORSDOF 9
ENDMDL
MODEL 4
REMARK VINA RESULT:      -5.3      2.297      6.369
REMARK  Name = 
REMARK  9 active torsions:
REMARK  status: ('A' for Active; 'I' for Inactive)
REMARK    1  A    between atoms: C_2  and  C_3
REMARK    2  A    between atoms: C_3  and  C_4
REMARK    3  A    between atoms: C_4  and  C_6
REMARK    4  A    between atoms: C_4  and  C_11
REMARK    5  A    between atoms: C_6  and  O_7
REMARK    6  A    between atoms: O_7  and  C_8
REMARK    7  A    between atoms: C_11  and  O_12
REMARK    8  A    between atoms: O_12  and  C_13
REMARK    9  A    between atoms: N_15  and  C_16
REMARK                            x       y       z     vdW  Elec       q    Type
REMARK                         _______ _______ _______ _____ _____    ______ ____
ROOT
ATOM      1  C   UNL     1       0.840   5.532  -5.291  0.00  0.00    +0.081 C 
ATOM      2  C   UNL     1       0.765   7.012  -5.636  0.00  0.00    +0.007 C 
ENDROOT
BRANCH   1   3
ATOM      3  C   UNL     1       2.222   5.072  -5.645  0.00  0.00    +0.214 C 
BRANCH   3   4
ATOM      4  O   UNL     1       2.202   3.997  -6.583  0.00  0.00    -0.433 OA
BRANCH   4   5
ATOM      5  C   UNL     1       2.536   4.217  -7.902  0.00  0.00    +0.421 C 
ATOM      6  N   UNL     1       3.188   5.404  -8.364  0.00  0.00    -0.170 NA
ATOM      7  O   UNL     1       2.402   3.313  -8.780  0.00  0.00    -0.225 OA
BRANCH   6   8
ATOM      8  C   UNL     1       4.316   5.353  -9.291  0.00  0.00    +0.099 C 
ATOM      9  C   UNL     1       4.331   6.712  -9.985  0.00  0.00    +0.024 C 
ATOM     10  C   UNL     1       5.617   5.288  -8.498  0.00  0.00    +0.024 C 
ENDBRANCH   6   8
ENDBRANCH   4   5
ENDBRANCH   3   4
ENDBRANCH   1   3
BRANCH   1  11
ATOM     11  C   UNL     1       0.584   5.405  -3.811  0.00  0.00    +0.214 C 
BRANCH  11  12
ATOM     12  O   UNL     1      -0.610   6.035  -3.414  0.00  0.00    -0.432 OA
BRANCH  12  13
ATOM     13  C   UNL     1      -1.400   5.484  -2.431  0.00  0.00    +0.441 C 
ATOM     14  O   UNL     1      -0.855   5.113  -1.347  0.00  0.00    -0.223 OA
ATOM     15  N   UNL     1      -2.629   4.872  -2.779  0.00  0.00    -0.048 NA
ENDBRANCH  12  13
ENDBRANCH  11  12
ENDBRANCH   1  11
BRANCH   1  16
ATOM     16  C   UNL     1      -0.212   4.751  -6.030  0.00  0.00    +0.007 C 
BRANCH  16  18
ATOM     17  C   UNL     1      -2.378   5.503  -6.419  0.00  0.00    +0.000 C 
ATOM     18  C   UNL     1      -1.290   5.599  -6.624  0.00  0.00    +0.000 C 
ENDBRANCH  16  18
ENDBRANCH   1  16
TORSDOF 9
ENDMDL
MODEL 5
REMARK VINA RESULT:      -5.3      2.100      6.177
REMARK  Name = 
REMARK  9 active torsions:
REMARK  status: ('A' for Active; 'I' for Inactive)
REMARK    1  A    between atoms: C_2  and  C_3
REMARK    2  A    between atoms: C_3  and  C_4
REMARK    3  A    between atoms: C_4  and  C_6
REMARK    4  A    between atoms: C_4  and  C_11
REMARK    5  A    between atoms: C_6  and  O_7
REMARK    6  A    between atoms: O_7  and  C_8
REMARK    7  A    between atoms: C_11  and  O_12
REMARK    8  A    between atoms: O_12  and  C_13
REMARK    9  A    between atoms: N_15  and  C_16
REMARK                            x       y       z     vdW  Elec       q    Type
REMARK                         _______ _______ _______ _____ _____    ______ ____
ROOT
ATOM      1  C   UNL     1       0.129   5.854  -4.952  0.00  0.00    +0.081 C 
ATOM      2  C   UNL     1      -0.454   7.250  -5.121  0.00  0.00    +0.007 C 
ENDROOT
BRANCH   1   3
ATOM      3  C   UNL     1       1.619   5.991  -5.037  0.00  0.00    +0.214 C 
BRANCH   3   4
ATOM      4  O   UNL     1       2.007   7.221  -5.646  0.00  0.00    -0.433 OA
BRANCH   4   5
ATOM      5  C   UNL     1       2.673   7.221  -6.853  0.00  0.00    +0.421 C 
ATOM      6  N   UNL     1       3.699   6.282  -7.189  0.00  0.00    -0.170 NA
ATOM      7  O   UNL     1       2.320   7.981  -7.806  0.00  0.00    -0.225 OA
BRANCH   6   8
ATOM      8  C   UNL     1       3.734   5.609  -8.485  0.00  0.00    +0.099 C 
ATOM      9  C   UNL     1       5.206   5.302  -8.741  0.00  0.00    +0.024 C 
ATOM     10  C   UNL     1       3.051   4.251  -8.366  0.00  0.00    +0.024 C 
ENDBRANCH   6   8
ENDBRANCH   4   5
ENDBRANCH   3   4
ENDBRANCH   1   3
BRANCH   1  11
ATOM     11  C   UNL     1      -0.297   5.354  -3.595  0.00  0.00    +0.214 C 
BRANCH  11  12
ATOM     12  O   UNL     1      -1.189   6.232  -2.953  0.00  0.00    -0.432 OA
BRANCH  12  13
ATOM     13  C   UNL     1      -2.408   5.784  -2.497  0.00  0.00    +0.441 C 
ATOM     14  O   UNL     1      -2.734   4.578  -2.714  0.00  0.00    -0.223 OA
ATOM     15  N   UNL     1      -3.459   6.709  -2.279  0.00  0.00    -0.048 NA
ENDBRANCH  12  13
ENDBRANCH  11  12
ENDBRANCH   1  11
BRANCH   1  16
ATOM     16  C   UNL     1      -0.403   4.915  -6.000  0.00  0.00    +0.007 C 
BRANCH  16  18
ATOM     17  C   UNL     1      -0.294   5.470  -8.256  0.00  0.00    +0.000 C 
ATOM     18  C   UNL     1      -0.799   5.590  -7.274  0.00  0.00    +0.000 C 
ENDBRANCH  16  18
ENDBRANCH   1  16
TORSDOF 9
ENDMDL
MODEL 6
REMARK VINA RESULT:      -5.3      2.569      4.154
REMARK  Name = 
REMARK  9 active torsions:
REMARK  status: ('A' for Active; 'I' for Inactive)
REMARK    1  A    between atoms: C_2  and  C_3
REMARK    2  A    between atoms: C_3  and  C_4
REMARK    3  A    between atoms: C_4  and  C_6
REMARK    4  A    between atoms: C_4  and  C_11
REMARK    5  A    between atoms: C_6  and  O_7
REMARK    6  A    between atoms: O_7  and  C_8
REMARK    7  A    between atoms: C_11  and  O_12
REMARK    8  A    between atoms: O_12  and  C_13
REMARK    9  A    between atoms: N_15  and  C_16
REMARK                            x       y       z     vdW  Elec       q    Type
REMARK                         _______ _______ _______ _____ _____    ______ ____
ROOT
ATOM      1  C   UNL     1       3.075   6.376  -6.133  0.00  0.00    +0.081 C 
ATOM      2  C   UNL     1       2.331   7.275  -7.110  0.00  0.00    +0.007 C 
ENDROOT
BRANCH   1   3
ATOM      3  C   UNL     1       2.112   5.312  -5.701  0.00  0.00    +0.214 C 
BRANCH   3   4
ATOM      4  O   UNL     1       1.748   5.447  -4.329  0.00  0.00    -0.433 OA
BRANCH   4   5
ATOM      5  C   UNL     1       0.445   5.730  -3.978  0.00  0.00    +0.421 C 
ATOM      6  N   UNL     1      -0.429   6.537  -4.773  0.00  0.00    -0.170 NA
ATOM      7  O   UNL     1      -0.109   5.177  -2.981  0.00  0.00    -0.225 OA
BRANCH   6   8
ATOM      8  C   UNL     1      -1.808   6.141  -5.047  0.00  0.00    +0.099 C 
ATOM      9  C   UNL     1      -2.603   7.442  -5.083  0.00  0.00    +0.024 C 
ATOM     10  C   UNL     1      -1.897   5.572  -6.459  0.00  0.00    +0.024 C 
ENDBRANCH   6   8
ENDBRANCH   4   5
ENDBRANCH   3   4
ENDBRANCH   1   3
BRANCH   1  11
ATOM     11  C   UNL     1       4.246   5.784  -6.875  0.00  0.00    +0.214 C 
BRANCH  11  12
ATOM     12  O   UNL     1       4.137   5.942  -8.269  0.00  0.00    -0.432 OA
BRANCH  12  13
ATOM     13  C   UNL     1       4.056   4.843  -9.095  0.00  0.00    +0.441 C 
ATOM     14  O   UNL     1       4.398   4.967 -10.309  0.00  0.00    -0.223 OA
ATOM     15  N   UNL     1       3.159   3.793  -8.779  0.00  0.00    -0.048 NA
ENDBRANCH  12  13
ENDBRANCH  11  12
ENDBRANCH   1  11
BRANCH   1  16
ATOM     16  C   UNL     1       3.595   7.163  -4.962  0.00  0.00    +0.007 C 
BRANCH  16  18
ATOM     17  C   UNL     1       5.622   7.393  -3.845  0.00  0.00    +0.000 C 
ATOM     18  C   UNL     1       5.052   6.959  -4.694  0.00  0.00    +0.000 C 
ENDBRANCH  16  18
ENDBRANCH   1  16
TORSDOF 9
ENDMDL
MODEL 7
REMARK VINA RESULT:      -5.2      3.729      7.333
REMARK  Name = 
REMARK  9 active torsions:
REMARK  status: ('A' for Active; 'I' for Inactive)
REMARK    1  A    between atoms: C_2  and  C_3
REMARK    2  A    between atoms: C_3  and  C_4
REMARK    3  A    between atoms: C_4  and  C_6
REMARK    4  A    between atoms: C_4  and  C_11
REMARK    5  A    between atoms: C_6  and  O_7
REMARK    6  A    between atoms: O_7  and  C_8
REMARK    7  A    between atoms: C_11  and  O_12
REMARK    8  A    between atoms: O_12  and  C_13
REMARK    9  A    between atoms: N_15  and  C_16
REMARK                            x       y       z     vdW  Elec       q    Type
REMARK                         _______ _______ _______ _____ _____    ______ ____
ROOT
ATOM      1  C   UNL     1       1.581   5.825  -7.653  0.00  0.00    +0.081 C 
ATOM      2  C   UNL     1       1.936   7.272  -7.964  0.00  0.00    +0.007 C 
ENDROOT
BRANCH   1   3
ATOM      3  C   UNL     1       2.495   4.967  -8.474  0.00  0.00    +0.214 C 
BRANCH   3   4
ATOM      4  O   UNL     1       3.338   5.744  -9.322  0.00  0.00    -0.433 OA
BRANCH   4   5
ATOM      5  C   UNL     1       4.689   5.481  -9.392  0.00  0.00    +0.421 C 
ATOM      6  N   UNL     1       5.505   5.831 -10.515  0.00  0.00    -0.170 NA
ATOM      7  O   UNL     1       5.329   5.023  -8.398  0.00  0.00    -0.225 OA
BRANCH   6   8
ATOM      8  C   UNL     1       6.812   6.463 -10.350  0.00  0.00    +0.099 C 
ATOM      9  C   UNL     1       7.797   5.546 -11.069  0.00  0.00    +0.024 C 
ATOM     10  C   UNL     1       6.838   7.775 -11.127  0.00  0.00    +0.024 C 
ENDBRANCH   6   8
ENDBRANCH   4   5
ENDBRANCH   3   4
ENDBRANCH   1   3
BRANCH   1  11
ATOM     11  C   UNL     1       1.814   5.616  -6.178  0.00  0.00    +0.214 C 
BRANCH  11  12
ATOM     12  O   UNL     1       3.022   4.944  -5.914  0.00  0.00    -0.432 OA
BRANCH  12  13
ATOM     13  C   UNL     1       3.995   5.530  -5.136  0.00  0.00    +0.441 C 
ATOM     14  O   UNL     1       4.438   6.670  -5.469  0.00  0.00    -0.223 OA
ATOM     15  N   UNL     1       4.835   4.719  -4.334  0.00  0.00    -0.048 NA
ENDBRANCH  12  13
ENDBRANCH  11  12
ENDBRANCH   1  11
BRANCH   1  16
ATOM     16  C   UNL     1       0.135   5.546  -7.956  0.00  0.00    +0.007 C 
BRANCH  16  18
ATOM     17  C   UNL     1      -1.760   5.506  -6.608  0.00  0.00    +0.000 C 
ATOM     18  C   UNL     1      -0.690   5.243  -6.746  0.00  0.00    +0.000 C 
ENDBRANCH  16  18
ENDBRANCH   1  16
TORSDOF 9
ENDMDL
MODEL 8
REMARK VINA RESULT:      -5.2      1.796      2.400
REMARK  Name = 
REMARK  9 active torsions:
REMARK  status: ('A' for Active; 'I' for Inactive)
REMARK    1  A    between atoms: C_2  and  C_3
REMARK    2  A    between atoms: C_3  and  C_4
REMARK    3  A    between atoms: C_4  and  C_6
REMARK    4  A    between atoms: C_4  and  C_11
REMARK    5  A    between atoms: C_6  and  O_7
REMARK    6  A    between atoms: O_7  and  C_8
REMARK    7  A    between atoms: C_11  and  O_12
REMARK    8  A    between atoms: O_12  and  C_13
REMARK    9  A    between atoms: N_15  and  C_16
REMARK                            x       y       z     vdW  Elec       q    Type
REMARK                         _______ _______ _______ _____ _____    ______ ____
ROOT
ATOM      1  C   UNL     1       0.623   5.357  -6.244  0.00  0.00    +0.081 C 
ATOM      2  C   UNL     1       1.451   4.090  -6.088  0.00  0.00    +0.007 C 
ENDROOT
BRANCH   1   3
ATOM      3  C   UNL     1       0.614   6.040  -4.910  0.00  0.00    +0.214 C 
BRANCH   3   4
ATOM      4  O   UNL     1       0.745   5.112  -3.835  0.00  0.00    -0.433 OA
BRANCH   4   5
ATOM      5  C   UNL     1       0.112   5.344  -2.633  0.00  0.00    +0.421 C 
ATOM      6  N   UNL     1      -0.911   6.330  -2.457  0.00  0.00    -0.170 NA
ATOM      7  O   UNL     1       0.306   4.599  -1.625  0.00  0.00    -0.225 OA
BRANCH   6   8
ATOM      8  C   UNL     1      -2.144   6.039  -1.729  0.00  0.00    +0.099 C 
ATOM      9  C   UNL     1      -2.234   7.108  -0.644  0.00  0.00    +0.024 C 
ATOM     10  C   UNL     1      -3.339   6.288  -2.643  0.00  0.00    +0.024 C 
ENDBRANCH   6   8
ENDBRANCH   4   5
ENDBRANCH   3   4
ENDBRANCH   1   3
BRANCH   1  11
ATOM     11  C   UNL     1       1.300   6.207  -7.289  0.00  0.00    +0.214 C 
BRANCH  11  12
ATOM     12  O   UNL     1       0.761   6.014  -8.574  0.00  0.00    -0.432 OA
BRANCH  12  13
ATOM     13  C   UNL     1       1.475   5.340  -9.539  0.00  0.00    +0.441 C 
ATOM     14  O   UNL     1       0.849   4.589 -10.347  0.00  0.00    -0.223 OA
ATOM     15  N   UNL     1       2.849   5.065  -9.332  0.00  0.00    -0.048 NA
ENDBRANCH  12  13
ENDBRANCH  11  12
ENDBRANCH   1  11
BRANCH   1  16
ATOM     16  C   UNL     1      -0.770   5.038  -6.714  0.00  0.00    +0.007 C 
BRANCH  16  18
ATOM     17  C   UNL     1      -2.844   6.041  -6.396  0.00  0.00    +0.000 C 
ATOM     18  C   UNL     1      -1.841   5.791  -5.991  0.00  0.00    +0.000 C 
ENDBRANCH  16  18
ENDBRANCH   1  16
TORSDOF 9
ENDMDL
MODEL 9
REMARK VINA RESULT:      -5.2      5.158      8.337
REMARK  Name = 
REMARK  9 active torsions:
REMARK  status: ('A' for Active; 'I' for Inactive)
REMARK    1  A    between atoms: C_2  and  C_3
REMARK    2  A    between atoms: C_3  and  C_4
REMARK    3  A    between atoms: C_4  and  C_6
REMARK    4  A    between atoms: C_4  and  C_11
REMARK    5  A    between atoms: C_6  and  O_7
REMARK    6  A    between atoms: O_7  and  C_8
REMARK    7  A    between atoms: C_11  and  O_12
REMARK    8  A    between atoms: O_12  and  C_13
REMARK    9  A    between atoms: N_15  and  C_16
REMARK                            x       y       z     vdW  Elec       q    Type
REMARK                         _______ _______ _______ _____ _____    ______ ____
ROOT
ATOM      1  C   UNL     1       5.977   6.243 -11.021  0.00  0.00    +0.081 C 
ATOM      2  C   UNL     1       5.946   7.755 -11.196  0.00  0.00    +0.007 C 
ENDROOT
BRANCH   1   3
ATOM      3  C   UNL     1       5.001   5.910  -9.934  0.00  0.00    +0.214 C 
BRANCH   3   4
ATOM      4  O   UNL     1       4.118   6.995  -9.659  0.00  0.00    -0.433 OA
BRANCH   4   5
ATOM      5  C   UNL     1       3.094   6.847  -8.748  0.00  0.00    +0.421 C 
ATOM      6  N   UNL     1       2.801   5.613  -8.084  0.00  0.00    -0.170 NA
ATOM      7  O   UNL     1       2.421   7.840  -8.338  0.00  0.00    -0.225 OA
BRANCH   6   8
ATOM      8  C   UNL     1       2.536   5.556  -6.648  0.00  0.00    +0.099 C 
ATOM      9  C   UNL     1       2.068   4.128  -6.382  0.00  0.00    +0.024 C 
ATOM     10  C   UNL     1       3.849   5.701  -5.887  0.00  0.00    +0.024 C 
ENDBRANCH   6   8
ENDBRANCH   4   5
ENDBRANCH   3   4
ENDBRANCH   1   3
BRANCH   1  11
ATOM     11  C   UNL     1       5.560   5.633 -12.336  0.00  0.00    +0.214 C 
BRANCH  11  12
ATOM     12  O   UNL     1       4.229   5.178 -12.320  0.00  0.00    -0.432 OA
BRANCH  12  13
ATOM     13  C   UNL     1       3.269   5.792 -13.092  0.00  0.00    +0.441 C 
ATOM     14  O   UNL     1       2.212   6.212 -12.532  0.00  0.00    -0.223 OA
ATOM     15  N   UNL     1       3.197   5.509 -14.479  0.00  0.00    -0.048 NA
ENDBRANCH  12  13
ENDBRANCH  11  12
ENDBRANCH   1  11
BRANCH   1  16
ATOM     16  C   UNL     1       7.364   5.766 -10.688  0.00  0.00    +0.007 C 
BRANCH  16  18
ATOM     17  C   UNL     1       9.156   5.922 -12.163  0.00  0.00    +0.000 C 
ATOM     18  C   UNL     1       8.196   5.437 -11.886  0.00  0.00    +0.000 C 
ENDBRANCH  16  18
ENDBRANCH   1  16
TORSDOF 9
ENDMDL
