MODEL 1
REMARK VINA RESULT:      -9.3      0.000      0.000
REMARK  Name = 
REMARK  10 active torsions:
REMARK  status: ('A' for Active; 'I' for Inactive)
REMARK    1  A    between atoms: C_2  and  O_3
REMARK    2  A    between atoms: C_2  and  C_22
REMARK    3  A    between atoms: O_3  and  C_4
REMARK    4  A    between atoms: N_6  and  C_7
REMARK    5  A    between atoms: C_7  and  C_8
REMARK    6  A    between atoms: C_8  and  C_9
REMARK    7  A    between atoms: C_9  and  O_10
REMARK    8  A    between atoms: O_10  and  C_11
REMARK    9  A    between atoms: C_22  and  C_24
REMARK   10  A    between atoms: C_22  and  C_29
REMARK                            x       y       z     vdW  Elec       q    Type
REMARK                         _______ _______ _______ _____ _____    ______ ____
ROOT
ATOM      1  C   UNL     1       3.365   6.951  -5.817  0.00  0.00    +0.224 C 
ATOM      2  C   UNL     1       4.838   6.433  -5.240  0.00  0.00    +0.058 C 
ATOM      3  C   UNL     1       4.626   5.080  -4.668  0.00  0.00    +0.065 C 
ATOM      4  C   UNL     1       4.097   5.311  -3.253  0.00  0.00    +0.109 C 
ATOM      5  N   UNL     1       3.125   6.396  -3.422  0.00  0.00    +0.300 N 
ATOM      6  C   UNL     1       3.780   7.680  -3.485  0.00  0.00    +0.109 C 
ATOM      7  C   UNL     1       5.120   7.502  -4.190  0.00  0.00    +0.065 C 
ATOM      8  C   UNL     1       2.484   6.083  -4.701  0.00  0.00    +0.153 C 
ENDROOT
BRANCH   1   9
ATOM      9  O   UNL     1       3.302   5.778  -6.842  0.00  0.00    -0.444 OA
BRANCH   9  11
ATOM     10  O   UNL     1       2.836   7.399  -8.248  0.00  0.00    -0.247 OA
ATOM     11  C   UNL     1       3.151   6.262  -8.137  0.00  0.00    +0.354 C 
BRANCH  11  12
ATOM     12  C   UNL     1       3.511   5.478  -9.349  0.00  0.00    +0.263 C 
ATOM     13  O   UNL     1       3.690   4.150  -9.007  0.00  0.00    -0.204 OA
BRANCH  12  14
ATOM     14  C   UNL     1       4.720   6.054 -10.020  0.00  0.00    +0.049 A 
ATOM     15  S   UNL     1       6.372   5.718  -9.694  0.00  0.00    -0.088 S 
ATOM     16  C   UNL     1       7.093   7.025 -10.543  0.00  0.00    +0.035 A 
ATOM     17  C   UNL     1       5.994   7.472 -11.268  0.00  0.00    +0.007 A 
ATOM     18  C   UNL     1       4.835   7.331 -10.561  0.00  0.00    +0.006 A 
ENDBRANCH  12  14
BRANCH  12  19
ATOM     19  C   UNL     1       2.350   5.596 -10.287  0.00  0.00    +0.049 A 
ATOM     20  S   UNL     1       2.323   5.730 -11.999  0.00  0.00    -0.088 S 
ATOM     21  C   UNL     1       0.685   5.303 -12.285  0.00  0.00    +0.035 A 
ATOM     22  C   UNL     1       0.195   5.355 -10.986  0.00  0.00    +0.007 A 
ATOM     23  C   UNL     1       1.134   4.955 -10.077  0.00  0.00    +0.006 A 
ENDBRANCH  12  19
ENDBRANCH  11  12
ENDBRANCH   9  11
ENDBRANCH   1   9
BRANCH   5  24
ATOM     24  C   UNL     1       2.080   6.303  -2.454  0.00  0.00    +0.113 C 
BRANCH  24  25
ATOM     25  C   UNL     1       0.949   5.414  -2.739  0.00  0.00    +0.108 C 
BRANCH  25  26
ATOM     26  C   UNL     1      -0.076   5.237  -1.682  0.00  0.00    +0.212 C 
BRANCH  26  27
ATOM     27  O   UNL     1      -1.353   5.003  -2.233  0.00  0.00    -0.475 OA
BRANCH  27  28
ATOM     28  C   UNL     1      -1.994   5.873  -3.101  0.00  0.00    +0.139 A 
ATOM     29  C   UNL     1      -2.320   5.474  -4.380  0.00  0.00    +0.037 A 
ATOM     30  C   UNL     1      -2.377   6.395  -5.397  0.00  0.00    +0.003 A 
ATOM     31  C   UNL     1      -2.377   7.750  -5.122  0.00  0.00    +0.000 A 
ATOM     32  C   UNL     1      -2.053   8.155  -3.843  0.00  0.00    +0.003 A 
ATOM     33  C   UNL     1      -2.098   7.232  -2.830  0.00  0.00    +0.037 A 
ENDBRANCH  27  28
ENDBRANCH  26  27
ENDBRANCH  25  26
ENDBRANCH  24  25
ENDBRANCH   5  24
TORSDOF 10
ENDMDL
MODEL 2
REMARK VINA RESULT:      -9.3      3.087      8.999
REMARK  Name = 
REMARK  10 active torsions:
REMARK  status: ('A' for Active; 'I' for Inactive)
REMARK    1  A    between atoms: C_2  and  O_3
REMARK    2  A    between atoms: C_2  and  C_22
REMARK    3  A    between atoms: O_3  and  C_4
REMARK    4  A    between atoms: N_6  and  C_7
REMARK    5  A    between atoms: C_7  and  C_8
REMARK    6  A    between atoms: C_8  and  C_9
REMARK    7  A    between atoms: C_9  and  O_10
REMARK    8  A    between atoms: O_10  and  C_11
REMARK    9  A    between atoms: C_22  and  C_24
REMARK   10  A    between atoms: C_22  and  C_29
REMARK                            x       y       z     vdW  Elec       q    Type
REMARK                         _______ _______ _______ _____ _____    ______ ____
ROOT
ATOM      1  C   UNL     1       1.618   6.958 -10.350  0.00  0.00    +0.224 C 
ATOM      2  C   UNL     1       0.175   6.130 -10.420  0.00  0.00    +0.058 C 
ATOM      3  C   UNL     1       0.489   4.751 -10.868  0.00  0.00    +0.065 C 
ATOM      4  C   UNL     1       0.578   4.825 -12.392  0.00  0.00    +0.109 C 
ATOM      5  N   UNL     1       1.330   6.061 -12.633  0.00  0.00    +0.300 N 
ATOM      6  C   UNL     1       0.478   7.220 -12.535  0.00  0.00    +0.109 C 
ATOM      7  C   UNL     1      -0.572   6.956 -11.462  0.00  0.00    +0.065 C 
ATOM      8  C   UNL     1       2.330   6.066 -11.563  0.00  0.00    +0.153 C 
ENDROOT
BRANCH   1   9
ATOM      9  O   UNL     1       2.171   5.994  -9.258  0.00  0.00    -0.444 OA
BRANCH   9  11
ATOM     10  O   UNL     1       1.713   7.637  -7.875  0.00  0.00    -0.247 OA
ATOM     11  C   UNL     1       1.873   6.468  -7.984  0.00  0.00    +0.354 C 
BRANCH  11  12
ATOM     12  C   UNL     1       1.602   5.577  -6.824  0.00  0.00    +0.263 C 
ATOM     13  O   UNL     1       1.803   4.260  -7.193  0.00  0.00    -0.204 OA
BRANCH  12  14
ATOM     14  C   UNL     1       0.223   5.806  -6.284  0.00  0.00    +0.049 A 
ATOM     15  S   UNL     1      -0.250   6.023  -4.648  0.00  0.00    -0.088 S 
ATOM     16  C   UNL     1      -1.944   5.806  -4.818  0.00  0.00    +0.035 A 
ATOM     17  C   UNL     1      -2.053   5.866  -6.203  0.00  0.00    +0.007 A 
ATOM     18  C   UNL     1      -0.965   5.315  -6.817  0.00  0.00    +0.006 A 
ENDBRANCH  12  14
BRANCH  12  19
ATOM     19  C   UNL     1       2.591   5.953  -5.765  0.00  0.00    +0.049 A 
ATOM     20  S   UNL     1       3.417   4.968  -4.626  0.00  0.00    -0.088 S 
ATOM     21  C   UNL     1       4.674   6.050  -4.183  0.00  0.00    +0.035 A 
ATOM     22  C   UNL     1       4.194   7.221  -4.758  0.00  0.00    +0.007 A 
ATOM     23  C   UNL     1       3.525   6.972  -5.923  0.00  0.00    +0.006 A 
ENDBRANCH  12  19
ENDBRANCH  11  12
ENDBRANCH   9  11
ENDBRANCH   1   9
BRANCH   5  24
ATOM     24  C   UNL     1       2.085   5.973 -13.842  0.00  0.00    +0.113 C 
BRANCH  24  25
ATOM     25  C   UNL     1       3.257   5.092 -13.863  0.00  0.00    +0.108 C 
BRANCH  25  26
ATOM     26  C   UNL     1       4.563   5.687 -14.237  0.00  0.00    +0.212 C 
BRANCH  26  27
ATOM     27  O   UNL     1       5.627   5.088 -13.530  0.00  0.00    -0.475 OA
BRANCH  27  28
ATOM     28  C   UNL     1       6.524   5.788 -12.740  0.00  0.00    +0.139 A 
ATOM     29  C   UNL     1       7.534   5.129 -12.073  0.00  0.00    +0.037 A 
ATOM     30  C   UNL     1       8.020   5.628 -10.889  0.00  0.00    +0.003 A 
ATOM     31  C   UNL     1       7.708   6.911 -10.484  0.00  0.00    +0.000 A 
ATOM     32  C   UNL     1       6.698   7.578 -11.149  0.00  0.00    +0.003 A 
ATOM     33  C   UNL     1       6.300   7.110 -12.376  0.00  0.00    +0.037 A 
ENDBRANCH  27  28
ENDBRANCH  26  27
ENDBRANCH  25  26
ENDBRANCH  24  25
ENDBRANCH   5  24
TORSDOF 10
ENDMDL
MODEL 3
REMARK VINA RESULT:      -8.8      3.094      8.478
REMARK  Name = 
REMARK  10 active torsions:
REMARK  status: ('A' for Active; 'I' for Inactive)
REMARK    1  A    between atoms: C_2  and  O_3
REMARK    2  A    between atoms: C_2  and  C_22
REMARK    3  A    between atoms: O_3  and  C_4
REMARK    4  A    between atoms: N_6  and  C_7
REMARK    5  A    between atoms: C_7  and  C_8
REMARK    6  A    between atoms: C_8  and  C_9
REMARK    7  A    between atoms: C_9  and  O_10
REMARK    8  A    between atoms: O_10  and  C_11
REMARK    9  A    between atoms: C_22  and  C_24
REMARK   10  A    between atoms: C_22  and  C_29
REMARK                            x       y       z     vdW  Elec       q    Type
REMARK                         _______ _______ _______ _____ _____    ______ ____
ROOT
ATOM      1  C   UNL     1       2.440   4.665  -8.042  0.00  0.00    +0.224 C 
ATOM      2  C   UNL     1       3.401   6.006  -7.818  0.00  0.00    +0.058 C 
ATOM      3  C   UNL     1       2.822   7.096  -8.640  0.00  0.00    +0.065 C 
ATOM      4  C   UNL     1       3.368   6.879 -10.051  0.00  0.00    +0.109 C 
ATOM      5  N   UNL     1       3.259   5.429 -10.243  0.00  0.00    +0.300 N 
ATOM      6  C   UNL     1       4.354   4.734  -9.614  0.00  0.00    +0.109 C 
ATOM      7  C   UNL     1       4.735   5.486  -8.344  0.00  0.00    +0.065 C 
ATOM      8  C   UNL     1       1.993   5.093  -9.588  0.00  0.00    +0.153 C 
ENDROOT
BRANCH   1   9
ATOM      9  O   UNL     1       1.202   5.394  -7.437  0.00  0.00    -0.444 OA
BRANCH   9  11
ATOM     10  O   UNL     1       0.988   3.868  -5.873  0.00  0.00    -0.247 OA
ATOM     11  C   UNL     1       1.015   5.029  -6.107  0.00  0.00    +0.354 C 
BRANCH  11  12
ATOM     12  C   UNL     1       1.007   6.006  -4.986  0.00  0.00    +0.263 C 
ATOM     13  O   UNL     1       0.763   7.275  -5.476  0.00  0.00    -0.204 OA
BRANCH  12  14
ATOM     14  C   UNL     1       2.286   5.939  -4.208  0.00  0.00    +0.049 A 
ATOM     15  S   UNL     1       3.174   7.237  -3.518  0.00  0.00    -0.088 S 
ATOM     16  C   UNL     1       4.649   6.421  -3.192  0.00  0.00    +0.035 A 
ATOM     17  C   UNL     1       4.240   5.106  -3.384  0.00  0.00    +0.007 A 
ATOM     18  C   UNL     1       3.308   5.010  -4.377  0.00  0.00    +0.006 A 
ENDBRANCH  12  14
BRANCH  12  19
ATOM     19  C   UNL     1      -0.115   5.599  -4.082  0.00  0.00    +0.049 A 
ATOM     20  S   UNL     1      -0.143   5.399  -2.376  0.00  0.00    -0.088 S 
ATOM     21  C   UNL     1      -1.839   5.442  -2.119  0.00  0.00    +0.035 A 
ATOM     22  C   UNL     1      -2.282   5.331  -3.431  0.00  0.00    +0.007 A 
ATOM     23  C   UNL     1      -1.440   5.962  -4.302  0.00  0.00    +0.006 A 
ENDBRANCH  12  19
ENDBRANCH  11  12
ENDBRANCH   9  11
ENDBRANCH   1   9
BRANCH   5  24
ATOM     24  C   UNL     1       3.057   5.108 -11.620  0.00  0.00    +0.113 C 
BRANCH  24  25
ATOM     25  C   UNL     1       3.566   6.042 -12.630  0.00  0.00    +0.108 C 
BRANCH  25  26
ATOM     26  C   UNL     1       4.478   5.507 -13.670  0.00  0.00    +0.212 C 
BRANCH  26  27
ATOM     27  O   UNL     1       5.621   6.320 -13.824  0.00  0.00    -0.475 OA
BRANCH  27  28
ATOM     28  C   UNL     1       6.557   6.538 -12.827  0.00  0.00    +0.139 A 
ATOM     29  C   UNL     1       7.323   5.499 -12.344  0.00  0.00    +0.037 A 
ATOM     30  C   UNL     1       7.774   5.519 -11.046  0.00  0.00    +0.003 A 
ATOM     31  C   UNL     1       7.704   6.675 -10.293  0.00  0.00    +0.000 A 
ATOM     32  C   UNL     1       6.940   7.720 -10.773  0.00  0.00    +0.003 A 
ATOM     33  C   UNL     1       6.586   7.721 -12.097  0.00  0.00    +0.037 A 
ENDBRANCH  27  28
ENDBRANCH  26  27
ENDBRANCH  25  26
ENDBRANCH  24  25
ENDBRANCH   5  24
TORSDOF 10
ENDMDL
MODEL 4
REMARK VINA RESULT:      -8.8      1.925      5.274
REMARK  Name = 
REMARK  10 active torsions:
REMARK  status: ('A' for Active; 'I' for Inactive)
REMARK    1  A    between atoms: C_2  and  O_3
REMARK    2  A    between atoms: C_2  and  C_22
REMARK    3  A    between atoms: O_3  and  C_4
REMARK    4  A    between atoms: N_6  and  C_7
REMARK    5  A    between atoms: C_7  and  C_8
REMARK    6  A    between atoms: C_8  and  C_9
REMARK    7  A    between atoms: C_9  and  O_10
REMARK    8  A    between atoms: O_10  and  C_11
REMARK    9  A    between atoms: C_22  and  C_24
REMARK   10  A    between atoms: C_22  and  C_29
REMARK                            x       y       z     vdW  Elec       q    Type
REMARK                         _______ _______ _______ _____ _____    ______ ____
ROOT
ATOM      1  C   UNL     1      -0.643   5.539  -5.281  0.00  0.00    +0.224 C 
ATOM      2  C   UNL     1      -2.066   6.403  -5.266  0.00  0.00    +0.058 C 
ATOM      3  C   UNL     1      -1.742   7.762  -4.766  0.00  0.00    +0.065 C 
ATOM      4  C   UNL     1      -1.737   7.647  -3.242  0.00  0.00    +0.109 C 
ATOM      5  N   UNL     1      -1.031   6.386  -2.994  0.00  0.00    +0.300 N 
ATOM      6  C   UNL     1      -1.905   5.253  -3.168  0.00  0.00    +0.109 C 
ATOM      7  C   UNL     1      -2.889   5.572  -4.287  0.00  0.00    +0.065 C 
ATOM      8  C   UNL     1       0.025   6.381  -4.009  0.00  0.00    +0.153 C 
ENDROOT
BRANCH   1   9
ATOM      9  O   UNL     1      -0.008   6.515  -6.317  0.00  0.00    -0.444 OA
BRANCH   9  11
ATOM     10  O   UNL     1       1.099   4.704  -6.883  0.00  0.00    -0.247 OA
ATOM     11  C   UNL     1       0.918   5.852  -7.116  0.00  0.00    +0.354 C 
BRANCH  11  12
ATOM     12  C   UNL     1       1.551   6.467  -8.314  0.00  0.00    +0.263 C 
ATOM     13  O   UNL     1       1.654   7.834  -8.134  0.00  0.00    -0.204 OA
BRANCH  12  14
ATOM     14  C   UNL     1       0.793   6.118  -9.559  0.00  0.00    +0.049 A 
ATOM     15  S   UNL     1       0.609   4.574 -10.287  0.00  0.00    -0.088 S 
ATOM     16  C   UNL     1       0.003   5.061 -11.818  0.00  0.00    +0.035 A 
ATOM     17  C   UNL     1      -0.287   6.394 -11.546  0.00  0.00    +0.007 A 
ATOM     18  C   UNL     1       0.612   6.934 -10.671  0.00  0.00    +0.006 A 
ENDBRANCH  12  14
BRANCH  12  19
ATOM     19  C   UNL     1       2.922   5.875  -8.416  0.00  0.00    +0.049 A 
ATOM     20  S   UNL     1       3.919   5.627  -9.792  0.00  0.00    -0.088 S 
ATOM     21  C   UNL     1       5.430   5.413  -9.006  0.00  0.00    +0.035 A 
ATOM     22  C   UNL     1       4.997   5.273  -7.693  0.00  0.00    +0.007 A 
ATOM     23  C   UNL     1       3.899   6.045  -7.440  0.00  0.00    +0.006 A 
ENDBRANCH  12  19
ENDBRANCH  11  12
ENDBRANCH   9  11
ENDBRANCH   1   9
BRANCH   5  24
ATOM     24  C   UNL     1      -0.339   6.423  -1.744  0.00  0.00    +0.113 C 
BRANCH  24  25
ATOM     25  C   UNL     1       0.279   5.185  -1.259  0.00  0.00    +0.108 C 
BRANCH  25  26
ATOM     26  C   UNL     1       1.739   5.198  -0.997  0.00  0.00    +0.212 C 
BRANCH  26  27
ATOM     27  O   UNL     1       2.319   6.434  -1.355  0.00  0.00    -0.475 OA
BRANCH  27  28
ATOM     28  C   UNL     1       3.500   6.558  -2.068  0.00  0.00    +0.139 A 
ATOM     29  C   UNL     1       3.950   7.797  -2.471  0.00  0.00    +0.037 A 
ATOM     30  C   UNL     1       4.705   7.920  -3.611  0.00  0.00    +0.003 A 
ATOM     31  C   UNL     1       5.249   6.806  -4.220  0.00  0.00    +0.000 A 
ATOM     32  C   UNL     1       4.805   5.562  -3.820  0.00  0.00    +0.003 A 
ATOM     33  C   UNL     1       4.136   5.456  -2.628  0.00  0.00    +0.037 A 
ENDBRANCH  27  28
ENDBRANCH  26  27
ENDBRANCH  25  26
ENDBRANCH  24  25
ENDBRANCH   5  24
TORSDOF 10
ENDMDL
MODEL 5
REMARK VINA RESULT:      -8.8      3.242      7.611
REMARK  Name = 
REMARK  10 active torsions:
REMARK  status: ('A' for Active; 'I' for Inactive)
REMARK    1  A    between atoms: C_2  and  O_3
REMARK    2  A    between atoms: C_2  and  C_22
REMARK    3  A    between atoms: O_3  and  C_4
REMARK    4  A    between atoms: N_6  and  C_7
REMARK    5  A    between atoms: C_7  and  C_8
REMARK    6  A    between atoms: C_8  and  C_9
REMARK    7  A    between atoms: C_9  and  O_10
REMARK    8  A    between atoms: O_10  and  C_11
REMARK    9  A    between atoms: C_22  and  C_24
REMARK   10  A    between atoms: C_22  and  C_29
REMARK                            x       y       z     vdW  Elec       q    Type
REMARK                         _______ _______ _______ _____ _____    ______ ____
ROOT
ATOM      1  C   UNL     1       5.329   5.512  -9.930  0.00  0.00    +0.224 C 
ATOM      2  C   UNL     1       6.446   6.743 -10.018  0.00  0.00    +0.058 C 
ATOM      3  C   UNL     1       5.884   7.774 -10.926  0.00  0.00    +0.065 C 
ATOM      4  C   UNL     1       6.219   7.301 -12.340  0.00  0.00    +0.109 C 
ATOM      5  N   UNL     1       5.935   5.863 -12.299  0.00  0.00    +0.300 N 
ATOM      6  C   UNL     1       7.024   5.131 -11.698  0.00  0.00    +0.109 C 
ATOM      7  C   UNL     1       7.640   5.998 -10.605  0.00  0.00    +0.065 C 
ATOM      8  C   UNL     1       4.735   5.776 -11.464  0.00  0.00    +0.153 C 
ENDROOT
BRANCH   1   9
ATOM      9  O   UNL     1       4.262   6.463  -9.308  0.00  0.00    -0.444 OA
BRANCH   9  11
ATOM     10  O   UNL     1       3.598   4.645  -8.269  0.00  0.00    -0.247 OA
ATOM     11  C   UNL     1       3.581   5.830  -8.272  0.00  0.00    +0.354 C 
BRANCH  11  12
ATOM     12  C   UNL     1       2.986   6.560  -7.121  0.00  0.00    +0.263 C 
ATOM     13  O   UNL     1       2.866   7.901  -7.433  0.00  0.00    -0.204 OA
BRANCH  12  14
ATOM     14  C   UNL     1       3.789   6.341  -5.875  0.00  0.00    +0.049 A 
ATOM     15  S   UNL     1       3.856   4.934  -4.894  0.00  0.00    -0.088 S 
ATOM     16  C   UNL     1       4.620   5.599  -3.508  0.00  0.00    +0.035 A 
ATOM     17  C   UNL     1       5.033   6.821  -4.028  0.00  0.00    +0.007 A 
ATOM     18  C   UNL     1       4.138   7.308  -4.937  0.00  0.00    +0.006 A 
ENDBRANCH  12  14
BRANCH  12  19
ATOM     19  C   UNL     1       1.623   5.975  -6.912  0.00  0.00    +0.049 A 
ATOM     20  S   UNL     1       0.614   5.994  -5.522  0.00  0.00    -0.088 S 
ATOM     21  C   UNL     1      -0.884   5.597  -6.261  0.00  0.00    +0.035 A 
ATOM     22  C   UNL     1      -0.433   5.201  -7.514  0.00  0.00    +0.007 A 
ATOM     23  C   UNL     1       0.655   5.926  -7.910  0.00  0.00    +0.006 A 
ENDBRANCH  12  19
ENDBRANCH  11  12
ENDBRANCH   9  11
ENDBRANCH   1   9
BRANCH   5  24
ATOM     24  C   UNL     1       5.527   5.384 -13.581  0.00  0.00    +0.113 C 
BRANCH  24  25
ATOM     25  C   UNL     1       4.119   5.021 -13.767  0.00  0.00    +0.108 C 
BRANCH  25  26
ATOM     26  C   UNL     1       3.259   5.959 -14.530  0.00  0.00    +0.212 C 
BRANCH  26  27
ATOM     27  O   UNL     1       1.933   5.484 -14.626  0.00  0.00    -0.475 OA
BRANCH  27  28
ATOM     28  C   UNL     1       0.939   5.768 -13.703  0.00  0.00    +0.139 A 
ATOM     29  C   UNL     1       0.531   7.067 -13.491  0.00  0.00    +0.037 A 
ATOM     30  C   UNL     1       0.049   7.447 -12.262  0.00  0.00    +0.003 A 
ATOM     31  C   UNL     1      -0.286   6.500 -11.313  0.00  0.00    +0.000 A 
ATOM     32  C   UNL     1       0.118   5.197 -11.521  0.00  0.00    +0.003 A 
ATOM     33  C   UNL     1       0.503   4.823 -12.783  0.00  0.00    +0.037 A 
ENDBRANCH  27  28
ENDBRANCH  26  27
ENDBRANCH  25  26
ENDBRANCH  24  25
ENDBRANCH   5  24
TORSDOF 10
ENDMDL
MODEL 6
REMARK VINA RESULT:      -8.7      1.450      3.530
REMARK  Name = 
REMARK  10 active torsions:
REMARK  status: ('A' for Active; 'I' for Inactive)
REMARK    1  A    between atoms: C_2  and  O_3
REMARK    2  A    between atoms: C_2  and  C_22
REMARK    3  A    between atoms: O_3  and  C_4
REMARK    4  A    between atoms: N_6  and  C_7
REMARK    5  A    between atoms: C_7  and  C_8
REMARK    6  A    between atoms: C_8  and  C_9
REMARK    7  A    between atoms: C_9  and  O_10
REMARK    8  A    between atoms: O_10  and  C_11
REMARK    9  A    between atoms: C_22  and  C_24
REMARK   10  A    between atoms: C_22  and  C_29
REMARK                            x       y       z     vdW  Elec       q    Type
REMARK                         _______ _______ _______ _____ _____    ______ ____
ROOT
ATOM      1  C   UNL     1       2.630   4.681  -6.711  0.00  0.00    +0.224 C 
ATOM      2  C   UNL     1       1.473   5.801  -7.133  0.00  0.00    +0.058 C 
ATOM      3  C   UNL     1       1.847   7.078  -6.476  0.00  0.00    +0.065 C 
ATOM      4  C   UNL     1       1.302   6.980  -5.051  0.00  0.00    +0.109 C 
ATOM      5  N   UNL     1       1.637   5.610  -4.649  0.00  0.00    +0.300 N 
ATOM      6  C   UNL     1       0.685   4.662  -5.175  0.00  0.00    +0.109 C 
ATOM      7  C   UNL     1       0.226   5.152  -6.543  0.00  0.00    +0.065 C 
ATOM      8  C   UNL     1       2.959   5.393  -5.241  0.00  0.00    +0.153 C 
ENDROOT
BRANCH   1   9
ATOM      9  O   UNL     1       3.751   5.507  -7.410  0.00  0.00    -0.444 OA
BRANCH   9  11
ATOM     10  O   UNL     1       3.745   4.029  -9.034  0.00  0.00    -0.247 OA
ATOM     11  C   UNL     1       3.839   5.178  -8.759  0.00  0.00    +0.354 C 
BRANCH  11  12
ATOM     12  C   UNL     1       3.886   6.193  -9.846  0.00  0.00    +0.263 C 
ATOM     13  O   UNL     1       3.505   7.425  -9.347  0.00  0.00    -0.204 OA
BRANCH  12  14
ATOM     14  C   UNL     1       3.043   5.771 -11.010  0.00  0.00    +0.049 A 
ATOM     15  S   UNL     1       3.498   5.662 -12.662  0.00  0.00    -0.088 S 
ATOM     16  C   UNL     1       1.940   5.531 -13.370  0.00  0.00    +0.035 A 
ATOM     17  C   UNL     1       1.180   5.289 -12.231  0.00  0.00    +0.007 A 
ATOM     18  C   UNL     1       1.672   5.961 -11.148  0.00  0.00    +0.006 A 
ENDBRANCH  12  14
BRANCH  12  19
ATOM     19  C   UNL     1       5.312   6.260 -10.297  0.00  0.00    +0.049 A 
ATOM     20  S   UNL     1       6.152   7.509 -11.124  0.00  0.00    -0.088 S 
ATOM     21  C   UNL     1       7.766   7.027 -10.792  0.00  0.00    +0.035 A 
ATOM     22  C   UNL     1       7.534   5.754 -10.284  0.00  0.00    +0.007 A 
ATOM     23  C   UNL     1       6.364   5.698  -9.581  0.00  0.00    +0.006 A 
ENDBRANCH  12  19
ENDBRANCH  11  12
ENDBRANCH   9  11
ENDBRANCH   1   9
BRANCH   5  24
ATOM     24  C   UNL     1       1.848   5.527  -3.239  0.00  0.00    +0.113 C 
BRANCH  24  25
ATOM     25  C   UNL     1       0.753   5.023  -2.404  0.00  0.00    +0.108 C 
BRANCH  25  26
ATOM     26  C   UNL     1       0.119   5.967  -1.451  0.00  0.00    +0.212 C 
BRANCH  26  27
ATOM     27  O   UNL     1      -1.289   5.921  -1.535  0.00  0.00    -0.475 OA
BRANCH  27  28
ATOM     28  C   UNL     1      -2.014   6.359  -2.631  0.00  0.00    +0.139 A 
ATOM     29  C   UNL     1      -2.600   5.455  -3.491  0.00  0.00    +0.037 A 
ATOM     30  C   UNL     1      -2.778   5.777  -4.814  0.00  0.00    +0.003 A 
ATOM     31  C   UNL     1      -2.628   7.080  -5.249  0.00  0.00    +0.000 A 
ATOM     32  C   UNL     1      -2.044   7.990  -4.392  0.00  0.00    +0.003 A 
ATOM     33  C   UNL     1      -1.967   7.681  -3.059  0.00  0.00    +0.037 A 
ENDBRANCH  27  28
ENDBRANCH  26  27
ENDBRANCH  25  26
ENDBRANCH  24  25
ENDBRANCH   5  24
TORSDOF 10
ENDMDL
MODEL 7
REMARK VINA RESULT:      -8.7      1.865      4.799
REMARK  Name = 
REMARK  10 active torsions:
REMARK  status: ('A' for Active; 'I' for Inactive)
REMARK    1  A    between atoms: C_2  and  O_3
REMARK    2  A    between atoms: C_2  and  C_22
REMARK    3  A    between atoms: O_3  and  C_4
REMARK    4  A    between atoms: N_6  and  C_7
REMARK    5  A    between atoms: C_7  and  C_8
REMARK    6  A    between atoms: C_8  and  C_9
REMARK    7  A    between atoms: C_9  and  O_10
REMARK    8  A    between atoms: O_10  and  C_11
REMARK    9  A    between atoms: C_22  and  C_24
REMARK   10  A    between atoms: C_22  and  C_29
REMARK                            x       y       z     vdW  Elec       q    Type
REMARK                         _______ _______ _______ _____ _____    ______ ____
ROOT
ATOM      1  C   UNL     1       1.748   4.700  -7.264  0.00  0.00    +0.224 C 
ATOM      2  C   UNL     1       0.945   6.106  -7.651  0.00  0.00    +0.058 C 
ATOM      3  C   UNL     1       1.349   7.125  -6.650  0.00  0.00    +0.065 C 
ATOM      4  C   UNL     1       0.449   6.886  -5.437  0.00  0.00    +0.109 C 
ATOM      5  N   UNL     1       0.433   5.426  -5.303  0.00  0.00    +0.300 N 
ATOM      6  C   UNL     1      -0.499   4.826  -6.226  0.00  0.00    +0.109 C 
ATOM      7  C   UNL     1      -0.504   5.650  -7.509  0.00  0.00    +0.065 C 
ATOM      8  C   UNL     1       1.805   5.037  -5.633  0.00  0.00    +0.153 C 
ENDROOT
BRANCH   1   9
ATOM      9  O   UNL     1       3.134   5.374  -7.495  0.00  0.00    -0.444 OA
BRANCH   9  11
ATOM     10  O   UNL     1       3.729   3.937  -9.046  0.00  0.00    -0.247 OA
ATOM     11  C   UNL     1       3.618   5.084  -8.767  0.00  0.00    +0.354 C 
BRANCH  11  12
ATOM     12  C   UNL     1       3.842   6.119  -9.811  0.00  0.00    +0.263 C 
ATOM     13  O   UNL     1       3.451   7.355  -9.331  0.00  0.00    -0.204 OA
BRANCH  12  14
ATOM     14  C   UNL     1       3.137   5.760 -11.083  0.00  0.00    +0.049 A 
ATOM     15  S   UNL     1       3.819   5.527 -12.642  0.00  0.00    -0.088 S 
ATOM     16  C   UNL     1       2.382   5.564 -13.581  0.00  0.00    +0.035 A 
ATOM     17  C   UNL     1       1.434   5.467 -12.568  0.00  0.00    +0.007 A 
ATOM     18  C   UNL     1       1.840   6.116 -11.437  0.00  0.00    +0.006 A 
ENDBRANCH  12  14
BRANCH  12  19
ATOM     19  C   UNL     1       5.316   6.135 -10.078  0.00  0.00    +0.049 A 
ATOM     20  S   UNL     1       6.269   7.268 -10.947  0.00  0.00    -0.088 S 
ATOM     21  C   UNL     1       7.821   6.845 -10.346  0.00  0.00    +0.035 A 
ATOM     22  C   UNL     1       7.511   5.649  -9.709  0.00  0.00    +0.007 A 
ATOM     23  C   UNL     1       6.260   5.679  -9.162  0.00  0.00    +0.006 A 
ENDBRANCH  12  19
ENDBRANCH  11  12
ENDBRANCH   9  11
ENDBRANCH   1   9
BRANCH   5  24
ATOM     24  C   UNL     1       0.259   5.039  -3.939  0.00  0.00    +0.113 C 
BRANCH  24  25
ATOM     25  C   UNL     1       0.421   6.064  -2.903  0.00  0.00    +0.108 C 
BRANCH  25  26
ATOM     26  C   UNL     1       1.338   5.768  -1.776  0.00  0.00    +0.212 C 
BRANCH  26  27
ATOM     27  O   UNL     1       2.377   6.719  -1.690  0.00  0.00    -0.475 OA
BRANCH  27  28
ATOM     28  C   UNL     1       3.513   6.699  -2.484  0.00  0.00    +0.139 A 
ATOM     29  C   UNL     1       3.815   7.766  -3.302  0.00  0.00    +0.037 A 
ATOM     30  C   UNL     1       4.511   7.566  -4.469  0.00  0.00    +0.003 A 
ATOM     31  C   UNL     1       5.147   6.363  -4.713  0.00  0.00    +0.000 A 
ATOM     32  C   UNL     1       4.850   5.291  -3.895  0.00  0.00    +0.003 A 
ATOM     33  C   UNL     1       4.240   5.533  -2.692  0.00  0.00    +0.037 A 
ENDBRANCH  27  28
ENDBRANCH  26  27
ENDBRANCH  25  26
ENDBRANCH  24  25
ENDBRANCH   5  24
TORSDOF 10
ENDMDL
MODEL 8
REMARK VINA RESULT:      -8.5      4.452      8.271
REMARK  Name = 
REMARK  10 active torsions:
REMARK  status: ('A' for Active; 'I' for Inactive)
REMARK    1  A    between atoms: C_2  and  O_3
REMARK    2  A    between atoms: C_2  and  C_22
REMARK    3  A    between atoms: O_3  and  C_4
REMARK    4  A    between atoms: N_6  and  C_7
REMARK    5  A    between atoms: C_7  and  C_8
REMARK    6  A    between atoms: C_8  and  C_9
REMARK    7  A    between atoms: C_9  and  O_10
REMARK    8  A    between atoms: O_10  and  C_11
REMARK    9  A    between atoms: C_22  and  C_24
REMARK   10  A    between atoms: C_22  and  C_29
REMARK                            x       y       z     vdW  Elec       q    Type
REMARK                         _______ _______ _______ _____ _____    ______ ____
ROOT
ATOM      1  C   UNL     1       3.555   5.987  -2.267  0.00  0.00    +0.224 C 
ATOM      2  C   UNL     1       4.903   6.291  -3.195  0.00  0.00    +0.058 C 
ATOM      3  C   UNL     1       4.651   7.559  -3.924  0.00  0.00    +0.065 C 
ATOM      4  C   UNL     1       3.830   7.168  -5.153  0.00  0.00    +0.109 C 
ATOM      5  N   UNL     1       2.859   6.205  -4.626  0.00  0.00    +0.300 N 
ATOM      6  C   UNL     1       3.443   4.894  -4.488  0.00  0.00    +0.109 C 
ATOM      7  C   UNL     1       4.907   5.059  -4.095  0.00  0.00    +0.065 C 
ATOM      8  C   UNL     1       2.511   6.754  -3.314  0.00  0.00    +0.153 C 
ENDROOT
BRANCH   1   9
ATOM      9  O   UNL     1       3.766   7.298  -1.451  0.00  0.00    -0.444 OA
BRANCH   9  11
ATOM     10  O   UNL     1       4.442   6.133   0.284  0.00  0.00    -0.247 OA
ATOM     11  C   UNL     1       3.767   7.035  -0.084  0.00  0.00    +0.354 C 
BRANCH  11  12
ATOM     12  C   UNL     1       3.101   7.911   0.917  0.00  0.00    +0.263 C 
ATOM     13  O   UNL     1       3.348   7.433   2.190  0.00  0.00    -0.204 OA
BRANCH  12  14
ATOM     14  C   UNL     1       1.634   8.028   0.634  0.00  0.00    +0.049 A 
ATOM     15  S   UNL     1       0.506   9.116   1.335  0.00  0.00    -0.088 S 
ATOM     16  C   UNL     1      -0.953   8.366   0.828  0.00  0.00    +0.035 A 
ATOM     17  C   UNL     1      -0.447   7.469  -0.106  0.00  0.00    +0.007 A 
ATOM     18  C   UNL     1       0.779   6.995   0.266  0.00  0.00    +0.006 A 
ENDBRANCH  12  14
BRANCH  12  19
ATOM     19  C   UNL     1       3.720   9.266   0.766  0.00  0.00    +0.049 A 
ATOM     20  S   UNL     1       3.443  10.482  -0.415  0.00  0.00    -0.088 S 
ATOM     21  C   UNL     1       4.119  11.828   0.408  0.00  0.00    +0.035 A 
ATOM     22  C   UNL     1       4.770  11.171   1.445  0.00  0.00    +0.007 A 
ATOM     23  C   UNL     1       4.082  10.062   1.849  0.00  0.00    +0.006 A 
ENDBRANCH  12  19
ENDBRANCH  11  12
ENDBRANCH   9  11
ENDBRANCH   1   9
BRANCH   5  24
ATOM     24  C   UNL     1       1.643   6.242  -5.375  0.00  0.00    +0.113 C 
BRANCH  24  25
ATOM     25  C   UNL     1       0.936   4.979  -5.609  0.00  0.00    +0.108 C 
BRANCH  25  26
ATOM     26  C   UNL     1      -0.308   5.022  -6.415  0.00  0.00    +0.212 C 
BRANCH  26  27
ATOM     27  O   UNL     1      -1.004   6.236  -6.230  0.00  0.00    -0.475 OA
BRANCH  27  28
ATOM     28  C   UNL     1      -1.917   6.458  -5.211  0.00  0.00    +0.139 A 
ATOM     29  C   UNL     1      -1.857   7.608  -4.455  0.00  0.00    +0.037 A 
ATOM     30  C   UNL     1      -2.290   7.601  -3.151  0.00  0.00    +0.003 A 
ATOM     31  C   UNL     1      -3.028   6.541  -2.660  0.00  0.00    +0.000 A 
ATOM     32  C   UNL     1      -3.094   5.387  -3.414  0.00  0.00    +0.003 A 
ATOM     33  C   UNL     1      -2.746   5.448  -4.739  0.00  0.00    +0.037 A 
ENDBRANCH  27  28
ENDBRANCH  26  27
ENDBRANCH  25  26
ENDBRANCH  24  25
ENDBRANCH   5  24
TORSDOF 10
ENDMDL
MODEL 9
REMARK VINA RESULT:      -8.5      3.003      8.662
REMARK  Name = 
REMARK  10 active torsions:
REMARK  status: ('A' for Active; 'I' for Inactive)
REMARK    1  A    between atoms: C_2  and  O_3
REMARK    2  A    between atoms: C_2  and  C_22
REMARK    3  A    between atoms: O_3  and  C_4
REMARK    4  A    between atoms: N_6  and  C_7
REMARK    5  A    between atoms: C_7  and  C_8
REMARK    6  A    between atoms: C_8  and  C_9
REMARK    7  A    between atoms: C_9  and  O_10
REMARK    8  A    between atoms: O_10  and  C_11
REMARK    9  A    between atoms: C_22  and  C_24
REMARK   10  A    between atoms: C_22  and  C_29
REMARK                            x       y       z     vdW  Elec       q    Type
REMARK                         _______ _______ _______ _____ _____    ______ ____
ROOT
ATOM      1  C   UNL     1       1.592   6.474 -10.094  0.00  0.00    +0.224 C 
ATOM      2  C   UNL     1      -0.021   6.107 -10.274  0.00  0.00    +0.058 C 
ATOM      3  C   UNL     1      -0.098   4.684 -10.687  0.00  0.00    +0.065 C 
ATOM      4  C   UNL     1       0.122   4.684 -12.200  0.00  0.00    +0.109 C 
ATOM      5  N   UNL     1       1.223   5.634 -12.387  0.00  0.00    +0.300 N 
ATOM      6  C   UNL     1       0.748   6.996 -12.365  0.00  0.00    +0.109 C 
ATOM      7  C   UNL     1      -0.410   7.085 -11.378  0.00  0.00    +0.065 C 
ATOM      8  C   UNL     1       2.096   5.375 -11.241  0.00  0.00    +0.153 C 
ENDROOT
BRANCH   1   9
ATOM      9  O   UNL     1       1.751   5.422  -8.955  0.00  0.00    -0.444 OA
BRANCH   9  11
ATOM     10  O   UNL     1       3.865   5.465  -8.358  0.00  0.00    -0.247 OA
ATOM     11  C   UNL     1       2.762   5.796  -8.075  0.00  0.00    +0.354 C 
BRANCH  11  12
ATOM     12  C   UNL     1       2.541   6.699  -6.914  0.00  0.00    +0.263 C 
ATOM     13  O   UNL     1       2.599   8.015  -7.333  0.00  0.00    -0.204 OA
BRANCH  12  14
ATOM     14  C   UNL     1       3.522   6.413  -5.819  0.00  0.00    +0.049 A 
ATOM     15  S   UNL     1       3.640   5.003  -4.846  0.00  0.00    -0.088 S 
ATOM     16  C   UNL     1       4.679   5.602  -3.616  0.00  0.00    +0.035 A 
ATOM     17  C   UNL     1       5.095   6.787  -4.212  0.00  0.00    +0.007 A 
ATOM     18  C   UNL     1       4.101   7.346  -4.965  0.00  0.00    +0.006 A 
ENDBRANCH  12  14
BRANCH  12  19
ATOM     19  C   UNL     1       1.166   6.400  -6.405  0.00  0.00    +0.049 A 
ATOM     20  S   UNL     1       0.403   4.890  -6.105  0.00  0.00    -0.088 S 
ATOM     21  C   UNL     1      -0.879   5.422  -5.095  0.00  0.00    +0.035 A 
ATOM     22  C   UNL     1      -0.782   6.795  -5.290  0.00  0.00    +0.007 A 
ATOM     23  C   UNL     1       0.515   7.188  -5.461  0.00  0.00    +0.006 A 
ENDBRANCH  12  19
ENDBRANCH  11  12
ENDBRANCH   9  11
ENDBRANCH   1   9
BRANCH   5  24
ATOM     24  C   UNL     1       2.006   5.292 -13.531  0.00  0.00    +0.113 C 
BRANCH  24  25
ATOM     25  C   UNL     1       2.979   6.273 -14.022  0.00  0.00    +0.108 C 
BRANCH  25  26
ATOM     26  C   UNL     1       4.309   5.775 -14.449  0.00  0.00    +0.212 C 
BRANCH  26  27
ATOM     27  O   UNL     1       5.354   6.453 -13.784  0.00  0.00    -0.475 OA
BRANCH  27  28
ATOM     28  C   UNL     1       6.196   5.861 -12.857  0.00  0.00    +0.139 A 
ATOM     29  C   UNL     1       5.852   5.819 -11.524  0.00  0.00    +0.037 A 
ATOM     30  C   UNL     1       6.830   5.814 -10.559  0.00  0.00    +0.003 A 
ATOM     31  C   UNL     1       8.150   5.581 -10.894  0.00  0.00    +0.000 A 
ATOM     32  C   UNL     1       8.500   5.619 -12.229  0.00  0.00    +0.003 A 
ATOM     33  C   UNL     1       7.508   5.526 -13.171  0.00  0.00    +0.037 A 
ENDBRANCH  27  28
ENDBRANCH  26  27
ENDBRANCH  25  26
ENDBRANCH  24  25
ENDBRANCH   5  24
TORSDOF 10
ENDMDL
