MODEL 1
REMARK VINA RESULT:      -7.8      0.000      0.000
REMARK  Name = 
REMARK  2 active torsions:
REMARK  status: ('A' for Active; 'I' for Inactive)
REMARK    1  A    between atoms: C_26  and  C_27
REMARK    2  A    between atoms: C_27  and  C_29
REMARK                            x       y       z     vdW  Elec       q    Type
REMARK                         _______ _______ _______ _____ _____    ______ ____
ROOT
ATOM      1  C   UNL     1       0.561   6.669  -2.095  0.00  0.00    +0.061 C 
ATOM      2  C   UNL     1       0.472   6.332  -2.773  0.00  0.00    +0.188 C 
ATOM      3  O   UNL     1       1.291   5.181  -2.753  0.00  0.00    -0.330 OA
ATOM      4  C   UNL     1       2.454   5.465  -3.404  0.00  0.00    +0.173 C 
ATOM      5  C   UNL     1       2.426   7.111  -3.331  0.00  0.00    +0.149 C 
ATOM      6  C   UNL     1       3.196   7.253  -4.792  0.00  0.00    +0.033 C 
ATOM      7  C   UNL     1       1.963   6.535  -5.545  0.00  0.00    +0.005 C 
ATOM      8  C   UNL     1       2.730   5.985  -6.936  0.00  0.00    +0.006 C 
ATOM      9  C   UNL     1       1.198   5.546  -7.474  0.00  0.00    +0.038 C 
ATOM     10  C   UNL     1       1.210   3.952  -6.836  0.00  0.00    +0.153 C 
ATOM     11  C   UNL     1       1.324   4.332  -5.260  0.00  0.00    +0.036 C 
ATOM     12  O   UNL     1       2.689   3.681  -7.000  0.00  0.00    -0.223 OA
ATOM     13  C   UNL     1       1.529   5.203  -9.004  0.00  0.00    +0.039 C 
ATOM     14  C   UNL     1       2.319   6.245  -9.644  0.00  0.00    -0.006 C 
ATOM     15  C   UNL     1       2.189   6.535 -10.886  0.00  0.00    +0.036 C 
ATOM     16  C   UNL     1       0.837   6.512 -11.443  0.00  0.00    +0.195 C 
ATOM     17  C   UNL     1      -0.218   5.997 -10.580  0.00  0.00    +0.038 C 
ATOM     18  O   UNL     1       0.683   6.923 -12.622  0.00  0.00    -0.287 OA
ATOM     19  C   UNL     1       3.672   6.680  -8.849  0.00  0.00    +0.180 C 
ATOM     20  F   UNL     1       3.867   7.991  -9.570  0.00  0.00    -0.233 F 
ATOM     21  C   UNL     1       1.817   3.804  -9.269  0.00  0.00    +0.009 C 
ATOM     22  C   UNL     1       0.109   5.381  -9.511  0.00  0.00    -0.020 C 
ATOM     23  C   UNL     1       2.734   7.410  -7.675  0.00  0.00    +0.040 C 
ATOM     24  C   UNL     1       2.352   5.141  -4.811  0.00  0.00    +0.034 C 
ATOM     25  C   UNL     1       3.825   4.841  -5.161  0.00  0.00    +0.003 C 
ATOM     26  O   UNL     1       0.985   7.139  -3.805  0.00  0.00    -0.334 OA
ATOM     27  C   UNL     1      -0.922   5.834  -3.177  0.00  0.00    +0.061 C 
ENDROOT
BRANCH   4  28
ATOM     28  C   UNL     1       3.698   5.268  -2.678  0.00  0.00    +0.210 C 
ATOM     29  O   UNL     1       4.687   6.000  -2.658  0.00  0.00    -0.291 OA
BRANCH  28  30
ATOM     30  C   UNL     1       3.861   4.346  -1.475  0.00  0.00    +0.248 C 
ATOM     31  O   UNL     1       3.765   5.301  -0.444  0.00  0.00    -0.212 OA
ENDBRANCH  28  30
ENDBRANCH   4  28
TORSDOF 2
ENDMDL
MODEL 2
REMARK VINA RESULT:      -7.5      2.623      7.446
REMARK  Name = 
REMARK  2 active torsions:
REMARK  status: ('A' for Active; 'I' for Inactive)
REMARK    1  A    between atoms: C_26  and  C_27
REMARK    2  A    between atoms: C_27  and  C_29
REMARK                            x       y       z     vdW  Elec       q    Type
REMARK                         _______ _______ _______ _____ _____    ______ ____
ROOT
ATOM      1  C   UNL     1       6.864   6.628 -11.419  0.00  0.00    +0.061 C 
ATOM      2  C   UNL     1       6.577   6.246 -10.827  0.00  0.00    +0.188 C 
ATOM      3  O   UNL     1       5.728   5.255 -11.369  0.00  0.00    -0.330 OA
ATOM      4  C   UNL     1       4.442   5.699 -11.297  0.00  0.00    +0.173 C 
ATOM      5  C   UNL     1       4.708   7.317 -11.137  0.00  0.00    +0.149 C 
ATOM      6  C   UNL     1       3.362   7.510 -10.190  0.00  0.00    +0.033 C 
ATOM      7  C   UNL     1       3.987   6.552  -9.052  0.00  0.00    +0.005 C 
ATOM      8  C   UNL     1       2.589   6.068  -8.255  0.00  0.00    +0.006 C 
ATOM      9  C   UNL     1       3.612   5.344  -7.133  0.00  0.00    +0.038 C 
ATOM     10  C   UNL     1       3.704   3.813  -7.903  0.00  0.00    +0.153 C 
ATOM     11  C   UNL     1       4.402   4.290  -9.291  0.00  0.00    +0.036 C 
ATOM     12  O   UNL     1       2.304   3.791  -8.476  0.00  0.00    -0.223 OA
ATOM     13  C   UNL     1       2.552   4.981  -5.986  0.00  0.00    +0.039 C 
ATOM     14  C   UNL     1       1.692   6.107  -5.655  0.00  0.00    -0.006 C 
ATOM     15  C   UNL     1       1.251   6.304  -4.467  0.00  0.00    +0.036 C 
ATOM     16  C   UNL     1       2.162   6.019  -3.357  0.00  0.00    +0.195 C 
ATOM     17  C   UNL     1       3.426   5.377  -3.695  0.00  0.00    +0.038 C 
ATOM     18  O   UNL     1       1.787   6.333  -2.198  0.00  0.00    -0.287 OA
ATOM     19  C   UNL     1       0.947   6.810  -6.920  0.00  0.00    +0.180 C 
ATOM     20  F   UNL     1       0.600   8.094  -6.208  0.00  0.00    -0.233 F 
ATOM     21  C   UNL     1       2.000   3.640  -6.066  0.00  0.00    +0.009 C 
ATOM     22  C   UNL     1       3.570   4.885  -4.864  0.00  0.00    -0.020 C 
ATOM     23  C   UNL     1       2.413   7.430  -7.425  0.00  0.00    +0.040 C 
ATOM     24  C   UNL     1       3.822   5.287 -10.055  0.00  0.00    +0.034 C 
ATOM     25  C   UNL     1       2.334   5.226 -10.466  0.00  0.00    +0.003 C 
ATOM     26  O   UNL     1       5.741   7.072 -10.052  0.00  0.00    -0.334 OA
ATOM     27  C   UNL     1       7.536   5.495  -9.893  0.00  0.00    +0.061 C 
ENDROOT
BRANCH   4  28
ATOM     28  C   UNL     1       3.679   5.757 -12.533  0.00  0.00    +0.210 C 
ATOM     29  O   UNL     1       2.879   6.623 -12.888  0.00  0.00    -0.291 OA
BRANCH  28  30
ATOM     30  C   UNL     1       4.032   4.995 -13.804  0.00  0.00    +0.248 C 
ATOM     31  O   UNL     1       2.733   4.745 -14.286  0.00  0.00    -0.212 OA
ENDBRANCH  28  30
ENDBRANCH   4  28
TORSDOF 2
ENDMDL
MODEL 3
REMARK VINA RESULT:      -6.9      2.805      7.203
REMARK  Name = 
REMARK  2 active torsions:
REMARK  status: ('A' for Active; 'I' for Inactive)
REMARK    1  A    between atoms: C_26  and  C_27
REMARK    2  A    between atoms: C_27  and  C_29
REMARK                            x       y       z     vdW  Elec       q    Type
REMARK                         _______ _______ _______ _____ _____    ______ ____
ROOT
ATOM      1  C   UNL     1       1.256   6.897  -8.354  0.00  0.00    +0.061 C 
ATOM      2  C   UNL     1       1.701   7.120  -7.778  0.00  0.00    +0.188 C 
ATOM      3  O   UNL     1       2.776   6.204  -7.732  0.00  0.00    -0.330 OA
ATOM      4  C   UNL     1       2.520   5.286  -6.758  0.00  0.00    +0.173 C 
ATOM      5  C   UNL     1       0.890   5.472  -6.612  0.00  0.00    +0.149 C 
ATOM      6  C   UNL     1       0.931   5.125  -4.991  0.00  0.00    +0.033 C 
ATOM      7  C   UNL     1       1.842   6.425  -4.705  0.00  0.00    +0.005 C 
ATOM      8  C   UNL     1       2.553   5.987  -3.247  0.00  0.00    +0.006 C 
ATOM      9  C   UNL     1       3.177   7.549  -3.208  0.00  0.00    +0.038 C 
ATOM     10  C   UNL     1       4.643   7.201  -4.029  0.00  0.00    +0.153 C 
ATOM     11  C   UNL     1       4.010   6.726  -5.449  0.00  0.00    +0.036 C 
ATOM     12  O   UNL     1       4.835   5.793  -3.509  0.00  0.00    -0.223 OA
ATOM     13  C   UNL     1       3.736   7.587  -1.707  0.00  0.00    +0.039 C 
ATOM     14  C   UNL     1       2.758   7.107  -0.742  0.00  0.00    -0.006 C 
ATOM     15  C   UNL     1       2.679   7.582   0.446  0.00  0.00    +0.036 C 
ATOM     16  C   UNL     1       2.883   9.022   0.608  0.00  0.00    +0.195 C 
ATOM     17  C   UNL     1       3.325   9.757  -0.571  0.00  0.00    +0.038 C 
ATOM     18  O   UNL     1       2.678   9.518   1.745  0.00  0.00    -0.287 OA
ATOM     19  C   UNL     1       2.110   5.650  -1.074  0.00  0.00    +0.180 C 
ATOM     20  F   UNL     1       0.921   5.791  -0.156  0.00  0.00    -0.233 F 
ATOM     21  C   UNL     1       5.136   7.227  -1.566  0.00  0.00    +0.009 C 
ATOM     22  C   UNL     1       3.739   9.101  -1.584  0.00  0.00    -0.020 C 
ATOM     23  C   UNL     1       1.268   6.327  -2.348  0.00  0.00    +0.040 C 
ATOM     24  C   UNL     1       3.071   5.711  -5.489  0.00  0.00    +0.034 C 
ATOM     25  C   UNL     1       3.321   4.354  -4.797  0.00  0.00    +0.003 C 
ATOM     26  O   UNL     1       1.036   6.981  -6.546  0.00  0.00    -0.334 OA
ATOM     27  C   UNL     1       2.351   8.509  -7.838  0.00  0.00    +0.061 C 
ENDROOT
BRANCH   4  28
ATOM     28  C   UNL     1       2.514   3.883  -7.140  0.00  0.00    +0.210 C 
ATOM     29  O   UNL     1       2.032   2.933  -6.522  0.00  0.00    -0.291 OA
BRANCH  28  30
ATOM     30  C   UNL     1       2.718   3.372  -8.561  0.00  0.00    +0.248 C 
ATOM     31  O   UNL     1       3.941   4.005  -8.855  0.00  0.00    -0.212 OA
ENDBRANCH  28  30
ENDBRANCH   4  28
TORSDOF 2
ENDMDL
MODEL 4
REMARK VINA RESULT:      -6.8      2.404      6.936
REMARK  Name = 
REMARK  2 active torsions:
REMARK  status: ('A' for Active; 'I' for Inactive)
REMARK    1  A    between atoms: C_26  and  C_27
REMARK    2  A    between atoms: C_27  and  C_29
REMARK                            x       y       z     vdW  Elec       q    Type
REMARK                         _______ _______ _______ _____ _____    ______ ____
ROOT
ATOM      1  C   UNL     1       0.866   5.001 -11.078  0.00  0.00    +0.061 C 
ATOM      2  C   UNL     1       0.857   5.343 -10.398  0.00  0.00    +0.188 C 
ATOM      3  O   UNL     1       1.809   6.385 -10.466  0.00  0.00    -0.330 OA
ATOM      4  C   UNL     1       2.962   5.957  -9.880  0.00  0.00    +0.173 C 
ATOM      5  C   UNL     1       2.727   4.327  -9.947  0.00  0.00    +0.149 C 
ATOM      6  C   UNL     1       3.553   4.085  -8.530  0.00  0.00    +0.033 C 
ATOM      7  C   UNL     1       2.462   4.947  -7.711  0.00  0.00    +0.005 C 
ATOM      8  C   UNL     1       3.366   5.392  -6.367  0.00  0.00    +0.006 C 
ATOM      9  C   UNL     1       1.933   6.015  -5.746  0.00  0.00    +0.038 C 
ATOM     10  C   UNL     1       2.106   7.598  -6.388  0.00  0.00    +0.153 C 
ATOM     11  C   UNL     1       2.085   7.213  -7.967  0.00  0.00    +0.036 C 
ATOM     12  O   UNL     1       3.614   7.683  -6.307  0.00  0.00    -0.223 OA
ATOM     13  C   UNL     1       2.389   6.309  -4.238  0.00  0.00    +0.039 C 
ATOM     14  C   UNL     1       3.078   5.174  -3.640  0.00  0.00    -0.006 C 
ATOM     15  C   UNL     1       2.982   4.897  -2.392  0.00  0.00    +0.036 C 
ATOM     16  C   UNL     1       1.675   5.085  -1.760  0.00  0.00    +0.195 C 
ATOM     17  C   UNL     1       0.646   5.730  -2.565  0.00  0.00    +0.038 C 
ATOM     18  O   UNL     1       1.538   4.692  -0.573  0.00  0.00    -0.287 OA
ATOM     19  C   UNL     1       4.320   4.578  -4.507  0.00  0.00    +0.180 C 
ATOM     20  F   UNL     1       4.391   3.251  -3.794  0.00  0.00    -0.233 F 
ATOM     21  C   UNL     1       2.861   7.660  -3.993  0.00  0.00    +0.009 C 
ATOM     22  C   UNL     1       0.988   6.306  -3.652  0.00  0.00    -0.020 C 
ATOM     23  C   UNL     1       3.236   3.975  -5.625  0.00  0.00    +0.040 C 
ATOM     24  C   UNL     1       2.979   6.285  -8.470  0.00  0.00    +0.034 C 
ATOM     25  C   UNL     1       4.495   6.399  -8.203  0.00  0.00    +0.003 C 
ATOM     26  O   UNL     1       1.322   4.475  -9.392  0.00  0.00    -0.334 OA
ATOM     27  C   UNL     1      -0.441   6.008  -9.918  0.00  0.00    +0.061 C 
ENDROOT
BRANCH   4  28
ATOM     28  C   UNL     1       4.179   6.002 -10.674  0.00  0.00    +0.210 C 
ATOM     29  O   UNL     1       4.596   5.158 -11.468  0.00  0.00    -0.291 OA
BRANCH  28  30
ATOM     30  C   UNL     1       4.951   7.274 -11.003  0.00  0.00    +0.248 C 
ATOM     31  O   UNL     1       6.168   6.699 -11.416  0.00  0.00    -0.212 OA
ENDBRANCH  28  30
ENDBRANCH   4  28
TORSDOF 2
ENDMDL
MODEL 5
REMARK VINA RESULT:      -6.8      1.592      1.986
REMARK  Name = 
REMARK  2 active torsions:
REMARK  status: ('A' for Active; 'I' for Inactive)
REMARK    1  A    between atoms: C_26  and  C_27
REMARK    2  A    between atoms: C_27  and  C_29
REMARK                            x       y       z     vdW  Elec       q    Type
REMARK                         _______ _______ _______ _____ _____    ______ ____
ROOT
ATOM      1  C   UNL     1      -1.428   7.627  -3.578  0.00  0.00    +0.061 C 
ATOM      2  C   UNL     1      -1.424   7.296  -4.264  0.00  0.00    +0.188 C 
ATOM      3  O   UNL     1      -1.063   5.947  -4.052  0.00  0.00    -0.330 OA
ATOM      4  C   UNL     1       0.263   5.805  -4.329  0.00  0.00    +0.173 C 
ATOM      5  C   UNL     1       0.750   7.375  -4.206  0.00  0.00    +0.149 C 
ATOM      6  C   UNL     1       1.906   7.175  -5.378  0.00  0.00    +0.033 C 
ATOM      7  C   UNL     1       0.774   6.846  -6.481  0.00  0.00    +0.005 C 
ATOM      8  C   UNL     1       1.684   5.997  -7.610  0.00  0.00    +0.006 C 
ATOM      9  C   UNL     1       0.312   6.039  -8.583  0.00  0.00    +0.038 C 
ATOM     10  C   UNL     1      -0.374   4.567  -8.028  0.00  0.00    +0.153 C 
ATOM     11  C   UNL     1      -0.596   4.983  -6.472  0.00  0.00    +0.036 C 
ATOM     12  O   UNL     1       0.921   3.828  -7.768  0.00  0.00    -0.223 OA
ATOM     13  C   UNL     1       0.935   5.517  -9.964  0.00  0.00    +0.039 C 
ATOM     14  C   UNL     1       2.167   6.212 -10.310  0.00  0.00    -0.006 C 
ATOM     15  C   UNL     1       2.496   6.453 -11.526  0.00  0.00    +0.036 C 
ATOM     16  C   UNL     1       1.426   6.831 -12.450  0.00  0.00    +0.195 C 
ATOM     17  C   UNL     1       0.062   6.732 -11.946  0.00  0.00    +0.038 C 
ATOM     18  O   UNL     1       1.755   7.197 -13.607  0.00  0.00    -0.287 OA
ATOM     19  C   UNL     1       3.303   6.239  -9.144  0.00  0.00    +0.180 C 
ATOM     20  F   UNL     1       4.107   7.372  -9.730  0.00  0.00    -0.233 F 
ATOM     21  C   UNL     1       0.818   4.087 -10.186  0.00  0.00    +0.009 C 
ATOM     22  C   UNL     1      -0.145   6.109 -10.852  0.00  0.00    -0.020 C 
ATOM     23  C   UNL     1       2.359   7.298  -8.264  0.00  0.00    +0.040 C 
ATOM     24  C   UNL     1       0.466   5.447  -5.717  0.00  0.00    +0.034 C 
ATOM     25  C   UNL     1       1.799   4.672  -5.638  0.00  0.00    +0.003 C 
ATOM     26  O   UNL     1      -0.407   7.834  -5.075  0.00  0.00    -0.334 OA
ATOM     27  C   UNL     1      -2.729   7.247  -5.071  0.00  0.00    +0.061 C 
ENDROOT
BRANCH   4  28
ATOM     28  C   UNL     1       1.116   5.264  -3.283  0.00  0.00    +0.210 C 
ATOM     29  O   UNL     1       2.320   5.459  -3.112  0.00  0.00    -0.291 OA
BRANCH  28  30
ATOM     30  C   UNL     1       0.612   4.701  -1.960  0.00  0.00    +0.248 C 
ATOM     31  O   UNL     1       0.828   5.824  -1.139  0.00  0.00    -0.212 OA
ENDBRANCH  28  30
ENDBRANCH   4  28
TORSDOF 2
ENDMDL
MODEL 6
REMARK VINA RESULT:      -6.6      2.189      7.437
REMARK  Name = 
REMARK  2 active torsions:
REMARK  status: ('A' for Active; 'I' for Inactive)
REMARK    1  A    between atoms: C_26  and  C_27
REMARK    2  A    between atoms: C_27  and  C_29
REMARK                            x       y       z     vdW  Elec       q    Type
REMARK                         _______ _______ _______ _____ _____    ______ ____
ROOT
ATOM      1  C   UNL     1       3.872   6.515 -12.638  0.00  0.00    +0.061 C 
ATOM      2  C   UNL     1       4.029   6.278 -11.932  0.00  0.00    +0.188 C 
ATOM      3  O   UNL     1       3.447   4.996 -11.807  0.00  0.00    -0.330 OA
ATOM      4  C   UNL     1       2.256   5.123 -11.158  0.00  0.00    +0.173 C 
ATOM      5  C   UNL     1       1.966   6.726 -11.405  0.00  0.00    +0.149 C 
ATOM      6  C   UNL     1       1.194   6.877  -9.946  0.00  0.00    +0.033 C 
ATOM      7  C   UNL     1       2.547   6.493  -9.156  0.00  0.00    +0.005 C 
ATOM      8  C   UNL     1       1.911   5.962  -7.694  0.00  0.00    +0.006 C 
ATOM      9  C   UNL     1       3.502   5.884  -7.155  0.00  0.00    +0.038 C 
ATOM     10  C   UNL     1       3.793   4.257  -7.621  0.00  0.00    +0.153 C 
ATOM     11  C   UNL     1       3.597   4.434  -9.225  0.00  0.00    +0.036 C 
ATOM     12  O   UNL     1       2.395   3.729  -7.388  0.00  0.00    -0.223 OA
ATOM     13  C   UNL     1       3.254   5.652  -5.589  0.00  0.00    +0.039 C 
ATOM     14  C   UNL     1       2.283   6.588  -5.041  0.00  0.00    -0.006 C 
ATOM     15  C   UNL     1       2.363   7.031  -3.841  0.00  0.00    +0.036 C 
ATOM     16  C   UNL     1       3.699   7.327  -3.322  0.00  0.00    +0.195 C 
ATOM     17  C   UNL     1       4.828   6.932  -4.155  0.00  0.00    +0.038 C 
ATOM     18  O   UNL     1       3.779   7.885  -2.198  0.00  0.00    -0.287 OA
ATOM     19  C   UNL     1       0.866   6.669  -5.839  0.00  0.00    +0.180 C 
ATOM     20  F   UNL     1       0.428   7.989  -5.255  0.00  0.00    -0.233 F 
ATOM     21  C   UNL     1       3.242   4.262  -5.170  0.00  0.00    +0.009 C 
ATOM     22  C   UNL     1       4.617   6.152  -5.144  0.00  0.00    -0.020 C 
ATOM     23  C   UNL     1       1.637   7.431  -7.110  0.00  0.00    +0.040 C 
ATOM     24  C   UNL     1       2.429   4.979  -9.728  0.00  0.00    +0.034 C 
ATOM     25  C   UNL     1       1.043   4.444  -9.307  0.00  0.00    +0.003 C 
ATOM     26  O   UNL     1       3.378   7.080 -10.976  0.00  0.00    -0.334 OA
ATOM     27  C   UNL     1       5.496   6.102 -11.516  0.00  0.00    +0.061 C 
ENDROOT
BRANCH   4  28
ATOM     28  C   UNL     1       1.068   4.614 -11.824  0.00  0.00    +0.210 C 
ATOM     29  O   UNL     1       0.079   4.089 -11.312  0.00  0.00    -0.291 OA
BRANCH  28  30
ATOM     30  C   UNL     1       0.626   5.012 -13.227  0.00  0.00    +0.248 C 
ATOM     31  O   UNL     1       1.068   3.877 -13.934  0.00  0.00    -0.212 OA
ENDBRANCH  28  30
ENDBRANCH   4  28
TORSDOF 2
ENDMDL
MODEL 7
REMARK VINA RESULT:      -6.5      2.797      6.784
REMARK  Name = 
REMARK  2 active torsions:
REMARK  status: ('A' for Active; 'I' for Inactive)
REMARK    1  A    between atoms: C_26  and  C_27
REMARK    2  A    between atoms: C_27  and  C_29
REMARK                            x       y       z     vdW  Elec       q    Type
REMARK                         _______ _______ _______ _____ _____    ______ ____
ROOT
ATOM      1  C   UNL     1       4.628   5.759  -7.701  0.00  0.00    +0.061 C 
ATOM      2  C   UNL     1       4.116   5.538  -7.183  0.00  0.00    +0.188 C 
ATOM      3  O   UNL     1       3.161   4.763  -7.878  0.00  0.00    -0.330 OA
ATOM      4  C   UNL     1       2.080   5.546  -8.148  0.00  0.00    +0.173 C 
ATOM      5  C   UNL     1       2.763   7.038  -7.994  0.00  0.00    +0.149 C 
ATOM      6  C   UNL     1       1.354   7.696  -7.422  0.00  0.00    +0.033 C 
ATOM      7  C   UNL     1       1.396   6.737  -6.125  0.00  0.00    +0.005 C 
ATOM      8  C   UNL     1      -0.225   6.745  -5.683  0.00  0.00    +0.006 C 
ATOM      9  C   UNL     1       0.259   5.899  -4.312  0.00  0.00    +0.038 C 
ATOM     10  C   UNL     1       0.072   4.325  -4.970  0.00  0.00    +0.153 C 
ATOM     11  C   UNL     1       1.175   4.435  -6.159  0.00  0.00    +0.036 C 
ATOM     12  O   UNL     1      -1.105   4.623  -5.872  0.00  0.00    -0.223 OA
ATOM     13  C   UNL     1      -1.091   5.969  -3.451  0.00  0.00    +0.039 C 
ATOM     14  C   UNL     1      -1.637   7.318  -3.392  0.00  0.00    -0.006 C 
ATOM     15  C   UNL     1      -2.258   7.759  -2.361  0.00  0.00    +0.036 C 
ATOM     16  C   UNL     1      -1.748   7.362  -1.048  0.00  0.00    +0.195 C 
ATOM     17  C   UNL     1      -0.684   6.365  -1.034  0.00  0.00    +0.038 C 
ATOM     18  O   UNL     1      -2.268   7.893  -0.034  0.00  0.00    -0.287 OA
ATOM     19  C   UNL     1      -1.836   8.052  -4.831  0.00  0.00    +0.180 C 
ATOM     20  F   UNL     1      -1.945   9.453  -4.282  0.00  0.00    -0.233 F 
ATOM     21  C   UNL     1      -1.979   4.831  -3.610  0.00  0.00    +0.009 C 
ATOM     22  C   UNL     1      -0.428   5.725  -2.107  0.00  0.00    -0.020 C 
ATOM     23  C   UNL     1      -0.178   8.187  -4.981  0.00  0.00    +0.040 C 
ATOM     24  C   UNL     1       1.101   5.461  -7.084  0.00  0.00    +0.034 C 
ATOM     25  C   UNL     1      -0.205   5.764  -7.850  0.00  0.00    +0.003 C 
ATOM     26  O   UNL     1       3.405   6.642  -6.677  0.00  0.00    -0.334 OA
ATOM     27  C   UNL     1       4.576   4.663  -6.009  0.00  0.00    +0.061 C 
ENDROOT
BRANCH   4  28
ATOM     28  C   UNL     1       1.668   5.673  -9.536  0.00  0.00    +0.210 C 
ATOM     29  O   UNL     1       2.079   6.472 -10.378  0.00  0.00    -0.291 OA
BRANCH  28  30
ATOM     30  C   UNL     1       0.969   4.580 -10.334  0.00  0.00    +0.248 C 
ATOM     31  O   UNL     1       0.382   5.373 -11.339  0.00  0.00    -0.212 OA
ENDBRANCH  28  30
ENDBRANCH   4  28
TORSDOF 2
ENDMDL
MODEL 8
REMARK VINA RESULT:      -6.3      1.946      3.256
REMARK  Name = 
REMARK  2 active torsions:
REMARK  status: ('A' for Active; 'I' for Inactive)
REMARK    1  A    between atoms: C_26  and  C_27
REMARK    2  A    between atoms: C_27  and  C_29
REMARK                            x       y       z     vdW  Elec       q    Type
REMARK                         _______ _______ _______ _____ _____    ______ ____
ROOT
ATOM      1  C   UNL     1       4.363   6.954  -1.755  0.00  0.00    +0.061 C 
ATOM      2  C   UNL     1       4.120   7.161  -2.446  0.00  0.00    +0.188 C 
ATOM      3  O   UNL     1       2.708   7.128  -2.396  0.00  0.00    -0.330 OA
ATOM      4  C   UNL     1       2.282   5.958  -2.947  0.00  0.00    +0.173 C 
ATOM      5  C   UNL     1       3.664   5.068  -2.830  0.00  0.00    +0.149 C 
ATOM      6  C   UNL     1       3.323   4.237  -4.224  0.00  0.00    +0.033 C 
ATOM      7  C   UNL     1       3.401   5.596  -5.089  0.00  0.00    +0.005 C 
ATOM      8  C   UNL     1       2.489   5.159  -6.431  0.00  0.00    +0.006 C 
ATOM      9  C   UNL     1       2.969   6.627  -7.098  0.00  0.00    +0.038 C 
ATOM     10  C   UNL     1       1.654   7.556  -6.507  0.00  0.00    +0.153 C 
ATOM     11  C   UNL     1       1.936   7.376  -4.916  0.00  0.00    +0.036 C 
ATOM     12  O   UNL     1       0.600   6.473  -6.563  0.00  0.00    -0.223 OA
ATOM     13  C   UNL     1       2.469   6.422  -8.607  0.00  0.00    +0.039 C 
ATOM     14  C   UNL     1       2.881   5.138  -9.155  0.00  0.00    -0.006 C 
ATOM     15  C   UNL     1       3.169   4.984 -10.394  0.00  0.00    +0.036 C 
ATOM     16  C   UNL     1       3.894   6.070 -11.055  0.00  0.00    +0.195 C 
ATOM     17  C   UNL     1       4.073   7.298 -10.290  0.00  0.00    +0.038 C 
ATOM     18  O   UNL     1       4.297   5.874 -12.230  0.00  0.00    -0.287 OA
ATOM     19  C   UNL     1       2.503   3.840  -8.246  0.00  0.00    +0.180 C 
ATOM     20  F   UNL     1       3.467   2.891  -8.913  0.00  0.00    -0.233 F 
ATOM     21  C   UNL     1       1.144   6.944  -8.889  0.00  0.00    +0.009 C 
ATOM     22  C   UNL     1       3.400   7.456  -9.217  0.00  0.00    -0.020 C 
ATOM     23  C   UNL     1       3.654   4.301  -7.128  0.00  0.00    +0.040 C 
ATOM     24  C   UNL     1       2.042   6.111  -4.366  0.00  0.00    +0.034 C 
ATOM     25  C   UNL     1       0.964   5.033  -4.610  0.00  0.00    +0.003 C 
ATOM     26  O   UNL     1       4.483   6.205  -3.414  0.00  0.00    -0.334 OA
ATOM     27  C   UNL     1       4.477   8.559  -2.971  0.00  0.00    +0.061 C 
ENDROOT
BRANCH   4  28
ATOM     28  C   UNL     1       1.438   5.098  -2.133  0.00  0.00    +0.210 C 
ATOM     29  O   UNL     1       1.788   4.284  -1.278  0.00  0.00    -0.291 OA
BRANCH  28  30
ATOM     30  C   UNL     1      -0.044   5.335  -1.874  0.00  0.00    +0.248 C 
ATOM     31  O   UNL     1       0.047   6.003  -0.637  0.00  0.00    -0.212 OA
ENDBRANCH  28  30
ENDBRANCH   4  28
TORSDOF 2
ENDMDL
MODEL 9
REMARK VINA RESULT:      -6.2      2.138      3.880
REMARK  Name = 
REMARK  2 active torsions:
REMARK  status: ('A' for Active; 'I' for Inactive)
REMARK    1  A    between atoms: C_26  and  C_27
REMARK    2  A    between atoms: C_27  and  C_29
REMARK                            x       y       z     vdW  Elec       q    Type
REMARK                         _______ _______ _______ _____ _____    ______ ____
ROOT
ATOM      1  C   UNL     1       3.202   4.857  -2.905  0.00  0.00    +0.061 C 
ATOM      2  C   UNL     1       3.430   5.188  -3.552  0.00  0.00    +0.188 C 
ATOM      3  O   UNL     1       2.710   6.400  -3.650  0.00  0.00    -0.330 OA
ATOM      4  C   UNL     1       1.657   6.210  -4.493  0.00  0.00    +0.173 C 
ATOM      5  C   UNL     1       1.546   4.567  -4.446  0.00  0.00    +0.149 C 
ATOM      6  C   UNL     1       1.027   4.492  -6.019  0.00  0.00    +0.033 C 
ATOM      7  C   UNL     1       2.421   5.115  -6.540  0.00  0.00    +0.005 C 
ATOM      8  C   UNL     1       1.946   5.730  -8.029  0.00  0.00    +0.006 C 
ATOM      9  C   UNL     1       3.576   6.050  -8.294  0.00  0.00    +0.038 C 
ATOM     10  C   UNL     1       3.578   7.637  -7.639  0.00  0.00    +0.153 C 
ATOM     11  C   UNL     1       3.169   7.260  -6.111  0.00  0.00    +0.036 C 
ATOM     12  O   UNL     1       2.173   8.023  -8.045  0.00  0.00    -0.223 OA
ATOM     13  C   UNL     1       3.536   6.425  -9.851  0.00  0.00    +0.039 C 
ATOM     14  C   UNL     1       2.790   5.451 -10.633  0.00  0.00    -0.006 C 
ATOM     15  C   UNL     1       3.106   5.157 -11.841  0.00  0.00    +0.036 C 
ATOM     16  C   UNL     1       4.532   5.077 -12.161  0.00  0.00    +0.195 C 
ATOM     17  C   UNL     1       5.461   5.504 -11.123  0.00  0.00    +0.038 C 
ATOM     18  O   UNL     1       4.852   4.661 -13.304  0.00  0.00    -0.287 OA
ATOM     19  C   UNL     1       1.292   5.119 -10.087  0.00  0.00    +0.180 C 
ATOM     20  F   UNL     1       1.124   3.831 -10.854  0.00  0.00    -0.233 F 
ATOM     21  C   UNL     1       3.405   7.843 -10.136  0.00  0.00    +0.009 C 
ATOM     22  C   UNL     1       5.004   6.139 -10.114  0.00  0.00    -0.020 C 
ATOM     23  C   UNL     1       1.958   4.313  -8.784  0.00  0.00    +0.040 C 
ATOM     24  C   UNL     1       2.021   6.532  -5.857  0.00  0.00    +0.034 C 
ATOM     25  C   UNL     1       0.655   6.947  -6.445  0.00  0.00    +0.003 C 
ATOM     26  O   UNL     1       3.041   4.428  -4.671  0.00  0.00    -0.334 OA
ATOM     27  C   UNL     1       4.907   5.577  -3.706  0.00  0.00    +0.061 C 
ENDROOT
BRANCH   4  28
ATOM     28  C   UNL     1       0.326   6.501  -3.985  0.00  0.00    +0.210 C 
ATOM     29  O   UNL     1      -0.498   7.299  -4.432  0.00  0.00    -0.291 OA
BRANCH  28  30
ATOM     30  C   UNL     1      -0.469   5.581  -3.066  0.00  0.00    +0.248 C 
ATOM     31  O   UNL     1      -1.711   5.620  -3.728  0.00  0.00    -0.212 OA
ENDBRANCH  28  30
ENDBRANCH   4  28
TORSDOF 2
ENDMDL
