MODEL 1
REMARK VINA RESULT:      -7.2      0.000      0.000
REMARK  Name = 
REMARK  4 active torsions:
REMARK  status: ('A' for Active; 'I' for Inactive)
REMARK    1  A    between atoms: O_2  and  C_3
REMARK    2  A    between atoms: C_8  and  O_9
REMARK    3  A    between atoms: C_15  and  C_16
REMARK    4  A    between atoms: C_16  and  C_17
REMARK                            x       y       z     vdW  Elec       q    Type
REMARK                         _______ _______ _______ _____ _____    ______ ____
ROOT
ATOM      1  C   UNL     1       4.042   5.458  -3.321  0.00  0.00    +0.172 A 
ATOM      2  C   UNL     1       4.540   6.693  -3.729  0.00  0.00    +0.172 A 
ATOM      3  C   UNL     1       4.328   7.056  -5.055  0.00  0.00    +0.037 A 
ATOM      4  C   UNL     1       3.354   6.369  -5.738  0.00  0.00    -0.008 A 
ATOM      5  C   UNL     1       3.032   6.978  -7.227  0.00  0.00    +0.087 C 
ATOM      6  N   UNL     1       1.441   7.015  -7.051  0.00  0.00    -0.269 NA
ATOM      7  C   UNL     1       1.094   6.965  -5.705  0.00  0.00    +0.077 C 
ATOM      8  C   UNL     1       1.130   5.458  -5.416  0.00  0.00    +0.044 C 
ATOM      9  C   UNL     1       0.856   6.030  -7.849  0.00  0.00    +0.080 C 
ATOM     10  C   UNL     1       1.224   6.567  -9.377  0.00  0.00    +0.074 C 
ATOM     11  C   UNL     1       2.662   5.788  -9.345  0.00  0.00    +0.153 C 
ATOM     12  O   UNL     1       3.397   6.361 -10.123  0.00  0.00    -0.296 OA
ATOM     13  C   UNL     1       3.060   5.450  -7.934  0.00  0.00    +0.085 C 
ATOM     14  C   UNL     1       2.632   5.318  -5.303  0.00  0.00    -0.020 A 
ATOM     15  C   UNL     1       3.064   4.814  -4.075  0.00  0.00    +0.036 A 
ENDROOT
BRANCH   1  17
ATOM     16  C   UNL     1       4.014   4.583  -1.135  0.00  0.00    +0.253 C 
ATOM     17  O   UNL     1       4.515   4.944  -2.113  0.00  0.00    -0.468 OA
ENDBRANCH   1  17
BRANCH   2  18
ATOM     18  O   UNL     1       4.746   7.650  -2.725  0.00  0.00    -0.468 OA
ATOM     19  C   UNL     1       3.686   8.340  -2.100  0.00  0.00    +0.253 C 
ENDBRANCH   2  18
BRANCH  10  20
ATOM     20  C   UNL     1       0.404   5.313 -10.089  0.00  0.00    +0.009 C 
BRANCH  20  21
ATOM     21  C   UNL     1      -0.184   5.790 -11.353  0.00  0.00    +0.000 C 
ATOM     22  C   UNL     1       0.649   5.219 -12.499  0.00  0.00    +0.000 C 
ATOM     23  C   UNL     1      -0.203   7.266 -11.551  0.00  0.00    +0.000 C 
ENDBRANCH  20  21
ENDBRANCH  10  20
TORSDOF 4
ENDMDL
MODEL 2
REMARK VINA RESULT:      -7.1      2.784      6.123
REMARK  Name = 
REMARK  4 active torsions:
REMARK  status: ('A' for Active; 'I' for Inactive)
REMARK    1  A    between atoms: O_2  and  C_3
REMARK    2  A    between atoms: C_8  and  O_9
REMARK    3  A    between atoms: C_15  and  C_16
REMARK    4  A    between atoms: C_16  and  C_17
REMARK                            x       y       z     vdW  Elec       q    Type
REMARK                         _______ _______ _______ _____ _____    ______ ____
ROOT
ATOM      1  C   UNL     1       5.006   6.760 -10.396  0.00  0.00    +0.172 A 
ATOM      2  C   UNL     1       5.665   5.978  -9.450  0.00  0.00    +0.172 A 
ATOM      3  C   UNL     1       5.002   5.740  -8.250  0.00  0.00    +0.037 A 
ATOM      4  C   UNL     1       3.647   5.967  -8.235  0.00  0.00    -0.008 A 
ATOM      5  C   UNL     1       2.908   5.486  -6.851  0.00  0.00    +0.087 C 
ATOM      6  N   UNL     1       1.728   4.674  -7.566  0.00  0.00    -0.269 NA
ATOM      7  C   UNL     1       2.066   4.371  -8.881  0.00  0.00    +0.077 C 
ATOM      8  C   UNL     1       1.681   5.660  -9.621  0.00  0.00    +0.044 C 
ATOM      9  C   UNL     1       0.523   5.360  -7.409  0.00  0.00    +0.080 C 
ATOM     10  C   UNL     1       0.293   5.274  -5.767  0.00  0.00    +0.074 C 
ATOM     11  C   UNL     1       1.178   6.630  -5.535  0.00  0.00    +0.153 C 
ATOM     12  O   UNL     1       1.610   6.585  -4.401  0.00  0.00    -0.296 OA
ATOM     13  C   UNL     1       2.040   6.923  -6.733  0.00  0.00    +0.085 C 
ATOM     14  C   UNL     1       2.889   6.480  -9.224  0.00  0.00    -0.020 A 
ATOM     15  C   UNL     1       3.630   6.958 -10.305  0.00  0.00    +0.036 A 
ENDROOT
BRANCH   1  17
ATOM     16  C   UNL     1       6.488   8.168 -11.566  0.00  0.00    +0.253 C 
ATOM     17  O   UNL     1       5.767   7.269 -11.448  0.00  0.00    -0.468 OA
ENDBRANCH   1  17
BRANCH   2  18
ATOM     18  O   UNL     1       6.653   5.108  -9.932  0.00  0.00    -0.468 OA
ATOM     19  C   UNL     1       8.023   5.276  -9.645  0.00  0.00    +0.253 C 
ENDBRANCH   2  18
BRANCH  10  20
ATOM     20  C   UNL     1      -1.159   6.071  -5.858  0.00  0.00    +0.009 C 
BRANCH  20  21
ATOM     21  C   UNL     1      -1.567   6.469  -4.500  0.00  0.00    +0.000 C 
ATOM     22  C   UNL     1      -2.726   5.567  -4.079  0.00  0.00    +0.000 C 
ATOM     23  C   UNL     1      -2.055   7.868  -4.346  0.00  0.00    +0.000 C 
ENDBRANCH  20  21
ENDBRANCH  10  20
TORSDOF 4
ENDMDL
MODEL 3
REMARK VINA RESULT:      -7.1      1.945      3.388
REMARK  Name = 
REMARK  4 active torsions:
REMARK  status: ('A' for Active; 'I' for Inactive)
REMARK    1  A    between atoms: O_2  and  C_3
REMARK    2  A    between atoms: C_8  and  O_9
REMARK    3  A    between atoms: C_15  and  C_16
REMARK    4  A    between atoms: C_16  and  C_17
REMARK                            x       y       z     vdW  Elec       q    Type
REMARK                         _______ _______ _______ _____ _____    ______ ____
ROOT
ATOM      1  C   UNL     1       2.529   6.748  -4.993  0.00  0.00    +0.172 A 
ATOM      2  C   UNL     1       1.336   6.031  -4.952  0.00  0.00    +0.172 A 
ATOM      3  C   UNL     1       0.688   5.807  -6.162  0.00  0.00    +0.037 A 
ATOM      4  C   UNL     1       1.434   5.973  -7.304  0.00  0.00    -0.008 A 
ATOM      5  C   UNL     1       0.661   5.509  -8.675  0.00  0.00    +0.087 C 
ATOM      6  N   UNL     1       1.861   4.619  -9.250  0.00  0.00    -0.269 NA
ATOM      7  C   UNL     1       2.754   4.285  -8.237  0.00  0.00    +0.077 C 
ATOM      8  C   UNL     1       3.653   5.527  -8.173  0.00  0.00    +0.044 C 
ATOM      9  C   UNL     1       2.432   5.255 -10.354  0.00  0.00    +0.080 C 
ATOM     10  C   UNL     1       1.185   5.218 -11.450  0.00  0.00    +0.074 C 
ATOM     11  C   UNL     1       0.579   6.620 -10.865  0.00  0.00    +0.153 C 
ATOM     12  O   UNL     1      -0.606   6.636 -11.129  0.00  0.00    -0.296 OA
ATOM     13  C   UNL     1       1.119   6.908  -9.490  0.00  0.00    +0.085 C 
ATOM     14  C   UNL     1       2.703   6.414  -7.400  0.00  0.00    -0.020 A 
ATOM     15  C   UNL     1       3.221   6.886  -6.193  0.00  0.00    +0.036 A 
ENDROOT
BRANCH   1  17
ATOM     16  C   UNL     1       4.047   7.628  -3.422  0.00  0.00    +0.253 C 
ATOM     17  O   UNL     1       3.015   7.252  -3.786  0.00  0.00    -0.468 OA
ENDBRANCH   1  17
BRANCH   2  18
ATOM     18  O   UNL     1       1.146   5.190  -3.846  0.00  0.00    -0.468 OA
ATOM     19  C   UNL     1       0.117   5.390  -2.902  0.00  0.00    +0.253 C 
ENDBRANCH   2  18
BRANCH  10  20
ATOM     20  C   UNL     1       2.104   5.945 -12.624  0.00  0.00    +0.009 C 
BRANCH  20  21
ATOM     21  C   UNL     1       1.669   5.449 -13.941  0.00  0.00    +0.000 C 
ATOM     22  C   UNL     1       0.921   6.582 -14.642  0.00  0.00    +0.000 C 
ATOM     23  C   UNL     1       0.737   4.286 -13.928  0.00  0.00    +0.000 C 
ENDBRANCH  20  21
ENDBRANCH  10  20
TORSDOF 4
ENDMDL
MODEL 4
REMARK VINA RESULT:      -7.1      2.697      3.903
REMARK  Name = 
REMARK  4 active torsions:
REMARK  status: ('A' for Active; 'I' for Inactive)
REMARK    1  A    between atoms: O_2  and  C_3
REMARK    2  A    between atoms: C_8  and  O_9
REMARK    3  A    between atoms: C_15  and  C_16
REMARK    4  A    between atoms: C_16  and  C_17
REMARK                            x       y       z     vdW  Elec       q    Type
REMARK                         _______ _______ _______ _____ _____    ______ ____
ROOT
ATOM      1  C   UNL     1       0.532   5.961  -2.746  0.00  0.00    +0.172 A 
ATOM      2  C   UNL     1      -0.598   5.731  -3.528  0.00  0.00    +0.172 A 
ATOM      3  C   UNL     1      -0.459   5.880  -4.904  0.00  0.00    +0.037 A 
ATOM      4  C   UNL     1       0.822   5.870  -5.402  0.00  0.00    -0.008 A 
ATOM      5  C   UNL     1       0.898   5.858  -7.041  0.00  0.00    +0.087 C 
ATOM      6  N   UNL     1       1.943   4.650  -7.150  0.00  0.00    -0.269 NA
ATOM      7  C   UNL     1       1.969   3.915  -5.970  0.00  0.00    +0.077 C 
ATOM      8  C   UNL     1       2.940   4.728  -5.101  0.00  0.00    +0.044 C 
ATOM      9  C   UNL     1       3.182   5.136  -7.571  0.00  0.00    +0.080 C 
ATOM     10  C   UNL     1       2.837   5.666  -9.106  0.00  0.00    +0.074 C 
ATOM     11  C   UNL     1       2.375   7.128  -8.538  0.00  0.00    +0.153 C 
ATOM     12  O   UNL     1       1.610   7.604  -9.352  0.00  0.00    -0.296 OA
ATOM     13  C   UNL     1       2.072   7.063  -7.065  0.00  0.00    +0.085 C 
ATOM     14  C   UNL     1       1.974   5.822  -4.705  0.00  0.00    -0.020 A 
ATOM     15  C   UNL     1       1.798   5.951  -3.326  0.00  0.00    +0.036 A 
ENDROOT
BRANCH   1  17
ATOM     16  C   UNL     1       1.014   6.464  -0.497  0.00  0.00    +0.253 C 
ATOM     17  O   UNL     1       0.337   6.133  -1.376  0.00  0.00    -0.468 OA
ENDBRANCH   1  17
BRANCH   2  18
ATOM     18  O   UNL     1      -1.593   4.916  -2.971  0.00  0.00    -0.468 OA
ATOM     19  C   UNL     1      -2.967   5.224  -3.053  0.00  0.00    +0.253 C 
ENDBRANCH   2  18
BRANCH  10  20
ATOM     20  C   UNL     1       4.410   6.115  -9.380  0.00  0.00    +0.009 C 
BRANCH  20  21
ATOM     21  C   UNL     1       4.514   6.670 -10.740  0.00  0.00    +0.000 C 
ATOM     22  C   UNL     1       4.536   5.499 -11.721  0.00  0.00    +0.000 C 
ATOM     23  C   UNL     1       5.736   7.472 -11.029  0.00  0.00    +0.000 C 
ENDBRANCH  20  21
ENDBRANCH  10  20
TORSDOF 4
ENDMDL
MODEL 5
REMARK VINA RESULT:      -7.0      3.233      5.131
REMARK  Name = 
REMARK  4 active torsions:
REMARK  status: ('A' for Active; 'I' for Inactive)
REMARK    1  A    between atoms: O_2  and  C_3
REMARK    2  A    between atoms: C_8  and  O_9
REMARK    3  A    between atoms: C_15  and  C_16
REMARK    4  A    between atoms: C_16  and  C_17
REMARK                            x       y       z     vdW  Elec       q    Type
REMARK                         _______ _______ _______ _____ _____    ______ ____
ROOT
ATOM      1  C   UNL     1      -0.290   6.680  -5.585  0.00  0.00    +0.172 A 
ATOM      2  C   UNL     1      -0.870   5.855  -6.546  0.00  0.00    +0.172 A 
ATOM      3  C   UNL     1      -0.130   5.606  -7.698  0.00  0.00    +0.037 A 
ATOM      4  C   UNL     1       1.217   5.871  -7.638  0.00  0.00    -0.008 A 
ATOM      5  C   UNL     1       2.050   5.376  -8.962  0.00  0.00    +0.087 C 
ATOM      6  N   UNL     1       3.207   4.617  -8.157  0.00  0.00    -0.269 NA
ATOM      7  C   UNL     1       2.799   4.338  -6.857  0.00  0.00    +0.077 C 
ATOM      8  C   UNL     1       3.104   5.656  -6.131  0.00  0.00    +0.044 C 
ATOM      9  C   UNL     1       4.401   5.333  -8.260  0.00  0.00    +0.080 C 
ATOM     10  C   UNL     1       4.731   5.212  -9.883  0.00  0.00    +0.074 C 
ATOM     11  C   UNL     1       3.826   6.535 -10.205  0.00  0.00    +0.153 C 
ATOM     12  O   UNL     1       3.463   6.449 -11.360  0.00  0.00    -0.296 OA
ATOM     13  C   UNL     1       2.885   6.834  -9.068  0.00  0.00    +0.085 C 
ATOM     14  C   UNL     1       1.900   6.430  -6.621  0.00  0.00    -0.020 A 
ATOM     15  C   UNL     1       1.082   6.914  -5.599  0.00  0.00    +0.036 A 
ENDROOT
BRANCH   1  17
ATOM     16  C   UNL     1      -1.729   8.174  -4.470  0.00  0.00    +0.253 C 
ATOM     17  O   UNL     1      -1.127   7.193  -4.594  0.00  0.00    -0.468 OA
ENDBRANCH   1  17
BRANCH   2  18
ATOM     18  O   UNL     1      -1.861   4.970  -6.100  0.00  0.00    -0.468 OA
ATOM     19  C   UNL     1      -3.239   5.259  -6.189  0.00  0.00    +0.253 C 
ENDBRANCH   2  18
BRANCH  10  20
ATOM     20  C   UNL     1       6.152   6.052  -9.727  0.00  0.00    +0.009 C 
BRANCH  20  21
ATOM     21  C   UNL     1       6.649   6.397 -11.071  0.00  0.00    +0.000 C 
ATOM     22  C   UNL     1       8.025   5.756 -11.239  0.00  0.00    +0.000 C 
ATOM     23  C   UNL     1       6.833   7.849 -11.348  0.00  0.00    +0.000 C 
ENDBRANCH  20  21
ENDBRANCH  10  20
TORSDOF 4
ENDMDL
MODEL 6
REMARK VINA RESULT:      -7.0      2.424      7.149
REMARK  Name = 
REMARK  4 active torsions:
REMARK  status: ('A' for Active; 'I' for Inactive)
REMARK    1  A    between atoms: O_2  and  C_3
REMARK    2  A    between atoms: C_8  and  O_9
REMARK    3  A    between atoms: C_15  and  C_16
REMARK    4  A    between atoms: C_16  and  C_17
REMARK                            x       y       z     vdW  Elec       q    Type
REMARK                         _______ _______ _______ _____ _____    ______ ____
ROOT
ATOM      1  C   UNL     1       3.611   5.891 -12.106  0.00  0.00    +0.172 A 
ATOM      2  C   UNL     1       4.874   5.691 -11.553  0.00  0.00    +0.172 A 
ATOM      3  C   UNL     1       4.995   5.843 -10.175  0.00  0.00    +0.037 A 
ATOM      4  C   UNL     1       3.832   5.807  -9.444  0.00  0.00    -0.008 A 
ATOM      5  C   UNL     1       4.070   5.801  -7.820  0.00  0.00    +0.087 C 
ATOM      6  N   UNL     1       3.093   4.570  -7.514  0.00  0.00    -0.269 NA
ATOM      7  C   UNL     1       2.860   3.829  -8.667  0.00  0.00    +0.077 C 
ATOM      8  C   UNL     1       1.723   4.616  -9.335  0.00  0.00    +0.044 C 
ATOM      9  C   UNL     1       1.945   5.030  -6.866  0.00  0.00    +0.080 C 
ATOM     10  C   UNL     1       2.564   5.576  -5.424  0.00  0.00    +0.074 C 
ATOM     11  C   UNL     1       2.875   7.045  -6.070  0.00  0.00    +0.153 C 
ATOM     12  O   UNL     1       3.769   7.542  -5.417  0.00  0.00    -0.296 OA
ATOM     13  C   UNL     1       2.894   6.980  -7.574  0.00  0.00    +0.085 C 
ATOM     14  C   UNL     1       2.571   5.730  -9.909  0.00  0.00    -0.020 A 
ATOM     15  C   UNL     1       2.479   5.856 -11.296  0.00  0.00    +0.036 A 
ENDROOT
BRANCH   1  17
ATOM     16  C   UNL     1       2.704   5.920 -14.279  0.00  0.00    +0.253 C 
ATOM     17  O   UNL     1       3.538   6.060 -13.489  0.00  0.00    -0.468 OA
ENDBRANCH   1  17
BRANCH   2  18
ATOM     18  O   UNL     1       5.763   4.895 -12.289  0.00  0.00    -0.468 OA
ATOM     19  C   UNL     1       7.116   5.243 -12.484  0.00  0.00    +0.253 C 
ENDBRANCH   2  18
BRANCH  10  20
ATOM     20  C   UNL     1       1.061   5.990  -4.857  0.00  0.00    +0.009 C 
BRANCH  20  21
ATOM     21  C   UNL     1       1.116   6.071  -3.387  0.00  0.00    +0.000 C 
ATOM     22  C   UNL     1       2.432   5.442  -2.934  0.00  0.00    +0.000 C 
ATOM     23  C   UNL     1       0.039   5.351  -2.651  0.00  0.00    +0.000 C 
ENDBRANCH  20  21
ENDBRANCH  10  20
TORSDOF 4
ENDMDL
MODEL 7
REMARK VINA RESULT:      -6.9      1.540      7.218
REMARK  Name = 
REMARK  4 active torsions:
REMARK  status: ('A' for Active; 'I' for Inactive)
REMARK    1  A    between atoms: O_2  and  C_3
REMARK    2  A    between atoms: C_8  and  O_9
REMARK    3  A    between atoms: C_15  and  C_16
REMARK    4  A    between atoms: C_16  and  C_17
REMARK                            x       y       z     vdW  Elec       q    Type
REMARK                         _______ _______ _______ _____ _____    ______ ____
ROOT
ATOM      1  C   UNL     1       1.613   6.436  -9.918  0.00  0.00    +0.172 A 
ATOM      2  C   UNL     1       2.953   6.083 -10.058  0.00  0.00    +0.172 A 
ATOM      3  C   UNL     1       3.741   6.111  -8.912  0.00  0.00    +0.037 A 
ATOM      4  C   UNL     1       3.080   6.116  -7.707  0.00  0.00    -0.008 A 
ATOM      5  C   UNL     1       4.070   5.958  -6.407  0.00  0.00    +0.087 C 
ATOM      6  N   UNL     1       3.227   4.795  -5.698  0.00  0.00    -0.269 NA
ATOM      7  C   UNL     1       2.383   4.173  -6.611  0.00  0.00    +0.077 C 
ATOM      8  C   UNL     1       1.164   5.108  -6.616  0.00  0.00    +0.044 C 
ATOM      9  C   UNL     1       2.597   5.299  -4.559  0.00  0.00    +0.080 C 
ATOM     10  C   UNL     1       3.893   5.669  -3.588  0.00  0.00    +0.074 C 
ATOM     11  C   UNL     1       4.020   7.155  -4.262  0.00  0.00    +0.153 C 
ATOM     12  O   UNL     1       5.170   7.517  -4.114  0.00  0.00    -0.296 OA
ATOM     13  C   UNL     1       3.303   7.210  -5.584  0.00  0.00    +0.085 C 
ATOM     14  C   UNL     1       1.751   6.187  -7.498  0.00  0.00    -0.020 A 
ATOM     15  C   UNL     1       1.017   6.433  -8.659  0.00  0.00    +0.036 A 
ENDROOT
BRANCH   1  17
ATOM     16  C   UNL     1      -0.128   7.203 -11.305  0.00  0.00    +0.253 C 
ATOM     17  O   UNL     1       0.901   6.723 -11.082  0.00  0.00    -0.468 OA
ENDBRANCH   1  17
BRANCH   2  18
ATOM     18  O   UNL     1       3.278   5.275 -11.157  0.00  0.00    -0.468 OA
ATOM     19  C   UNL     1       4.244   5.645 -12.116  0.00  0.00    +0.253 C 
ENDBRANCH   2  18
BRANCH  10  20
ATOM     20  C   UNL     1       2.910   6.165  -2.347  0.00  0.00    +0.009 C 
BRANCH  20  21
ATOM     21  C   UNL     1       3.474   5.682  -1.075  0.00  0.00    +0.000 C 
ATOM     22  C   UNL     1       4.524   6.691  -0.617  0.00  0.00    +0.000 C 
ATOM     23  C   UNL     1       4.163   4.361  -1.124  0.00  0.00    +0.000 C 
ENDBRANCH  20  21
ENDBRANCH  10  20
TORSDOF 4
ENDMDL
MODEL 8
REMARK VINA RESULT:      -6.9      3.196      4.858
REMARK  Name = 
REMARK  4 active torsions:
REMARK  status: ('A' for Active; 'I' for Inactive)
REMARK    1  A    between atoms: O_2  and  C_3
REMARK    2  A    between atoms: C_8  and  O_9
REMARK    3  A    between atoms: C_15  and  C_16
REMARK    4  A    between atoms: C_16  and  C_17
REMARK                            x       y       z     vdW  Elec       q    Type
REMARK                         _______ _______ _______ _____ _____    ______ ____
ROOT
ATOM      1  C   UNL     1      -0.672   5.327  -6.402  0.00  0.00    +0.172 A 
ATOM      2  C   UNL     1       0.218   5.593  -5.364  0.00  0.00    +0.172 A 
ATOM      3  C   UNL     1       1.575   5.580  -5.673  0.00  0.00    +0.037 A 
ATOM      4  C   UNL     1       1.909   5.678  -7.002  0.00  0.00    -0.008 A 
ATOM      5  C   UNL     1       3.518   5.848  -7.271  0.00  0.00    +0.087 C 
ATOM      6  N   UNL     1       3.390   7.094  -8.269  0.00  0.00    -0.269 NA
ATOM      7  C   UNL     1       2.154   7.714  -8.123  0.00  0.00    +0.077 C 
ATOM      8  C   UNL     1       1.250   6.854  -9.018  0.00  0.00    +0.044 C 
ATOM      9  C   UNL     1       3.698   6.689  -9.569  0.00  0.00    +0.080 C 
ATOM     10  C   UNL     1       5.305   6.297  -9.431  0.00  0.00    +0.074 C 
ATOM     11  C   UNL     1       4.932   4.773  -8.969  0.00  0.00    +0.153 C 
ATOM     12  O   UNL     1       5.873   4.353  -8.328  0.00  0.00    -0.296 OA
ATOM     13  C   UNL     1       3.508   4.688  -8.491  0.00  0.00    +0.085 C 
ATOM     14  C   UNL     1       1.075   5.696  -8.060  0.00  0.00    -0.020 A 
ATOM     15  C   UNL     1      -0.254   5.432  -7.727  0.00  0.00    +0.036 A 
ENDROOT
BRANCH   1  17
ATOM     16  C   UNL     1      -3.013   5.524  -6.238  0.00  0.00    +0.253 C 
ATOM     17  O   UNL     1      -1.988   5.020  -6.054  0.00  0.00    -0.468 OA
ENDBRANCH   1  17
BRANCH   2  18
ATOM     18  O   UNL     1      -0.285   6.320  -4.277  0.00  0.00    -0.468 OA
ATOM     19  C   UNL     1      -0.426   5.764  -2.988  0.00  0.00    +0.253 C 
ENDBRANCH   2  18
BRANCH  10  20
ATOM     20  C   UNL     1       5.424   5.926 -11.044  0.00  0.00    +0.009 C 
BRANCH  20  21
ATOM     21  C   UNL     1       6.551   6.681 -11.621  0.00  0.00    +0.000 C 
ATOM     22  C   UNL     1       7.818   6.272 -10.873  0.00  0.00    +0.000 C 
ATOM     23  C   UNL     1       6.469   8.164 -11.514  0.00  0.00    +0.000 C 
ENDBRANCH  20  21
ENDBRANCH  10  20
TORSDOF 4
ENDMDL
MODEL 9
REMARK VINA RESULT:      -6.9      1.678      1.898
REMARK  Name = 
REMARK  4 active torsions:
REMARK  status: ('A' for Active; 'I' for Inactive)
REMARK    1  A    between atoms: O_2  and  C_3
REMARK    2  A    between atoms: C_8  and  O_9
REMARK    3  A    between atoms: C_15  and  C_16
REMARK    4  A    between atoms: C_16  and  C_17
REMARK                            x       y       z     vdW  Elec       q    Type
REMARK                         _______ _______ _______ _____ _____    ______ ____
ROOT
ATOM      1  C   UNL     1       1.562   5.496  -2.692  0.00  0.00    +0.172 A 
ATOM      2  C   UNL     1       2.870   5.902  -2.950  0.00  0.00    +0.172 A 
ATOM      3  C   UNL     1       3.347   5.722  -4.244  0.00  0.00    +0.037 A 
ATOM      4  C   UNL     1       2.409   5.517  -5.227  0.00  0.00    -0.008 A 
ATOM      5  C   UNL     1       3.031   5.504  -6.745  0.00  0.00    +0.087 C 
ATOM      6  N   UNL     1       1.965   6.523  -7.370  0.00  0.00    -0.269 NA
ATOM      7  C   UNL     1       1.337   7.253  -6.367  0.00  0.00    +0.077 C 
ATOM      8  C   UNL     1       0.221   6.298  -5.921  0.00  0.00    +0.044 C 
ATOM      9  C   UNL     1       1.105   5.836  -8.229  0.00  0.00    +0.080 C 
ATOM     10  C   UNL     1       2.139   5.358  -9.437  0.00  0.00    +0.074 C 
ATOM     11  C   UNL     1       2.525   3.996  -8.619  0.00  0.00    +0.153 C 
ATOM     12  O   UNL     1       3.622   3.646  -9.003  0.00  0.00    -0.296 OA
ATOM     13  C   UNL     1       2.165   4.121  -7.163  0.00  0.00    +0.085 C 
ATOM     14  C   UNL     1       1.077   5.380  -5.077  0.00  0.00    -0.020 A 
ATOM     15  C   UNL     1       0.672   5.293  -3.744  0.00  0.00    +0.036 A 
ENDROOT
BRANCH   1  17
ATOM     16  C   UNL     1       0.410   5.903  -0.679  0.00  0.00    +0.253 C 
ATOM     17  O   UNL     1       1.183   5.370  -1.355  0.00  0.00    -0.468 OA
ENDBRANCH   1  17
BRANCH   2  18
ATOM     18  O   UNL     1       3.406   6.874  -2.094  0.00  0.00    -0.468 OA
ATOM     19  C   UNL     1       3.880   8.120  -2.556  0.00  0.00    +0.253 C 
ENDBRANCH   2  18
BRANCH  10  20
ATOM     20  C   UNL     1       0.912   4.655 -10.303  0.00  0.00    +0.009 C 
BRANCH  20  21
ATOM     21  C   UNL     1       0.710   5.421 -11.546  0.00  0.00    +0.000 C 
ATOM     22  C   UNL     1       2.061   6.001 -11.960  0.00  0.00    +0.000 C 
ATOM     23  C   UNL     1      -0.227   6.576 -11.459  0.00  0.00    +0.000 C 
ENDBRANCH  20  21
ENDBRANCH  10  20
TORSDOF 4
ENDMDL
