MODEL 1
REMARK VINA RESULT:      -5.8      0.000      0.000
REMARK  Name = 
REMARK  9 active torsions:
REMARK  status: ('A' for Active; 'I' for Inactive)
REMARK    1  A    between atoms: C_2  and  C_3
REMARK    2  A    between atoms: C_3  and  C_4
REMARK    3  A    between atoms: C_4  and  C_5
REMARK    4  A    between atoms: C_5  and  C_6
REMARK    5  A    between atoms: C_5  and  C_8
REMARK    6  A    between atoms: C_8  and  O_9
REMARK    7  A    between atoms: O_9  and  C_10
REMARK    8  A    between atoms: C_10  and  C_12
REMARK    9  A    between atoms: C_15  and  N_16
REMARK                            x       y       z     vdW  Elec       q    Type
REMARK                         _______ _______ _______ _____ _____    ______ ____
ROOT
ATOM      1  C   UNL     1       3.829   5.625  -6.733  0.00  0.00    +0.341 C 
ATOM      2  O   UNL     1       4.775   5.388  -7.545  0.00  0.00    -0.245 OA
ENDROOT
BRANCH   1   3
ATOM      3  C   UNL     1       4.241   5.940  -5.359  0.00  0.00    +0.076 A 
ATOM      4  C   UNL     1       4.610   7.222  -4.974  0.00  0.00    +0.008 A 
ATOM      5  C   UNL     1       4.272   7.627  -3.696  0.00  0.00    +0.015 A 
ATOM      6  C   UNL     1       3.986   6.660  -2.761  0.00  0.00    +0.048 A 
ATOM      7  C   UNL     1       4.240   5.347  -3.060  0.00  0.00    +0.015 A 
ATOM      8  C   UNL     1       4.271   4.969  -4.394  0.00  0.00    +0.008 A 
BRANCH   6   9
ATOM      9  N   UNL     1       3.809   7.082  -1.404  0.00  0.00    -0.304 N 
ATOM     10  C   UNL     1       4.317   6.202  -0.354  0.00  0.00    +0.112 C 
ATOM     11  C   UNL     1       3.793   8.507  -1.175  0.00  0.00    +0.112 C 
ENDBRANCH   6   9
ENDBRANCH   1   3
BRANCH   1  12
ATOM     12  O   UNL     1       2.688   4.845  -6.859  0.00  0.00    -0.445 OA
BRANCH  12  13
ATOM     13  C   UNL     1       1.502   5.419  -7.340  0.00  0.00    +0.209 C 
BRANCH  13  14
ATOM     14  C   UNL     1       0.372   5.086  -6.177  0.00  0.00    +0.044 C 
BRANCH  14  15
ATOM     15  C   UNL     1      -0.884   5.330  -7.225  0.00  0.00    +0.004 C 
ATOM     16  C   UNL     1      -2.105   5.518  -6.391  0.00  0.00    +0.000 C 
ENDBRANCH  14  15
BRANCH  14  17
ATOM     17  C   UNL     1       0.363   6.661  -5.665  0.00  0.00    +0.004 C 
BRANCH  17  18
ATOM     18  C   UNL     1       0.706   6.604  -4.211  0.00  0.00    +0.000 C 
BRANCH  18  20
ATOM     19  C   UNL     1       0.459   5.476  -2.102  0.00  0.00    +0.000 C 
ATOM     20  C   UNL     1       0.544   5.248  -3.593  0.00  0.00    +0.000 C 
ENDBRANCH  18  20
ENDBRANCH  17  18
ENDBRANCH  14  17
ENDBRANCH  13  14
ENDBRANCH  12  13
ENDBRANCH   1  12
TORSDOF 9
ENDMDL
MODEL 2
REMARK VINA RESULT:      -5.8      3.931      5.696
REMARK  Name = 
REMARK  9 active torsions:
REMARK  status: ('A' for Active; 'I' for Inactive)
REMARK    1  A    between atoms: C_2  and  C_3
REMARK    2  A    between atoms: C_3  and  C_4
REMARK    3  A    between atoms: C_4  and  C_5
REMARK    4  A    between atoms: C_5  and  C_6
REMARK    5  A    between atoms: C_5  and  C_8
REMARK    6  A    between atoms: C_8  and  O_9
REMARK    7  A    between atoms: O_9  and  C_10
REMARK    8  A    between atoms: C_10  and  C_12
REMARK    9  A    between atoms: C_15  and  N_16
REMARK                            x       y       z     vdW  Elec       q    Type
REMARK                         _______ _______ _______ _____ _____    ______ ____
ROOT
ATOM      1  C   UNL     1       2.844   7.247  -7.411  0.00  0.00    +0.341 C 
ATOM      2  O   UNL     1       2.135   8.205  -7.845  0.00  0.00    -0.245 OA
ENDROOT
BRANCH   1   3
ATOM      3  C   UNL     1       3.607   6.515  -8.429  0.00  0.00    +0.076 A 
ATOM      4  C   UNL     1       3.313   6.611  -9.783  0.00  0.00    +0.008 A 
ATOM      5  C   UNL     1       4.373   6.568 -10.671  0.00  0.00    +0.015 A 
ATOM      6  C   UNL     1       5.562   6.030 -10.239  0.00  0.00    +0.048 A 
ATOM      7  C   UNL     1       5.601   5.378  -9.035  0.00  0.00    +0.015 A 
ATOM      8  C   UNL     1       4.653   5.705  -8.077  0.00  0.00    +0.008 A 
BRANCH   6   9
ATOM      9  N   UNL     1       6.592   5.833 -11.214  0.00  0.00    -0.304 N 
ATOM     10  C   UNL     1       7.905   5.414 -10.729  0.00  0.00    +0.112 C 
ATOM     11  C   UNL     1       6.160   5.404 -12.523  0.00  0.00    +0.112 C 
ENDBRANCH   6   9
ENDBRANCH   1   3
BRANCH   1  12
ATOM     12  O   UNL     1       2.296   6.476  -6.394  0.00  0.00    -0.445 OA
BRANCH  12  13
ATOM     13  C   UNL     1       0.948   6.643  -6.043  0.00  0.00    +0.209 C 
BRANCH  13  14
ATOM     14  C   UNL     1       0.290   5.129  -6.173  0.00  0.00    +0.044 C 
BRANCH  14  15
ATOM     15  C   UNL     1      -0.727   5.598  -7.391  0.00  0.00    +0.004 C 
ATOM     16  C   UNL     1      -0.011   5.328  -8.671  0.00  0.00    +0.000 C 
ENDBRANCH  14  15
BRANCH  14  17
ATOM     17  C   UNL     1      -0.828   5.461  -4.996  0.00  0.00    +0.004 C 
BRANCH  17  18
ATOM     18  C   UNL     1      -1.931   6.187  -5.696  0.00  0.00    +0.000 C 
BRANCH  18  20
ATOM     19  C   UNL     1      -1.840   8.274  -4.504  0.00  0.00    +0.000 C 
ATOM     20  C   UNL     1      -2.732   7.093  -4.809  0.00  0.00    +0.000 C 
ENDBRANCH  18  20
ENDBRANCH  17  18
ENDBRANCH  14  17
ENDBRANCH  13  14
ENDBRANCH  12  13
ENDBRANCH   1  12
TORSDOF 9
ENDMDL
MODEL 3
REMARK VINA RESULT:      -5.7      3.083      4.866
REMARK  Name = 
REMARK  9 active torsions:
REMARK  status: ('A' for Active; 'I' for Inactive)
REMARK    1  A    between atoms: C_2  and  C_3
REMARK    2  A    between atoms: C_3  and  C_4
REMARK    3  A    between atoms: C_4  and  C_5
REMARK    4  A    between atoms: C_5  and  C_6
REMARK    5  A    between atoms: C_5  and  C_8
REMARK    6  A    between atoms: C_8  and  O_9
REMARK    7  A    between atoms: O_9  and  C_10
REMARK    8  A    between atoms: C_10  and  C_12
REMARK    9  A    between atoms: C_15  and  N_16
REMARK                            x       y       z     vdW  Elec       q    Type
REMARK                         _______ _______ _______ _____ _____    ______ ____
ROOT
ATOM      1  C   UNL     1      -2.099   5.647  -1.571  0.00  0.00    +0.341 C 
ATOM      2  O   UNL     1      -2.723   6.750  -1.510  0.00  0.00    -0.245 OA
ENDROOT
BRANCH   1   3
ATOM      3  C   UNL     1      -0.682   5.701  -1.192  0.00  0.00    +0.076 A 
ATOM      4  C   UNL     1       0.287   4.950  -1.844  0.00  0.00    +0.008 A 
ATOM      5  C   UNL     1       1.538   5.518  -2.001  0.00  0.00    +0.015 A 
ATOM      6  C   UNL     1       1.885   6.564  -1.178  0.00  0.00    +0.048 A 
ATOM      7  C   UNL     1       1.080   6.870  -0.113  0.00  0.00    +0.015 A 
ATOM      8  C   UNL     1      -0.258   6.510  -0.172  0.00  0.00    +0.008 A 
BRANCH   6   9
ATOM      9  N   UNL     1       3.239   7.027  -1.232  0.00  0.00    -0.304 N 
ATOM     10  C   UNL     1       4.260   6.195  -0.599  0.00  0.00    +0.112 C 
ATOM     11  C   UNL     1       3.598   7.819  -2.384  0.00  0.00    +0.112 C 
ENDBRANCH   6   9
ENDBRANCH   1   3
BRANCH   1  12
ATOM     12  O   UNL     1      -2.408   4.814  -2.638  0.00  0.00    -0.445 OA
BRANCH  12  13
ATOM     13  C   UNL     1      -3.018   5.346  -3.783  0.00  0.00    +0.209 C 
BRANCH  13  14
ATOM     14  C   UNL     1      -1.777   6.024  -4.644  0.00  0.00    +0.044 C 
BRANCH  14  15
ATOM     15  C   UNL     1      -2.647   7.397  -4.953  0.00  0.00    +0.004 C 
ATOM     16  C   UNL     1      -1.852   8.536  -4.412  0.00  0.00    +0.000 C 
ENDBRANCH  14  15
BRANCH  14  17
ATOM     17  C   UNL     1      -2.278   5.289  -6.041  0.00  0.00    +0.004 C 
BRANCH  17  18
ATOM     18  C   UNL     1      -1.053   5.186  -6.891  0.00  0.00    +0.000 C 
BRANCH  18  20
ATOM     19  C   UNL     1       1.045   4.325  -6.090  0.00  0.00    +0.000 C 
ATOM     20  C   UNL     1       0.215   5.583  -6.197  0.00  0.00    +0.000 C 
ENDBRANCH  18  20
ENDBRANCH  17  18
ENDBRANCH  14  17
ENDBRANCH  13  14
ENDBRANCH  12  13
ENDBRANCH   1  12
TORSDOF 9
ENDMDL
MODEL 4
REMARK VINA RESULT:      -5.7      2.778      6.080
REMARK  Name = 
REMARK  9 active torsions:
REMARK  status: ('A' for Active; 'I' for Inactive)
REMARK    1  A    between atoms: C_2  and  C_3
REMARK    2  A    between atoms: C_3  and  C_4
REMARK    3  A    between atoms: C_4  and  C_5
REMARK    4  A    between atoms: C_5  and  C_6
REMARK    5  A    between atoms: C_5  and  C_8
REMARK    6  A    between atoms: C_8  and  O_9
REMARK    7  A    between atoms: O_9  and  C_10
REMARK    8  A    between atoms: C_10  and  C_12
REMARK    9  A    between atoms: C_15  and  N_16
REMARK                            x       y       z     vdW  Elec       q    Type
REMARK                         _______ _______ _______ _____ _____    ______ ____
ROOT
ATOM      1  C   UNL     1       0.888   5.643  -8.214  0.00  0.00    +0.341 C 
ATOM      2  O   UNL     1       0.310   5.745  -9.339  0.00  0.00    -0.245 OA
ENDROOT
BRANCH   1   3
ATOM      3  C   UNL     1       0.001   5.418  -7.066  0.00  0.00    +0.076 A 
ATOM      4  C   UNL     1       0.485   5.308  -5.769  0.00  0.00    +0.008 A 
ATOM      5  C   UNL     1      -0.295   5.825  -4.751  0.00  0.00    +0.015 A 
ATOM      6  C   UNL     1      -1.633   6.028  -4.995  0.00  0.00    +0.048 A 
ATOM      7  C   UNL     1      -2.184   5.530  -6.145  0.00  0.00    +0.015 A 
ATOM      8  C   UNL     1      -1.354   5.314  -7.235  0.00  0.00    +0.008 A 
BRANCH   6   9
ATOM      9  N   UNL     1      -2.459   6.399  -3.885  0.00  0.00    -0.304 N 
ATOM     10  C   UNL     1      -3.068   5.319  -3.111  0.00  0.00    +0.112 C 
ATOM     11  C   UNL     1      -2.117   7.631  -3.217  0.00  0.00    +0.112 C 
ENDBRANCH   6   9
ENDBRANCH   1   3
BRANCH   1  12
ATOM     12  O   UNL     1       1.968   6.486  -7.989  0.00  0.00    -0.445 OA
BRANCH  12  13
ATOM     13  C   UNL     1       3.208   6.204  -8.580  0.00  0.00    +0.209 C 
BRANCH  13  14
ATOM     14  C   UNL     1       3.854   4.999  -7.647  0.00  0.00    +0.044 C 
BRANCH  14  15
ATOM     15  C   UNL     1       4.169   6.036  -6.398  0.00  0.00    +0.004 C 
ATOM     16  C   UNL     1       4.241   5.206  -5.162  0.00  0.00    +0.000 C 
ENDBRANCH  14  15
BRANCH  14  17
ATOM     17  C   UNL     1       5.353   5.215  -8.318  0.00  0.00    +0.004 C 
BRANCH  17  18
ATOM     18  C   UNL     1       5.104   5.905  -9.620  0.00  0.00    +0.000 C 
BRANCH  18  20
ATOM     19  C   UNL     1       7.503   5.742  -9.568  0.00  0.00    +0.000 C 
ATOM     20  C   UNL     1       6.348   6.346 -10.332  0.00  0.00    +0.000 C 
ENDBRANCH  18  20
ENDBRANCH  17  18
ENDBRANCH  14  17
ENDBRANCH  13  14
ENDBRANCH  12  13
ENDBRANCH   1  12
TORSDOF 9
ENDMDL
MODEL 5
REMARK VINA RESULT:      -5.7      3.257      5.911
REMARK  Name = 
REMARK  9 active torsions:
REMARK  status: ('A' for Active; 'I' for Inactive)
REMARK    1  A    between atoms: C_2  and  C_3
REMARK    2  A    between atoms: C_3  and  C_4
REMARK    3  A    between atoms: C_4  and  C_5
REMARK    4  A    between atoms: C_5  and  C_6
REMARK    5  A    between atoms: C_5  and  C_8
REMARK    6  A    between atoms: C_8  and  O_9
REMARK    7  A    between atoms: O_9  and  C_10
REMARK    8  A    between atoms: C_10  and  C_12
REMARK    9  A    between atoms: C_15  and  N_16
REMARK                            x       y       z     vdW  Elec       q    Type
REMARK                         _______ _______ _______ _____ _____    ______ ____
ROOT
ATOM      1  C   UNL     1       1.934   4.315  -6.903  0.00  0.00    +0.341 C 
ATOM      2  O   UNL     1       2.076   3.200  -6.314  0.00  0.00    -0.245 OA
ENDROOT
BRANCH   1   3
ATOM      3  C   UNL     1       0.922   5.209  -6.326  0.00  0.00    +0.076 A 
ATOM      4  C   UNL     1      -0.317   5.404  -6.921  0.00  0.00    +0.008 A 
ATOM      5  C   UNL     1      -1.405   5.584  -6.087  0.00  0.00    +0.015 A 
ATOM      6  C   UNL     1      -1.172   5.974  -4.789  0.00  0.00    +0.048 A 
ATOM      7  C   UNL     1       0.090   6.364  -4.426  0.00  0.00    +0.015 A 
ATOM      8  C   UNL     1       1.165   5.886  -5.161  0.00  0.00    +0.008 A 
BRANCH   6   9
ATOM      9  N   UNL     1      -2.307   6.325  -3.989  0.00  0.00    -0.304 N 
ATOM     10  C   UNL     1      -3.134   5.233  -3.481  0.00  0.00    +0.112 C 
ATOM     11  C   UNL     1      -2.192   7.535  -3.211  0.00  0.00    +0.112 C 
ENDBRANCH   6   9
ENDBRANCH   1   3
BRANCH   1  12
ATOM     12  O   UNL     1       2.011   4.303  -8.289  0.00  0.00    -0.445 OA
BRANCH  12  13
ATOM     13  C   UNL     1       3.265   4.312  -8.917  0.00  0.00    +0.209 C 
BRANCH  13  14
ATOM     14  C   UNL     1       3.992   5.700  -8.382  0.00  0.00    +0.044 C 
BRANCH  14  15
ATOM     15  C   UNL     1       2.899   6.661  -9.169  0.00  0.00    +0.004 C 
ATOM     16  C   UNL     1       2.510   7.736  -8.212  0.00  0.00    +0.000 C 
ENDBRANCH  14  15
BRANCH  14  17
ATOM     17  C   UNL     1       5.044   5.701  -9.661  0.00  0.00    +0.004 C 
BRANCH  17  18
ATOM     18  C   UNL     1       6.397   5.507  -9.057  0.00  0.00    +0.000 C 
BRANCH  18  20
ATOM     19  C   UNL     1       6.829   7.101 -10.806  0.00  0.00    +0.000 C 
ATOM     20  C   UNL     1       7.501   6.226  -9.773  0.00  0.00    +0.000 C 
ENDBRANCH  18  20
ENDBRANCH  17  18
ENDBRANCH  14  17
ENDBRANCH  13  14
ENDBRANCH  12  13
ENDBRANCH   1  12
TORSDOF 9
ENDMDL
MODEL 6
REMARK VINA RESULT:      -5.6      3.907      5.578
REMARK  Name = 
REMARK  9 active torsions:
REMARK  status: ('A' for Active; 'I' for Inactive)
REMARK    1  A    between atoms: C_2  and  C_3
REMARK    2  A    between atoms: C_3  and  C_4
REMARK    3  A    between atoms: C_4  and  C_5
REMARK    4  A    between atoms: C_5  and  C_6
REMARK    5  A    between atoms: C_5  and  C_8
REMARK    6  A    between atoms: C_8  and  O_9
REMARK    7  A    between atoms: O_9  and  C_10
REMARK    8  A    between atoms: C_10  and  C_12
REMARK    9  A    between atoms: C_15  and  N_16
REMARK                            x       y       z     vdW  Elec       q    Type
REMARK                         _______ _______ _______ _____ _____    ______ ____
ROOT
ATOM      1  C   UNL     1       2.106   7.092  -8.025  0.00  0.00    +0.341 C 
ATOM      2  O   UNL     1       2.206   8.354  -7.939  0.00  0.00    -0.245 OA
ENDROOT
BRANCH   1   3
ATOM      3  C   UNL     1       3.181   6.423  -8.766  0.00  0.00    +0.076 A 
ATOM      4  C   UNL     1       3.278   6.490 -10.150  0.00  0.00    +0.008 A 
ATOM      5  C   UNL     1       4.546   6.533 -10.700  0.00  0.00    +0.015 A 
ATOM      6  C   UNL     1       5.602   6.095  -9.936  0.00  0.00    +0.048 A 
ATOM      7  C   UNL     1       5.348   5.453  -8.753  0.00  0.00    +0.015 A 
ATOM      8  C   UNL     1       4.144   5.703  -8.110  0.00  0.00    +0.008 A 
BRANCH   6   9
ATOM      9  N   UNL     1       6.879   5.981 -10.574  0.00  0.00    -0.304 N 
ATOM     10  C   UNL     1       7.242   7.016 -11.539  0.00  0.00    +0.112 C 
ATOM     11  C   UNL     1       7.922   5.342  -9.808  0.00  0.00    +0.112 C 
ENDBRANCH   6   9
ENDBRANCH   1   3
BRANCH   1  12
ATOM     12  O   UNL     1       0.829   6.579  -8.214  0.00  0.00    -0.445 OA
BRANCH  12  13
ATOM     13  C   UNL     1       0.365   5.546  -7.387  0.00  0.00    +0.209 C 
BRANCH  13  14
ATOM     14  C   UNL     1      -0.030   6.293  -5.963  0.00  0.00    +0.044 C 
BRANCH  14  15
ATOM     15  C   UNL     1       0.592   5.056  -5.058  0.00  0.00    +0.004 C 
ATOM     16  C   UNL     1       1.302   4.150  -6.006  0.00  0.00    +0.000 C 
ENDBRANCH  14  15
BRANCH  14  17
ATOM     17  C   UNL     1      -1.549   5.632  -5.979  0.00  0.00    +0.004 C 
BRANCH  17  18
ATOM     18  C   UNL     1      -2.447   6.698  -5.440  0.00  0.00    +0.000 C 
BRANCH  18  20
ATOM     19  C   UNL     1      -3.023   5.299  -3.570  0.00  0.00    +0.000 C 
ATOM     20  C   UNL     1      -2.581   6.694  -3.947  0.00  0.00    +0.000 C 
ENDBRANCH  18  20
ENDBRANCH  17  18
ENDBRANCH  14  17
ENDBRANCH  13  14
ENDBRANCH  12  13
ENDBRANCH   1  12
TORSDOF 9
ENDMDL
MODEL 7
REMARK VINA RESULT:      -5.6      4.195      6.194
REMARK  Name = 
REMARK  9 active torsions:
REMARK  status: ('A' for Active; 'I' for Inactive)
REMARK    1  A    between atoms: C_2  and  C_3
REMARK    2  A    between atoms: C_3  and  C_4
REMARK    3  A    between atoms: C_4  and  C_5
REMARK    4  A    between atoms: C_5  and  C_6
REMARK    5  A    between atoms: C_5  and  C_8
REMARK    6  A    between atoms: C_8  and  O_9
REMARK    7  A    between atoms: O_9  and  C_10
REMARK    8  A    between atoms: C_10  and  C_12
REMARK    9  A    between atoms: C_15  and  N_16
REMARK                            x       y       z     vdW  Elec       q    Type
REMARK                         _______ _______ _______ _____ _____    ______ ____
ROOT
ATOM      1  C   UNL     1       2.750   7.160  -7.312  0.00  0.00    +0.341 C 
ATOM      2  O   UNL     1       2.216   8.244  -7.699  0.00  0.00    -0.245 OA
ENDROOT
BRANCH   1   3
ATOM      3  C   UNL     1       3.561   6.463  -8.317  0.00  0.00    +0.076 A 
ATOM      4  C   UNL     1       3.355   6.631  -9.680  0.00  0.00    +0.008 A 
ATOM      5  C   UNL     1       4.466   6.609 -10.502  0.00  0.00    +0.015 A 
ATOM      6  C   UNL     1       5.616   6.025 -10.025  0.00  0.00    +0.048 A 
ATOM      7  C   UNL     1       5.568   5.315  -8.855  0.00  0.00    +0.015 A 
ATOM      8  C   UNL     1       4.569   5.615  -7.941  0.00  0.00    +0.008 A 
BRANCH   6   9
ATOM      9  N   UNL     1       6.702   5.854 -10.944  0.00  0.00    -0.304 N 
ATOM     10  C   UNL     1       8.007   5.507 -10.386  0.00  0.00    +0.112 C 
ATOM     11  C   UNL     1       6.355   5.376 -12.261  0.00  0.00    +0.112 C 
ENDBRANCH   6   9
ENDBRANCH   1   3
BRANCH   1  12
ATOM     12  O   UNL     1       1.986   6.351  -6.482  0.00  0.00    -0.445 OA
BRANCH  12  13
ATOM     13  C   UNL     1       1.196   5.333  -7.036  0.00  0.00    +0.209 C 
BRANCH  13  14
ATOM     14  C   UNL     1      -0.146   6.111  -7.614  0.00  0.00    +0.044 C 
BRANCH  14  15
ATOM     15  C   UNL     1      -1.163   4.949  -7.021  0.00  0.00    +0.004 C 
ATOM     16  C   UNL     1      -2.263   5.665  -6.314  0.00  0.00    +0.000 C 
ENDBRANCH  14  15
BRANCH  14  17
ATOM     17  C   UNL     1      -0.008   5.361  -9.085  0.00  0.00    +0.004 C 
BRANCH  17  18
ATOM     18  C   UNL     1      -0.172   6.449 -10.096  0.00  0.00    +0.000 C 
BRANCH  18  20
ATOM     19  C   UNL     1       0.194   4.541 -11.515  0.00  0.00    +0.000 C 
ATOM     20  C   UNL     1       0.200   6.052 -11.494  0.00  0.00    +0.000 C 
ENDBRANCH  18  20
ENDBRANCH  17  18
ENDBRANCH  14  17
ENDBRANCH  13  14
ENDBRANCH  12  13
ENDBRANCH   1  12
TORSDOF 9
ENDMDL
MODEL 8
REMARK VINA RESULT:      -5.6      4.251      6.201
REMARK  Name = 
REMARK  9 active torsions:
REMARK  status: ('A' for Active; 'I' for Inactive)
REMARK    1  A    between atoms: C_2  and  C_3
REMARK    2  A    between atoms: C_3  and  C_4
REMARK    3  A    between atoms: C_4  and  C_5
REMARK    4  A    between atoms: C_5  and  C_6
REMARK    5  A    between atoms: C_5  and  C_8
REMARK    6  A    between atoms: C_8  and  O_9
REMARK    7  A    between atoms: O_9  and  C_10
REMARK    8  A    between atoms: C_10  and  C_12
REMARK    9  A    between atoms: C_15  and  N_16
REMARK                            x       y       z     vdW  Elec       q    Type
REMARK                         _______ _______ _______ _____ _____    ______ ____
ROOT
ATOM      1  C   UNL     1       3.769   5.687  -7.618  0.00  0.00    +0.341 C 
ATOM      2  O   UNL     1       4.180   5.334  -6.471  0.00  0.00    -0.245 OA
ENDROOT
BRANCH   1   3
ATOM      3  C   UNL     1       4.675   5.382  -8.733  0.00  0.00    +0.076 A 
ATOM      4  C   UNL     1       4.205   5.011  -9.986  0.00  0.00    +0.008 A 
ATOM      5  C   UNL     1       4.918   5.443 -11.089  0.00  0.00    +0.015 A 
ATOM      6  C   UNL     1       6.224   5.833 -10.908  0.00  0.00    +0.048 A 
ATOM      7  C   UNL     1       6.831   5.592  -9.704  0.00  0.00    +0.015 A 
ATOM      8  C   UNL     1       6.033   5.461  -8.577  0.00  0.00    +0.008 A 
BRANCH   6   9
ATOM      9  N   UNL     1       7.001   6.111 -12.079  0.00  0.00    -0.304 N 
ATOM     10  C   UNL     1       6.539   7.189 -12.951  0.00  0.00    +0.112 C 
ATOM     11  C   UNL     1       8.416   5.845 -11.985  0.00  0.00    +0.112 C 
ENDBRANCH   6   9
ENDBRANCH   1   3
BRANCH   1  12
ATOM     12  O   UNL     1       3.101   6.901  -7.696  0.00  0.00    -0.445 OA
BRANCH  12  13
ATOM     13  C   UNL     1       1.797   6.947  -8.209  0.00  0.00    +0.209 C 
BRANCH  13  14
ATOM     14  C   UNL     1       1.172   5.444  -7.904  0.00  0.00    +0.044 C 
BRANCH  14  15
ATOM     15  C   UNL     1       0.112   5.549  -9.169  0.00  0.00    +0.004 C 
ATOM     16  C   UNL     1       0.651   6.588 -10.092  0.00  0.00    +0.000 C 
ENDBRANCH  14  15
BRANCH  14  17
ATOM     17  C   UNL     1       0.079   6.063  -6.824  0.00  0.00    +0.004 C 
BRANCH  17  18
ATOM     18  C   UNL     1      -1.116   5.171  -6.920  0.00  0.00    +0.000 C 
BRANCH  18  20
ATOM     19  C   UNL     1      -2.106   6.206  -4.988  0.00  0.00    +0.000 C 
ATOM     20  C   UNL     1      -2.386   5.786  -6.412  0.00  0.00    +0.000 C 
ENDBRANCH  18  20
ENDBRANCH  17  18
ENDBRANCH  14  17
ENDBRANCH  13  14
ENDBRANCH  12  13
ENDBRANCH   1  12
TORSDOF 9
ENDMDL
MODEL 9
REMARK VINA RESULT:      -5.5      3.274      6.206
REMARK  Name = 
REMARK  9 active torsions:
REMARK  status: ('A' for Active; 'I' for Inactive)
REMARK    1  A    between atoms: C_2  and  C_3
REMARK    2  A    between atoms: C_3  and  C_4
REMARK    3  A    between atoms: C_4  and  C_5
REMARK    4  A    between atoms: C_5  and  C_6
REMARK    5  A    between atoms: C_5  and  C_8
REMARK    6  A    between atoms: C_8  and  O_9
REMARK    7  A    between atoms: O_9  and  C_10
REMARK    8  A    between atoms: C_10  and  C_12
REMARK    9  A    between atoms: C_15  and  N_16
REMARK                            x       y       z     vdW  Elec       q    Type
REMARK                         _______ _______ _______ _____ _____    ______ ____
ROOT
ATOM      1  C   UNL     1       1.568   7.127  -8.093  0.00  0.00    +0.341 C 
ATOM      2  O   UNL     1       2.174   8.202  -7.800  0.00  0.00    -0.245 OA
ENDROOT
BRANCH   1   3
ATOM      3  C   UNL     1       0.976   6.408  -6.958  0.00  0.00    +0.076 A 
ATOM      4  C   UNL     1       1.547   6.428  -5.692  0.00  0.00    +0.008 A 
ATOM      5  C   UNL     1       0.692   6.422  -4.605  0.00  0.00    +0.015 A 
ATOM      6  C   UNL     1      -0.598   5.984  -4.795  0.00  0.00    +0.048 A 
ATOM      7  C   UNL     1      -0.931   5.386  -5.982  0.00  0.00    +0.015 A 
ATOM      8  C   UNL     1      -0.178   5.687  -7.107  0.00  0.00    +0.008 A 
BRANCH   6   9
ATOM      9  N   UNL     1      -1.419   5.818  -3.633  0.00  0.00    -0.304 N 
ATOM     10  C   UNL     1      -2.787   5.349  -3.839  0.00  0.00    +0.112 C 
ATOM     11  C   UNL     1      -0.734   5.466  -2.413  0.00  0.00    +0.112 C 
ENDBRANCH   6   9
ENDBRANCH   1   3
BRANCH   1  12
ATOM     12  O   UNL     1       2.141   6.335  -9.079  0.00  0.00    -0.445 OA
BRANCH  12  13
ATOM     13  C   UNL     1       3.374   6.703  -9.638  0.00  0.00    +0.209 C 
BRANCH  13  14
ATOM     14  C   UNL     1       3.942   5.320 -10.348  0.00  0.00    +0.044 C 
BRANCH  14  15
ATOM     15  C   UNL     1       4.124   4.559  -8.890  0.00  0.00    +0.004 C 
ATOM     16  C   UNL     1       5.342   5.139  -8.256  0.00  0.00    +0.000 C 
ENDBRANCH  14  15
BRANCH  14  17
ATOM     17  C   UNL     1       5.496   5.894 -10.339  0.00  0.00    +0.004 C 
BRANCH  17  18
ATOM     18  C   UNL     1       5.401   7.291 -10.862  0.00  0.00    +0.000 C 
BRANCH  18  20
ATOM     19  C   UNL     1       7.746   6.805 -11.079  0.00  0.00    +0.000 C 
ATOM     20  C   UNL     1       6.719   7.902 -11.231  0.00  0.00    +0.000 C 
ENDBRANCH  18  20
ENDBRANCH  17  18
ENDBRANCH  14  17
ENDBRANCH  13  14
ENDBRANCH  12  13
ENDBRANCH   1  12
TORSDOF 9
ENDMDL
