MODEL 1
REMARK VINA RESULT:      -4.4      0.000      0.000
REMARK  Name = 
REMARK  4 active torsions:
REMARK  status: ('A' for Active; 'I' for Inactive)
REMARK    1  A    between atoms: C_2  and  C_3
REMARK    2  A    between atoms: C_2  and  O_8
REMARK    3  A    between atoms: C_3  and  N_4
REMARK    4  A    between atoms: O_8  and  C_9
REMARK                            x       y       z     vdW  Elec       q    Type
REMARK                         _______ _______ _______ _____ _____    ______ ____
ROOT
ATOM      1  C   UNL     1      -1.939   8.150  -4.621  0.00  0.00    +0.054 C 
ATOM      2  C   UNL     1      -1.510   6.557  -4.681  0.00  0.00    +0.225 C 
ENDROOT
BRANCH   2   3
ATOM      3  O   UNL     1      -1.005   6.585  -3.223  0.00  0.00    -0.430 OA
BRANCH   3   4
ATOM      4  C   UNL     1      -1.281   5.408  -2.530  0.00  0.00    +0.441 C 
ATOM      5  O   UNL     1      -0.387   4.797  -1.872  0.00  0.00    -0.223 OA
ATOM      6  N   UNL     1      -2.608   4.901  -2.637  0.00  0.00    -0.048 NA
ENDBRANCH   3   4
ENDBRANCH   2   3
BRANCH   2   7
ATOM      7  C   UNL     1      -0.008   6.917  -5.261  0.00  0.00    +0.153 C 
BRANCH   7   8
ATOM      8  N   UNL     1       0.198   5.749  -6.117  0.00  0.00    +0.313 N 
ATOM      9  C   UNL     1      -1.076   5.279  -6.634  0.00  0.00    +0.171 C 
ATOM     10  C   UNL     1       0.944   6.274  -7.259  0.00  0.00    +0.171 C 
ATOM     11  C   UNL     1       0.955   4.714  -5.468  0.00  0.00    +0.171 C 
ENDBRANCH   7   8
ENDBRANCH   2   7
TORSDOF 4
ENDMDL
MODEL 2
REMARK VINA RESULT:      -4.3      1.291      1.758
REMARK  Name = 
REMARK  4 active torsions:
REMARK  status: ('A' for Active; 'I' for Inactive)
REMARK    1  A    between atoms: C_2  and  C_3
REMARK    2  A    between atoms: C_2  and  O_8
REMARK    3  A    between atoms: C_3  and  N_4
REMARK    4  A    between atoms: O_8  and  C_9
REMARK                            x       y       z     vdW  Elec       q    Type
REMARK                         _______ _______ _______ _____ _____    ______ ____
ROOT
ATOM      1  C   UNL     1      -1.824   5.878  -6.254  0.00  0.00    +0.054 C 
ATOM      2  C   UNL     1      -0.649   5.463  -5.172  0.00  0.00    +0.225 C 
ENDROOT
BRANCH   2   3
ATOM      3  O   UNL     1      -1.401   6.149  -4.013  0.00  0.00    -0.430 OA
BRANCH   3   4
ATOM      4  C   UNL     1      -1.503   5.345  -2.881  0.00  0.00    +0.441 C 
ATOM      5  O   UNL     1      -0.482   5.003  -2.211  0.00  0.00    -0.223 OA
ATOM      6  N   UNL     1      -2.808   4.886  -2.539  0.00  0.00    -0.048 NA
ENDBRANCH   3   4
ENDBRANCH   2   3
BRANCH   2   7
ATOM      7  C   UNL     1       0.216   6.833  -5.489  0.00  0.00    +0.153 C 
BRANCH   7   8
ATOM      8  N   UNL     1       1.564   6.320  -5.249  0.00  0.00    +0.313 N 
ATOM      9  C   UNL     1       1.579   4.873  -5.392  0.00  0.00    +0.171 C 
ATOM     10  C   UNL     1       2.349   6.856  -6.359  0.00  0.00    +0.171 C 
ATOM     11  C   UNL     1       2.111   6.764  -3.997  0.00  0.00    +0.171 C 
ENDBRANCH   7   8
ENDBRANCH   2   7
TORSDOF 4
ENDMDL
MODEL 3
REMARK VINA RESULT:      -4.3      7.717      9.875
REMARK  Name = 
REMARK  4 active torsions:
REMARK  status: ('A' for Active; 'I' for Inactive)
REMARK    1  A    between atoms: C_2  and  C_3
REMARK    2  A    between atoms: C_2  and  O_8
REMARK    3  A    between atoms: C_3  and  N_4
REMARK    4  A    between atoms: O_8  and  C_9
REMARK                            x       y       z     vdW  Elec       q    Type
REMARK                         _______ _______ _______ _____ _____    ______ ____
ROOT
ATOM      1  C   UNL     1       7.232   7.376 -10.563  0.00  0.00    +0.054 C 
ATOM      2  C   UNL     1       6.103   6.205 -10.835  0.00  0.00    +0.225 C 
ENDROOT
BRANCH   2   3
ATOM      3  O   UNL     1       6.108   6.479 -12.353  0.00  0.00    -0.430 OA
BRANCH   3   4
ATOM      4  C   UNL     1       6.214   5.318 -13.115  0.00  0.00    +0.441 C 
ATOM      5  O   UNL     1       5.192   4.675 -13.498  0.00  0.00    -0.223 OA
ATOM      6  N   UNL     1       7.534   4.862 -13.402  0.00  0.00    -0.048 NA
ENDBRANCH   3   4
ENDBRANCH   2   3
BRANCH   2   7
ATOM      7  C   UNL     1       4.857   7.261 -10.597  0.00  0.00    +0.153 C 
BRANCH   7   8
ATOM      8  N   UNL     1       3.818   6.312 -10.200  0.00  0.00    +0.313 N 
ATOM      9  C   UNL     1       4.423   5.062  -9.770  0.00  0.00    +0.171 C 
ATOM     10  C   UNL     1       3.222   6.916  -9.010  0.00  0.00    +0.171 C 
ATOM     11  C   UNL     1       2.817   6.129 -11.214  0.00  0.00    +0.171 C 
ENDBRANCH   7   8
ENDBRANCH   2   7
TORSDOF 4
ENDMDL
MODEL 4
REMARK VINA RESULT:      -4.0      4.894      6.025
REMARK  Name = 
REMARK  4 active torsions:
REMARK  status: ('A' for Active; 'I' for Inactive)
REMARK    1  A    between atoms: C_2  and  C_3
REMARK    2  A    between atoms: C_2  and  O_8
REMARK    3  A    between atoms: C_3  and  N_4
REMARK    4  A    between atoms: O_8  and  C_9
REMARK                            x       y       z     vdW  Elec       q    Type
REMARK                         _______ _______ _______ _____ _____    ______ ____
ROOT
ATOM      1  C   UNL     1       2.775   3.987  -8.462  0.00  0.00    +0.054 C 
ATOM      2  C   UNL     1       2.514   5.500  -9.067  0.00  0.00    +0.225 C 
ENDROOT
BRANCH   2   3
ATOM      3  O   UNL     1       1.923   5.988  -7.729  0.00  0.00    -0.430 OA
BRANCH   3   4
ATOM      4  C   UNL     1       2.392   7.246  -7.355  0.00  0.00    +0.441 C 
ATOM      5  O   UNL     1       2.115   8.287  -8.022  0.00  0.00    -0.223 OA
ATOM      6  N   UNL     1       3.239   7.296  -6.210  0.00  0.00    -0.048 NA
ENDBRANCH   3   4
ENDBRANCH   2   3
BRANCH   2   7
ATOM      7  C   UNL     1       1.021   5.085  -9.633  0.00  0.00    +0.153 C 
BRANCH   7   8
ATOM      8  N   UNL     1       1.080   5.731 -10.944  0.00  0.00    +0.313 N 
ATOM      9  C   UNL     1       0.483   4.869 -11.951  0.00  0.00    +0.171 C 
ATOM     10  C   UNL     1       0.196   6.887 -10.809  0.00  0.00    +0.171 C 
ATOM     11  C   UNL     1       2.406   6.161 -11.291  0.00  0.00    +0.171 C 
ENDBRANCH   7   8
ENDBRANCH   2   7
TORSDOF 4
ENDMDL
MODEL 5
REMARK VINA RESULT:      -3.9      2.634      4.717
REMARK  Name = 
REMARK  4 active torsions:
REMARK  status: ('A' for Active; 'I' for Inactive)
REMARK    1  A    between atoms: C_2  and  C_3
REMARK    2  A    between atoms: C_2  and  O_8
REMARK    3  A    between atoms: C_3  and  N_4
REMARK    4  A    between atoms: O_8  and  C_9
REMARK                            x       y       z     vdW  Elec       q    Type
REMARK                         _______ _______ _______ _____ _____    ______ ____
ROOT
ATOM      1  C   UNL     1       1.198   4.246  -5.943  0.00  0.00    +0.054 C 
ATOM      2  C   UNL     1       0.118   5.419  -6.367  0.00  0.00    +0.225 C 
ENDROOT
BRANCH   2   3
ATOM      3  O   UNL     1       1.226   6.491  -6.423  0.00  0.00    -0.430 OA
BRANCH   3   4
ATOM      4  C   UNL     1       1.458   6.965  -7.712  0.00  0.00    +0.441 C 
ATOM      5  O   UNL     1       1.078   6.325  -8.738  0.00  0.00    -0.223 OA
ATOM      6  N   UNL     1       2.187   8.185  -7.821  0.00  0.00    -0.048 NA
ENDBRANCH   3   4
ENDBRANCH   2   3
BRANCH   2   7
ATOM      7  C   UNL     1      -0.214   5.773  -4.790  0.00  0.00    +0.153 C 
BRANCH   7   8
ATOM      8  N   UNL     1      -1.583   6.262  -4.942  0.00  0.00    +0.313 N 
ATOM      9  C   UNL     1      -2.143   5.792  -6.199  0.00  0.00    +0.171 C 
ATOM     10  C   UNL     1      -2.322   5.586  -3.878  0.00  0.00    +0.171 C 
ATOM     11  C   UNL     1      -1.684   7.687  -4.784  0.00  0.00    +0.171 C 
ENDBRANCH   7   8
ENDBRANCH   2   7
TORSDOF 4
ENDMDL
MODEL 6
REMARK VINA RESULT:      -3.9      3.441      5.238
REMARK  Name = 
REMARK  4 active torsions:
REMARK  status: ('A' for Active; 'I' for Inactive)
REMARK    1  A    between atoms: C_2  and  C_3
REMARK    2  A    between atoms: C_2  and  O_8
REMARK    3  A    between atoms: C_3  and  N_4
REMARK    4  A    between atoms: O_8  and  C_9
REMARK                            x       y       z     vdW  Elec       q    Type
REMARK                         _______ _______ _______ _____ _____    ______ ____
ROOT
ATOM      1  C   UNL     1       4.780   6.719  -4.338  0.00  0.00    +0.054 C 
ATOM      2  C   UNL     1       3.416   6.206  -5.112  0.00  0.00    +0.225 C 
ENDROOT
BRANCH   2   3
ATOM      3  O   UNL     1       3.445   7.413  -6.073  0.00  0.00    -0.430 OA
BRANCH   3   4
ATOM      4  C   UNL     1       2.809   7.157  -7.286  0.00  0.00    +0.441 C 
ATOM      5  O   UNL     1       2.856   6.016  -7.836  0.00  0.00    -0.223 OA
ATOM      6  N   UNL     1       2.141   8.255  -7.900  0.00  0.00    -0.048 NA
ENDBRANCH   3   4
ENDBRANCH   2   3
BRANCH   2   7
ATOM      7  C   UNL     1       2.437   7.009  -4.054  0.00  0.00    +0.153 C 
BRANCH   7   8
ATOM      8  N   UNL     1       1.260   6.143  -4.120  0.00  0.00    +0.313 N 
ATOM      9  C   UNL     1       1.599   4.892  -4.777  0.00  0.00    +0.171 C 
ATOM     10  C   UNL     1       0.980   5.818  -2.723  0.00  0.00    +0.171 C 
ATOM     11  C   UNL     1       0.125   6.796  -4.712  0.00  0.00    +0.171 C 
ENDBRANCH   7   8
ENDBRANCH   2   7
TORSDOF 4
ENDMDL
MODEL 7
REMARK VINA RESULT:      -3.8      2.341      3.101
REMARK  Name = 
REMARK  4 active torsions:
REMARK  status: ('A' for Active; 'I' for Inactive)
REMARK    1  A    between atoms: C_2  and  C_3
REMARK    2  A    between atoms: C_2  and  O_8
REMARK    3  A    between atoms: C_3  and  N_4
REMARK    4  A    between atoms: O_8  and  C_9
REMARK                            x       y       z     vdW  Elec       q    Type
REMARK                         _______ _______ _______ _____ _____    ______ ____
ROOT
ATOM      1  C   UNL     1       0.319   5.077  -5.482  0.00  0.00    +0.054 C 
ATOM      2  C   UNL     1       0.891   5.236  -3.942  0.00  0.00    +0.225 C 
ENDROOT
BRANCH   2   3
ATOM      3  O   UNL     1      -0.391   5.962  -3.485  0.00  0.00    -0.430 OA
BRANCH   3   4
ATOM      4  C   UNL     1      -1.036   5.315  -2.433  0.00  0.00    +0.441 C 
ATOM      5  O   UNL     1      -0.435   5.038  -1.352  0.00  0.00    -0.223 OA
ATOM      6  N   UNL     1      -2.393   4.939  -2.650  0.00  0.00    -0.048 NA
ENDBRANCH   3   4
ENDBRANCH   2   3
BRANCH   2   7
ATOM      7  C   UNL     1       1.634   6.666  -4.297  0.00  0.00    +0.153 C 
BRANCH   7   8
ATOM      8  N   UNL     1       2.976   6.362  -3.801  0.00  0.00    +0.313 N 
ATOM      9  C   UNL     1       3.872   6.105  -4.917  0.00  0.00    +0.171 C 
ATOM     10  C   UNL     1       3.420   7.613  -3.191  0.00  0.00    +0.171 C 
ATOM     11  C   UNL     1       2.981   5.308  -2.825  0.00  0.00    +0.171 C 
ENDBRANCH   7   8
ENDBRANCH   2   7
TORSDOF 4
ENDMDL
MODEL 8
REMARK VINA RESULT:      -3.8      4.360      5.646
REMARK  Name = 
REMARK  4 active torsions:
REMARK  status: ('A' for Active; 'I' for Inactive)
REMARK    1  A    between atoms: C_2  and  C_3
REMARK    2  A    between atoms: C_2  and  O_8
REMARK    3  A    between atoms: C_3  and  N_4
REMARK    4  A    between atoms: O_8  and  C_9
REMARK                            x       y       z     vdW  Elec       q    Type
REMARK                         _______ _______ _______ _____ _____    ______ ____
ROOT
ATOM      1  C   UNL     1       2.113   3.902  -6.519  0.00  0.00    +0.054 C 
ATOM      2  C   UNL     1       2.168   5.530  -6.253  0.00  0.00    +0.225 C 
ENDROOT
BRANCH   2   3
ATOM      3  O   UNL     1       2.598   5.805  -7.708  0.00  0.00    -0.430 OA
BRANCH   3   4
ATOM      4  C   UNL     1       1.888   6.851  -8.295  0.00  0.00    +0.441 C 
ATOM      5  O   UNL     1       1.072   6.654  -9.244  0.00  0.00    -0.223 OA
ATOM      6  N   UNL     1       2.162   8.161  -7.806  0.00  0.00    -0.048 NA
ENDBRANCH   3   4
ENDBRANCH   2   3
BRANCH   2   7
ATOM      7  C   UNL     1       3.738   5.460  -5.749  0.00  0.00    +0.153 C 
BRANCH   7   8
ATOM      8  N   UNL     1       3.620   6.222  -4.507  0.00  0.00    +0.313 N 
ATOM      9  C   UNL     1       4.042   5.407  -3.380  0.00  0.00    +0.171 C 
ATOM     10  C   UNL     1       4.614   7.284  -4.649  0.00  0.00    +0.171 C 
ATOM     11  C   UNL     1       2.312   6.791  -4.328  0.00  0.00    +0.171 C 
ENDBRANCH   7   8
ENDBRANCH   2   7
TORSDOF 4
ENDMDL
MODEL 9
REMARK VINA RESULT:      -3.7      2.059      3.218
REMARK  Name = 
REMARK  4 active torsions:
REMARK  status: ('A' for Active; 'I' for Inactive)
REMARK    1  A    between atoms: C_2  and  C_3
REMARK    2  A    between atoms: C_2  and  O_8
REMARK    3  A    between atoms: C_3  and  N_4
REMARK    4  A    between atoms: O_8  and  C_9
REMARK                            x       y       z     vdW  Elec       q    Type
REMARK                         _______ _______ _______ _____ _____    ______ ____
ROOT
ATOM      1  C   UNL     1      -1.306   5.191  -6.873  0.00  0.00    +0.054 C 
ATOM      2  C   UNL     1       0.193   5.210  -6.183  0.00  0.00    +0.225 C 
ENDROOT
BRANCH   2   3
ATOM      3  O   UNL     1       0.116   6.731  -5.935  0.00  0.00    -0.430 OA
BRANCH   3   4
ATOM      4  C   UNL     1      -0.474   7.053  -4.715  0.00  0.00    +0.441 C 
ATOM      5  O   UNL     1      -0.192   6.426  -3.651  0.00  0.00    -0.223 OA
ATOM      6  N   UNL     1      -1.447   8.094  -4.732  0.00  0.00    -0.048 NA
ENDBRANCH   3   4
ENDBRANCH   2   3
BRANCH   2   7
ATOM      7  C   UNL     1       0.932   5.434  -7.642  0.00  0.00    +0.153 C 
BRANCH   7   8
ATOM      8  N   UNL     1       2.183   4.724  -7.382  0.00  0.00    +0.313 N 
ATOM      9  C   UNL     1       3.189   5.651  -6.890  0.00  0.00    +0.171 C 
ATOM     10  C   UNL     1       1.859   3.832  -6.271  0.00  0.00    +0.171 C 
ATOM     11  C   UNL     1       2.632   3.961  -8.514  0.00  0.00    +0.171 C 
ENDBRANCH   7   8
ENDBRANCH   2   7
TORSDOF 4
ENDMDL
