MODEL 1
REMARK VINA RESULT:      -8.4      0.000      0.000
REMARK  Name = 
REMARK  10 active torsions:
REMARK  status: ('A' for Active; 'I' for Inactive)
REMARK    1  A    between atoms: C_2  and  C_3
REMARK    2  A    between atoms: C_3  and  N_4
REMARK    3  A    between atoms: N_4  and  S_5
REMARK    4  A    between atoms: S_5  and  N_8
REMARK    5  A    between atoms: C_13  and  O_14
REMARK    6  A    between atoms: O_14  and  C_15
REMARK    7  A    between atoms: C_15  and  C_16
REMARK    8  A    between atoms: C_16  and  O_17
REMARK    9  A    between atoms: O_17  and  C_18
REMARK   10  A    between atoms: C_25  and  C_26
REMARK                            x       y       z     vdW  Elec       q    Type
REMARK                         _______ _______ _______ _____ _____    ______ ____
ROOT
ATOM      1  N   UNL     1       3.489   6.690 -10.382  0.00  0.00    -0.065 NA
ATOM      2  C   UNL     1       2.510   5.668 -10.151  0.00  0.00    +0.179 A 
ATOM      3  C   UNL     1       1.776   5.806  -8.980  0.00  0.00    +0.088 A 
ATOM      4  C   UNL     1       0.443   5.467  -8.884  0.00  0.00    +0.229 A 
ATOM      5  N   UNL     1      -0.145   4.990  -9.987  0.00  0.00    -0.189 NA
ATOM      6  C   UNL     1       0.522   4.882 -11.160  0.00  0.00    +0.203 A 
ATOM      7  N   UNL     1       1.816   5.274 -11.247  0.00  0.00    -0.205 NA
ENDROOT
BRANCH   3   8
ATOM      8  C   UNL     1       2.591   5.898  -7.760  0.00  0.00    +0.007 A 
ATOM      9  C   UNL     1       2.632   4.742  -6.991  0.00  0.00    +0.001 A 
ATOM     10  C   UNL     1       3.230   4.787  -5.740  0.00  0.00    +0.007 A 
ATOM     11  C   UNL     1       3.673   6.005  -5.250  0.00  0.00    +0.035 A 
ATOM     12 BR   UNL     1       4.957   6.021  -3.851  0.00  0.00    -0.049 Br
ATOM     13  C   UNL     1       3.188   7.136  -5.857  0.00  0.00    +0.007 A 
ATOM     14  C   UNL     1       2.498   7.093  -7.060  0.00  0.00    +0.001 A 
ENDBRANCH   3   8
BRANCH   1  15
ATOM     15  S   UNL     1       5.153   6.390 -10.611  0.00  0.00    +0.148 S 
ATOM     16  O   UNL     1       5.814   5.835  -9.392  0.00  0.00    -0.135 OA
ATOM     17  O   UNL     1       5.813   7.722 -10.896  0.00  0.00    -0.135 OA
BRANCH  15  18
ATOM     18  N   UNL     1       5.490   5.347 -11.927  0.00  0.00    -0.062 NA
BRANCH  18  19
ATOM     19  C   UNL     1       5.792   6.078 -13.155  0.00  0.00    +0.117 C 
BRANCH  19  21
ATOM     20  C   UNL     1       8.201   5.625 -12.623  0.00  0.00    +0.002 C 
ATOM     21  C   UNL     1       7.102   5.496 -13.669  0.00  0.00    +0.021 C 
ENDBRANCH  19  21
ENDBRANCH  18  19
ENDBRANCH  15  18
ENDBRANCH   1  15
BRANCH   4  22
ATOM     22  O   UNL     1      -0.270   5.850  -7.743  0.00  0.00    -0.456 OA
BRANCH  22  23
ATOM     23  C   UNL     1      -1.095   4.981  -7.018  0.00  0.00    +0.254 C 
BRANCH  23  24
ATOM     24  C   UNL     1      -2.153   5.823  -6.328  0.00  0.00    +0.256 C 
BRANCH  24  25
ATOM     25  O   UNL     1      -2.666   5.140  -5.212  0.00  0.00    -0.443 OA
BRANCH  25  26
ATOM     26  C   UNL     1      -2.772   5.766  -3.990  0.00  0.00    +0.320 A 
ATOM     27  N   UNL     1      -2.501   7.067  -3.884  0.00  0.00    -0.192 NA
ATOM     28  C   UNL     1      -2.162   7.659  -2.719  0.00  0.00    +0.112 A 
ATOM     29  C   UNL     1      -2.034   6.852  -1.604  0.00  0.00    +0.073 A 
ATOM     30 BR   UNL     1      -1.881   7.584   0.156  0.00  0.00    -0.046 Br
ATOM     31  C   UNL     1      -2.194   5.479  -1.724  0.00  0.00    +0.112 A 
ATOM     32  N   UNL     1      -2.667   4.985  -2.894  0.00  0.00    -0.192 NA
ENDBRANCH  25  26
ENDBRANCH  24  25
ENDBRANCH  23  24
ENDBRANCH  22  23
ENDBRANCH   4  22
TORSDOF 10
ENDMDL
MODEL 2
REMARK VINA RESULT:      -8.2      4.303      8.981
REMARK  Name = 
REMARK  10 active torsions:
REMARK  status: ('A' for Active; 'I' for Inactive)
REMARK    1  A    between atoms: C_2  and  C_3
REMARK    2  A    between atoms: C_3  and  N_4
REMARK    3  A    between atoms: N_4  and  S_5
REMARK    4  A    between atoms: S_5  and  N_8
REMARK    5  A    between atoms: C_13  and  O_14
REMARK    6  A    between atoms: O_14  and  C_15
REMARK    7  A    between atoms: C_15  and  C_16
REMARK    8  A    between atoms: C_16  and  O_17
REMARK    9  A    between atoms: O_17  and  C_18
REMARK   10  A    between atoms: C_25  and  C_26
REMARK                            x       y       z     vdW  Elec       q    Type
REMARK                         _______ _______ _______ _____ _____    ______ ____
ROOT
ATOM      1  N   UNL     1       2.129   6.574  -2.142  0.00  0.00    -0.065 NA
ATOM      2  C   UNL     1       2.919   6.105  -3.243  0.00  0.00    +0.179 A 
ATOM      3  C   UNL     1       2.516   6.557  -4.494  0.00  0.00    +0.088 A 
ATOM      4  C   UNL     1       3.403   6.859  -5.506  0.00  0.00    +0.229 A 
ATOM      5  N   UNL     1       4.705   6.703  -5.240  0.00  0.00    -0.189 NA
ATOM      6  C   UNL     1       5.142   6.310  -4.021  0.00  0.00    +0.203 A 
ATOM      7  N   UNL     1       4.256   6.073  -3.023  0.00  0.00    -0.205 NA
ENDROOT
BRANCH   3   8
ATOM      8  C   UNL     1       1.114   6.265  -4.822  0.00  0.00    +0.007 A 
ATOM      9  C   UNL     1       0.920   5.188  -5.679  0.00  0.00    +0.001 A 
ATOM     10  C   UNL     1      -0.350   4.947  -6.181  0.00  0.00    +0.007 A 
ATOM     11  C   UNL     1      -1.366   5.846  -5.898  0.00  0.00    +0.035 A 
ATOM     12 BR   UNL     1      -3.170   5.279  -6.078  0.00  0.00    -0.049 Br
ATOM     13  C   UNL     1      -0.995   7.087  -5.447  0.00  0.00    +0.007 A 
ATOM     14  C   UNL     1       0.300   7.369  -5.037  0.00  0.00    +0.001 A 
ENDBRANCH   3   8
BRANCH   1  15
ATOM     15  S   UNL     1       1.334   5.553  -1.029  0.00  0.00    +0.148 S 
ATOM     16  O   UNL     1       1.064   6.223   0.280  0.00  0.00    -0.135 OA
ATOM     17  O   UNL     1       2.263   4.394  -0.741  0.00  0.00    -0.135 OA
BRANCH  15  18
ATOM     18  N   UNL     1      -0.140   4.909  -1.617  0.00  0.00    -0.062 NA
BRANCH  18  19
ATOM     19  C   UNL     1      -1.290   5.738  -1.265  0.00  0.00    +0.117 C 
BRANCH  19  21
ATOM     20  C   UNL     1      -3.271   6.662  -2.496  0.00  0.00    +0.002 C 
ATOM     21  C   UNL     1      -2.334   5.471  -2.341  0.00  0.00    +0.021 C 
ENDBRANCH  19  21
ENDBRANCH  18  19
ENDBRANCH  15  18
ENDBRANCH   1  15
BRANCH   4  22
ATOM     22  O   UNL     1       2.928   7.519  -6.645  0.00  0.00    -0.456 OA
BRANCH  22  23
ATOM     23  C   UNL     1       3.108   7.039  -7.948  0.00  0.00    +0.254 C 
BRANCH  23  24
ATOM     24  C   UNL     1       1.760   7.087  -8.643  0.00  0.00    +0.256 C 
BRANCH  24  25
ATOM     25  O   UNL     1       1.559   5.917  -9.396  0.00  0.00    -0.443 OA
BRANCH  25  26
ATOM     26  C   UNL     1       1.135   5.984 -10.704  0.00  0.00    +0.320 A 
ATOM     27  N   UNL     1       1.945   5.587 -11.686  0.00  0.00    -0.192 NA
ATOM     28  C   UNL     1       1.811   5.996 -12.966  0.00  0.00    +0.112 A 
ATOM     29  C   UNL     1       0.820   6.919 -13.243  0.00  0.00    +0.073 A 
ATOM     30 BR   UNL     1       0.308   7.337 -15.037  0.00  0.00    -0.046 Br
ATOM     31  C   UNL     1       0.048   7.433 -12.211  0.00  0.00    +0.112 A 
ATOM     32  N   UNL     1       0.155   6.869 -10.983  0.00  0.00    -0.192 NA
ENDBRANCH  25  26
ENDBRANCH  24  25
ENDBRANCH  23  24
ENDBRANCH  22  23
ENDBRANCH   4  22
TORSDOF 10
ENDMDL
MODEL 3
REMARK VINA RESULT:      -8.2      4.098      9.500
REMARK  Name = 
REMARK  10 active torsions:
REMARK  status: ('A' for Active; 'I' for Inactive)
REMARK    1  A    between atoms: C_2  and  C_3
REMARK    2  A    between atoms: C_3  and  N_4
REMARK    3  A    between atoms: N_4  and  S_5
REMARK    4  A    between atoms: S_5  and  N_8
REMARK    5  A    between atoms: C_13  and  O_14
REMARK    6  A    between atoms: O_14  and  C_15
REMARK    7  A    between atoms: C_15  and  C_16
REMARK    8  A    between atoms: C_16  and  O_17
REMARK    9  A    between atoms: O_17  and  C_18
REMARK   10  A    between atoms: C_25  and  C_26
REMARK                            x       y       z     vdW  Elec       q    Type
REMARK                         _______ _______ _______ _____ _____    ______ ____
ROOT
ATOM      1  N   UNL     1       2.068   6.557  -2.122  0.00  0.00    -0.065 NA
ATOM      2  C   UNL     1       2.857   6.088  -3.223  0.00  0.00    +0.179 A 
ATOM      3  C   UNL     1       2.444   6.524  -4.476  0.00  0.00    +0.088 A 
ATOM      4  C   UNL     1       3.323   6.827  -5.495  0.00  0.00    +0.229 A 
ATOM      5  N   UNL     1       4.628   6.688  -5.234  0.00  0.00    -0.189 NA
ATOM      6  C   UNL     1       5.075   6.310  -4.013  0.00  0.00    +0.203 A 
ATOM      7  N   UNL     1       4.196   6.072  -3.009  0.00  0.00    -0.205 NA
ENDROOT
BRANCH   3   8
ATOM      8  C   UNL     1       1.044   6.215  -4.794  0.00  0.00    +0.007 A 
ATOM      9  C   UNL     1       0.860   5.168  -5.689  0.00  0.00    +0.001 A 
ATOM     10  C   UNL     1      -0.412   4.919  -6.181  0.00  0.00    +0.007 A 
ATOM     11  C   UNL     1      -1.443   5.784  -5.850  0.00  0.00    +0.035 A 
ATOM     12 BR   UNL     1      -3.237   5.185  -6.026  0.00  0.00    -0.049 Br
ATOM     13  C   UNL     1      -1.091   7.015  -5.357  0.00  0.00    +0.007 A 
ATOM     14  C   UNL     1       0.204   7.309  -4.956  0.00  0.00    +0.001 A 
ENDBRANCH   3   8
BRANCH   1  15
ATOM     15  S   UNL     1       1.290   5.538  -0.997  0.00  0.00    +0.148 S 
ATOM     16  O   UNL     1       1.065   6.199   0.325  0.00  0.00    -0.135 OA
ATOM     17  O   UNL     1       2.209   4.363  -0.745  0.00  0.00    -0.135 OA
BRANCH  15  18
ATOM     18  N   UNL     1      -0.210   4.921  -1.549  0.00  0.00    -0.062 NA
BRANCH  18  19
ATOM     19  C   UNL     1      -1.319   5.834  -1.288  0.00  0.00    +0.117 C 
BRANCH  19  21
ATOM     20  C   UNL     1      -3.423   6.553  -2.449  0.00  0.00    +0.002 C 
ATOM     21  C   UNL     1      -2.430   5.417  -2.242  0.00  0.00    +0.021 C 
ENDBRANCH  19  21
ENDBRANCH  18  19
ENDBRANCH  15  18
ENDBRANCH   1  15
BRANCH   4  22
ATOM     22  O   UNL     1       2.836   7.472  -6.636  0.00  0.00    -0.456 OA
BRANCH  22  23
ATOM     23  C   UNL     1       3.219   7.132  -7.940  0.00  0.00    +0.254 C 
BRANCH  23  24
ATOM     24  C   UNL     1       3.298   5.619  -8.012  0.00  0.00    +0.256 C 
BRANCH  24  25
ATOM     25  O   UNL     1       4.577   5.218  -8.437  0.00  0.00    -0.443 OA
BRANCH  25  26
ATOM     26  C   UNL     1       5.069   5.612  -9.661  0.00  0.00    +0.320 A 
ATOM     27  N   UNL     1       4.400   5.310 -10.774  0.00  0.00    -0.192 NA
ATOM     28  C   UNL     1       4.977   5.263 -11.994  0.00  0.00    +0.112 A 
ATOM     29  C   UNL     1       6.341   5.479 -12.065  0.00  0.00    +0.073 A 
ATOM     30 BR   UNL     1       7.228   5.761 -13.736  0.00  0.00    -0.046 Br
ATOM     31  C   UNL     1       7.071   5.673 -10.901  0.00  0.00    +0.112 A 
ATOM     32  N   UNL     1       6.397   5.843  -9.738  0.00  0.00    -0.192 NA
ENDBRANCH  25  26
ENDBRANCH  24  25
ENDBRANCH  23  24
ENDBRANCH  22  23
ENDBRANCH   4  22
TORSDOF 10
ENDMDL
MODEL 4
REMARK VINA RESULT:      -8.1      3.038      9.091
REMARK  Name = 
REMARK  10 active torsions:
REMARK  status: ('A' for Active; 'I' for Inactive)
REMARK    1  A    between atoms: C_2  and  C_3
REMARK    2  A    between atoms: C_3  and  N_4
REMARK    3  A    between atoms: N_4  and  S_5
REMARK    4  A    between atoms: S_5  and  N_8
REMARK    5  A    between atoms: C_13  and  O_14
REMARK    6  A    between atoms: O_14  and  C_15
REMARK    7  A    between atoms: C_15  and  C_16
REMARK    8  A    between atoms: C_16  and  O_17
REMARK    9  A    between atoms: O_17  and  C_18
REMARK   10  A    between atoms: C_25  and  C_26
REMARK                            x       y       z     vdW  Elec       q    Type
REMARK                         _______ _______ _______ _____ _____    ______ ____
ROOT
ATOM      1  N   UNL     1      -0.470   5.123  -6.301  0.00  0.00    -0.065 NA
ATOM      2  C   UNL     1       0.297   5.595  -7.417  0.00  0.00    +0.179 A 
ATOM      3  C   UNL     1       1.644   5.251  -7.397  0.00  0.00    +0.088 A 
ATOM      4  C   UNL     1       2.358   4.944  -8.536  0.00  0.00    +0.229 A 
ATOM      5  N   UNL     1       1.697   4.983  -9.698  0.00  0.00    -0.189 NA
ATOM      6  C   UNL     1       0.375   5.268  -9.757  0.00  0.00    +0.203 A 
ATOM      7  N   UNL     1      -0.321   5.512  -8.620  0.00  0.00    -0.205 NA
ENDROOT
BRANCH   3   8
ATOM      8  C   UNL     1       2.358   5.668  -6.183  0.00  0.00    +0.007 A 
ATOM      9  C   UNL     1       3.109   6.831  -6.310  0.00  0.00    +0.001 A 
ATOM     10  C   UNL     1       3.952   7.204  -5.275  0.00  0.00    +0.007 A 
ATOM     11  C   UNL     1       4.102   6.355  -4.190  0.00  0.00    +0.035 A 
ATOM     12 BR   UNL     1       4.772   7.059  -2.558  0.00  0.00    -0.049 Br
ATOM     13  C   UNL     1       3.697   5.055  -4.354  0.00  0.00    +0.007 A 
ATOM     14  C   UNL     1       2.938   4.647  -5.441  0.00  0.00    +0.001 A 
ENDBRANCH   3   8
BRANCH   1  15
ATOM     15  S   UNL     1      -1.365   6.132  -5.257  0.00  0.00    +0.148 S 
ATOM     16  O   UNL     1      -2.606   6.670  -5.895  0.00  0.00    -0.135 OA
ATOM     17  O   UNL     1      -0.493   7.325  -4.930  0.00  0.00    -0.135 OA
BRANCH  15  18
ATOM     18  N   UNL     1      -1.802   5.383  -3.781  0.00  0.00    -0.062 NA
BRANCH  18  19
ATOM     19  C   UNL     1      -3.001   5.971  -3.190  0.00  0.00    +0.117 C 
BRANCH  19  21
ATOM     20  C   UNL     1      -1.259   5.718  -1.403  0.00  0.00    +0.002 C 
ATOM     21  C   UNL     1      -2.666   6.206  -1.724  0.00  0.00    +0.021 C 
ENDBRANCH  19  21
ENDBRANCH  18  19
ENDBRANCH  15  18
ENDBRANCH   1  15
BRANCH   4  22
ATOM     22  O   UNL     1       3.636   4.391  -8.402  0.00  0.00    -0.456 OA
BRANCH  22  23
ATOM     23  C   UNL     1       4.680   4.629  -9.304  0.00  0.00    +0.254 C 
BRANCH  23  24
ATOM     24  C   UNL     1       5.665   5.563  -8.627  0.00  0.00    +0.256 C 
BRANCH  24  25
ATOM     25  O   UNL     1       6.922   5.482  -9.251  0.00  0.00    -0.443 OA
BRANCH  25  26
ATOM     26  C   UNL     1       7.120   6.003 -10.510  0.00  0.00    +0.320 A 
ATOM     27  N   UNL     1       6.548   7.160 -10.847  0.00  0.00    -0.192 NA
ATOM     28  C   UNL     1       6.324   7.529 -12.126  0.00  0.00    +0.112 A 
ATOM     29  C   UNL     1       6.652   6.625 -13.120  0.00  0.00    +0.073 A 
ATOM     30 BR   UNL     1       6.693   7.129 -14.964  0.00  0.00    -0.046 Br
ATOM     31  C   UNL     1       7.135   5.370 -12.778  0.00  0.00    +0.112 A 
ATOM     32  N   UNL     1       7.459   5.134 -11.484  0.00  0.00    -0.192 NA
ENDBRANCH  25  26
ENDBRANCH  24  25
ENDBRANCH  23  24
ENDBRANCH  22  23
ENDBRANCH   4  22
TORSDOF 10
ENDMDL
MODEL 5
REMARK VINA RESULT:      -8.0      3.415      8.596
REMARK  Name = 
REMARK  10 active torsions:
REMARK  status: ('A' for Active; 'I' for Inactive)
REMARK    1  A    between atoms: C_2  and  C_3
REMARK    2  A    between atoms: C_3  and  N_4
REMARK    3  A    between atoms: N_4  and  S_5
REMARK    4  A    between atoms: S_5  and  N_8
REMARK    5  A    between atoms: C_13  and  O_14
REMARK    6  A    between atoms: O_14  and  C_15
REMARK    7  A    between atoms: C_15  and  C_16
REMARK    8  A    between atoms: C_16  and  O_17
REMARK    9  A    between atoms: O_17  and  C_18
REMARK   10  A    between atoms: C_25  and  C_26
REMARK                            x       y       z     vdW  Elec       q    Type
REMARK                         _______ _______ _______ _____ _____    ______ ____
ROOT
ATOM      1  N   UNL     1      -0.608   5.104  -3.532  0.00  0.00    -0.065 NA
ATOM      2  C   UNL     1      -0.694   5.680  -4.842  0.00  0.00    +0.179 A 
ATOM      3  C   UNL     1       0.375   5.401  -5.684  0.00  0.00    +0.088 A 
ATOM      4  C   UNL     1       0.232   5.199  -7.040  0.00  0.00    +0.229 A 
ATOM      5  N   UNL     1      -1.006   5.279  -7.539  0.00  0.00    -0.189 NA
ATOM      6  C   UNL     1      -2.081   5.503  -6.748  0.00  0.00    +0.203 A 
ATOM      7  N   UNL     1      -1.925   5.642  -5.409  0.00  0.00    -0.205 NA
ENDROOT
BRANCH   3   8
ATOM      8  C   UNL     1       1.688   5.776  -5.140  0.00  0.00    +0.007 A 
ATOM      9  C   UNL     1       2.214   6.964  -5.635  0.00  0.00    +0.001 A 
ATOM     10  C   UNL     1       3.518   7.308  -5.314  0.00  0.00    +0.007 A 
ATOM     11  C   UNL     1       4.293   6.409  -4.599  0.00  0.00    +0.035 A 
ATOM     12 BR   UNL     1       5.830   7.048  -3.683  0.00  0.00    -0.049 Br
ATOM     13  C   UNL     1       3.862   5.108  -4.554  0.00  0.00    +0.007 A 
ATOM     14  C   UNL     1       2.591   4.735  -4.968  0.00  0.00    +0.001 A 
ENDBRANCH   3   8
BRANCH   1  15
ATOM     15  S   UNL     1      -0.665   6.003  -2.083  0.00  0.00    +0.148 S 
ATOM     16  O   UNL     1      -1.515   5.359  -1.035  0.00  0.00    -0.135 OA
ATOM     17  O   UNL     1      -1.308   7.334  -2.406  0.00  0.00    -0.135 OA
BRANCH  15  18
ATOM     18  N   UNL     1       0.876   6.317  -1.405  0.00  0.00    -0.062 NA
BRANCH  18  19
ATOM     19  C   UNL     1       1.678   5.105  -1.259  0.00  0.00    +0.117 C 
BRANCH  19  21
ATOM     20  C   UNL     1       3.180   7.100  -1.020  0.00  0.00    +0.002 C 
ATOM     21  C   UNL     1       3.114   5.580  -1.082  0.00  0.00    +0.021 C 
ENDBRANCH  19  21
ENDBRANCH  18  19
ENDBRANCH  15  18
ENDBRANCH   1  15
BRANCH   4  22
ATOM     22  O   UNL     1       1.319   4.701  -7.766  0.00  0.00    -0.456 OA
BRANCH  22  23
ATOM     23  C   UNL     1       1.517   4.950  -9.130  0.00  0.00    +0.254 C 
BRANCH  23  24
ATOM     24  C   UNL     1       2.527   6.076  -9.248  0.00  0.00    +0.256 C 
BRANCH  24  25
ATOM     25  O   UNL     1       3.744   5.703  -8.651  0.00  0.00    -0.443 OA
BRANCH  25  26
ATOM     26  C   UNL     1       4.847   5.412  -9.421  0.00  0.00    +0.320 A 
ATOM     27  N   UNL     1       6.070   5.530  -8.900  0.00  0.00    -0.192 NA
ATOM     28  C   UNL     1       7.180   5.687  -9.651  0.00  0.00    +0.112 A 
ATOM     29  C   UNL     1       7.018   5.792 -11.020  0.00  0.00    +0.073 A 
ATOM     30 BR   UNL     1       8.505   5.693 -12.219  0.00  0.00    -0.046 Br
ATOM     31  C   UNL     1       5.743   5.794 -11.566  0.00  0.00    +0.112 A 
ATOM     32  N   UNL     1       4.696   5.494 -10.759  0.00  0.00    -0.192 NA
ENDBRANCH  25  26
ENDBRANCH  24  25
ENDBRANCH  23  24
ENDBRANCH  22  23
ENDBRANCH   4  22
TORSDOF 10
ENDMDL
MODEL 6
REMARK VINA RESULT:      -8.0      3.688      8.216
REMARK  Name = 
REMARK  10 active torsions:
REMARK  status: ('A' for Active; 'I' for Inactive)
REMARK    1  A    between atoms: C_2  and  C_3
REMARK    2  A    between atoms: C_3  and  N_4
REMARK    3  A    between atoms: N_4  and  S_5
REMARK    4  A    between atoms: S_5  and  N_8
REMARK    5  A    between atoms: C_13  and  O_14
REMARK    6  A    between atoms: O_14  and  C_15
REMARK    7  A    between atoms: C_15  and  C_16
REMARK    8  A    between atoms: C_16  and  O_17
REMARK    9  A    between atoms: O_17  and  C_18
REMARK   10  A    between atoms: C_25  and  C_26
REMARK                            x       y       z     vdW  Elec       q    Type
REMARK                         _______ _______ _______ _____ _____    ______ ____
ROOT
ATOM      1  N   UNL     1       3.743   6.974  -5.821  0.00  0.00    -0.065 NA
ATOM      2  C   UNL     1       3.636   5.739  -6.541  0.00  0.00    +0.179 A 
ATOM      3  C   UNL     1       2.447   5.561  -7.238  0.00  0.00    +0.088 A 
ATOM      4  C   UNL     1       2.379   4.924  -8.459  0.00  0.00    +0.229 A 
ATOM      5  N   UNL     1       3.528   4.470  -8.973  0.00  0.00    -0.189 NA
ATOM      6  C   UNL     1       4.713   4.662  -8.349  0.00  0.00    +0.203 A 
ATOM      7  N   UNL     1       4.765   5.341  -7.177  0.00  0.00    -0.205 NA
ENDROOT
BRANCH   3   8
ATOM      8  C   UNL     1       1.237   5.679  -6.413  0.00  0.00    +0.007 A 
ATOM      9  C   UNL     1       0.759   6.974  -6.249  0.00  0.00    +0.001 A 
ATOM     10  C   UNL     1      -0.271   7.202  -5.349  0.00  0.00    +0.007 A 
ATOM     11  C   UNL     1      -0.721   6.154  -4.563  0.00  0.00    +0.035 A 
ATOM     12 BR   UNL     1      -2.439   6.279  -3.762  0.00  0.00    -0.049 Br
ATOM     13  C   UNL     1       0.094   5.056  -4.458  0.00  0.00    +0.007 A 
ATOM     14  C   UNL     1       1.189   4.866  -5.288  0.00  0.00    +0.001 A 
ENDBRANCH   3   8
BRANCH   1  15
ATOM     15  S   UNL     1       4.031   7.084  -4.143  0.00  0.00    +0.148 S 
ATOM     16  O   UNL     1       2.840   7.568  -3.381  0.00  0.00    -0.135 OA
ATOM     17  O   UNL     1       5.123   8.112  -3.942  0.00  0.00    -0.135 OA
BRANCH  15  18
ATOM     18  N   UNL     1       4.559   5.616  -3.437  0.00  0.00    -0.062 NA
BRANCH  18  19
ATOM     19  C   UNL     1       3.546   5.018  -2.570  0.00  0.00    +0.117 C 
BRANCH  19  21
ATOM     20  C   UNL     1       4.392   6.113  -0.478  0.00  0.00    +0.002 C 
ATOM     21  C   UNL     1       4.230   4.798  -1.228  0.00  0.00    +0.021 C 
ENDBRANCH  19  21
ENDBRANCH  18  19
ENDBRANCH  15  18
ENDBRANCH   1  15
BRANCH   4  22
ATOM     22  O   UNL     1       1.188   4.993  -9.190  0.00  0.00    -0.456 OA
BRANCH  22  23
ATOM     23  C   UNL     1       0.887   6.028 -10.084  0.00  0.00    +0.254 C 
BRANCH  23  24
ATOM     24  C   UNL     1       1.198   5.529 -11.483  0.00  0.00    +0.256 C 
BRANCH  24  25
ATOM     25  O   UNL     1       2.170   6.346 -12.086  0.00  0.00    -0.443 OA
BRANCH  25  26
ATOM     26  C   UNL     1       3.508   6.035 -11.996  0.00  0.00    +0.320 A 
ATOM     27  N   UNL     1       4.316   6.788 -11.248  0.00  0.00    -0.192 NA
ATOM     28  C   UNL     1       5.653   6.838 -11.425  0.00  0.00    +0.112 A 
ATOM     29  C   UNL     1       6.187   6.117 -12.477  0.00  0.00    +0.073 A 
ATOM     30 BR   UNL     1       8.071   5.836 -12.651  0.00  0.00    -0.046 Br
ATOM     31  C   UNL     1       5.346   5.427 -13.338  0.00  0.00    +0.112 A 
ATOM     32  N   UNL     1       4.037   5.316 -13.009  0.00  0.00    -0.192 NA
ENDBRANCH  25  26
ENDBRANCH  24  25
ENDBRANCH  23  24
ENDBRANCH  22  23
ENDBRANCH   4  22
TORSDOF 10
ENDMDL
MODEL 7
REMARK VINA RESULT:      -7.9      3.120      4.120
REMARK  Name = 
REMARK  10 active torsions:
REMARK  status: ('A' for Active; 'I' for Inactive)
REMARK    1  A    between atoms: C_2  and  C_3
REMARK    2  A    between atoms: C_3  and  N_4
REMARK    3  A    between atoms: N_4  and  S_5
REMARK    4  A    between atoms: S_5  and  N_8
REMARK    5  A    between atoms: C_13  and  O_14
REMARK    6  A    between atoms: O_14  and  C_15
REMARK    7  A    between atoms: C_15  and  C_16
REMARK    8  A    between atoms: C_16  and  O_17
REMARK    9  A    between atoms: O_17  and  C_18
REMARK   10  A    between atoms: C_25  and  C_26
REMARK                            x       y       z     vdW  Elec       q    Type
REMARK                         _______ _______ _______ _____ _____    ______ ____
ROOT
ATOM      1  N   UNL     1       1.612   6.480 -11.936  0.00  0.00    -0.065 NA
ATOM      2  C   UNL     1       1.600   5.796 -10.676  0.00  0.00    +0.179 A 
ATOM      3  C   UNL     1       2.547   6.231  -9.757  0.00  0.00    +0.088 A 
ATOM      4  C   UNL     1       2.307   6.289  -8.400  0.00  0.00    +0.229 A 
ATOM      5  N   UNL     1       1.097   5.904  -7.979  0.00  0.00    -0.189 NA
ATOM      6  C   UNL     1       0.131   5.517  -8.844  0.00  0.00    +0.203 A 
ATOM      7  N   UNL     1       0.369   5.522 -10.178  0.00  0.00    -0.205 NA
ENDROOT
BRANCH   3   8
ATOM      8  C   UNL     1       3.931   6.193 -10.248  0.00  0.00    +0.007 A 
ATOM      9  C   UNL     1       4.761   5.286  -9.602  0.00  0.00    +0.001 A 
ATOM     10  C   UNL     1       6.120   5.302  -9.877  0.00  0.00    +0.007 A 
ATOM     11  C   UNL     1       6.626   6.290 -10.706  0.00  0.00    +0.035 A 
ATOM     12 BR   UNL     1       8.315   6.020 -11.533  0.00  0.00    -0.049 Br
ATOM     13  C   UNL     1       5.835   7.390 -10.922  0.00  0.00    +0.007 A 
ATOM     14  C   UNL     1       4.497   7.423 -10.558  0.00  0.00    +0.001 A 
ENDBRANCH   3   8
BRANCH   1  15
ATOM     15  S   UNL     1       1.812   5.708 -13.444  0.00  0.00    +0.148 S 
ATOM     16  O   UNL     1       1.351   6.548 -14.591  0.00  0.00    -0.135 OA
ATOM     17  O   UNL     1       0.941   4.471 -13.434  0.00  0.00    -0.135 OA
BRANCH  15  18
ATOM     18  N   UNL     1       3.422   5.213 -13.755  0.00  0.00    -0.062 NA
BRANCH  18  19
ATOM     19  C   UNL     1       4.152   6.174 -14.578  0.00  0.00    +0.117 C 
BRANCH  19  21
ATOM     20  C   UNL     1       6.457   7.150 -14.737  0.00  0.00    +0.002 C 
ATOM     21  C   UNL     1       5.622   5.983 -14.229  0.00  0.00    +0.021 C 
ENDBRANCH  19  21
ENDBRANCH  18  19
ENDBRANCH  15  18
ENDBRANCH   1  15
BRANCH   4  22
ATOM     22  O   UNL     1       3.228   6.950  -7.580  0.00  0.00    -0.456 OA
BRANCH  22  23
ATOM     23  C   UNL     1       3.790   6.379  -6.431  0.00  0.00    +0.254 C 
BRANCH  23  24
ATOM     24  C   UNL     1       3.102   6.999  -5.229  0.00  0.00    +0.256 C 
BRANCH  24  25
ATOM     25  O   UNL     1       2.428   6.011  -4.491  0.00  0.00    -0.443 OA
BRANCH  25  26
ATOM     26  C   UNL     1       1.198   6.268  -3.927  0.00  0.00    +0.320 A 
ATOM     27  N   UNL     1       0.766   5.522  -2.910  0.00  0.00    -0.192 NA
ATOM     28  C   UNL     1      -0.538   5.404  -2.581  0.00  0.00    +0.112 A 
ATOM     29  C   UNL     1      -1.461   6.044  -3.387  0.00  0.00    +0.073 A 
ATOM     30 BR   UNL     1      -3.292   6.232  -2.867  0.00  0.00    -0.046 Br
ATOM     31  C   UNL     1      -1.035   6.723  -4.520  0.00  0.00    +0.112 A 
ATOM     32  N   UNL     1       0.295   6.908  -4.699  0.00  0.00    -0.192 NA
ENDBRANCH  25  26
ENDBRANCH  24  25
ENDBRANCH  23  24
ENDBRANCH  22  23
ENDBRANCH   4  22
TORSDOF 10
ENDMDL
MODEL 8
REMARK VINA RESULT:      -7.8      4.409      9.471
REMARK  Name = 
REMARK  10 active torsions:
REMARK  status: ('A' for Active; 'I' for Inactive)
REMARK    1  A    between atoms: C_2  and  C_3
REMARK    2  A    between atoms: C_3  and  N_4
REMARK    3  A    between atoms: N_4  and  S_5
REMARK    4  A    between atoms: S_5  and  N_8
REMARK    5  A    between atoms: C_13  and  O_14
REMARK    6  A    between atoms: O_14  and  C_15
REMARK    7  A    between atoms: C_15  and  C_16
REMARK    8  A    between atoms: C_16  and  O_17
REMARK    9  A    between atoms: O_17  and  C_18
REMARK   10  A    between atoms: C_25  and  C_26
REMARK                            x       y       z     vdW  Elec       q    Type
REMARK                         _______ _______ _______ _____ _____    ______ ____
ROOT
ATOM      1  N   UNL     1       3.212   7.204  -1.993  0.00  0.00    -0.065 NA
ATOM      2  C   UNL     1       3.311   6.020  -2.795  0.00  0.00    +0.179 A 
ATOM      3  C   UNL     1       2.497   5.998  -3.922  0.00  0.00    +0.088 A 
ATOM      4  C   UNL     1       2.882   5.427  -5.117  0.00  0.00    +0.229 A 
ATOM      5  N   UNL     1       4.101   4.878  -5.164  0.00  0.00    -0.189 NA
ATOM      6  C   UNL     1       4.942   4.917  -4.104  0.00  0.00    +0.203 A 
ATOM      7  N   UNL     1       4.566   5.535  -2.958  0.00  0.00    -0.205 NA
ENDROOT
BRANCH   3   8
ATOM      8  C   UNL     1       1.070   6.206  -3.643  0.00  0.00    +0.007 A 
ATOM      9  C   UNL     1       0.394   5.089  -3.165  0.00  0.00    +0.001 A 
ATOM     10  C   UNL     1      -0.985   5.140  -3.040  0.00  0.00    +0.007 A 
ATOM     11  C   UNL     1      -1.661   6.261  -3.493  0.00  0.00    +0.035 A 
ATOM     12 BR   UNL     1      -3.415   6.601  -2.846  0.00  0.00    -0.049 Br
ATOM     13  C   UNL     1      -0.986   7.094  -4.349  0.00  0.00    +0.007 A 
ATOM     14  C   UNL     1       0.381   6.987  -4.561  0.00  0.00    +0.001 A 
ENDBRANCH   3   8
BRANCH   1  15
ATOM     15  S   UNL     1       2.802   7.209  -0.337  0.00  0.00    +0.148 S 
ATOM     16  O   UNL     1       2.713   8.588   0.233  0.00  0.00    -0.135 OA
ATOM     17  O   UNL     1       3.918   6.504   0.403  0.00  0.00    -0.135 OA
BRANCH  15  18
ATOM     18  N   UNL     1       1.341   6.388   0.013  0.00  0.00    -0.062 NA
BRANCH  18  19
ATOM     19  C   UNL     1       0.389   7.227   0.736  0.00  0.00    +0.117 C 
BRANCH  19  21
ATOM     20  C   UNL     1      -1.991   7.979   0.486  0.00  0.00    +0.002 C 
ATOM     21  C   UNL     1      -0.979   6.889   0.158  0.00  0.00    +0.021 C 
ENDBRANCH  19  21
ENDBRANCH  18  19
ENDBRANCH  15  18
ENDBRANCH   1  15
BRANCH   4  22
ATOM     22  O   UNL     1       2.099   5.651  -6.254  0.00  0.00    -0.456 OA
BRANCH  22  23
ATOM     23  C   UNL     1       1.466   4.629  -6.971  0.00  0.00    +0.254 C 
BRANCH  23  24
ATOM     24  C   UNL     1       2.399   4.210  -8.092  0.00  0.00    +0.256 C 
BRANCH  24  25
ATOM     25  O   UNL     1       3.144   5.314  -8.542  0.00  0.00    -0.443 OA
BRANCH  25  26
ATOM     26  C   UNL     1       4.330   5.136  -9.219  0.00  0.00    +0.320 A 
ATOM     27  N   UNL     1       5.488   5.393  -8.610  0.00  0.00    -0.192 NA
ATOM     28  C   UNL     1       6.630   5.662  -9.276  0.00  0.00    +0.112 A 
ATOM     29  C   UNL     1       6.566   5.731 -10.655  0.00  0.00    +0.073 A 
ATOM     30 BR   UNL     1       8.143   5.780 -11.735  0.00  0.00    -0.046 Br
ATOM     31  C   UNL     1       5.344   5.585 -11.297  0.00  0.00    +0.112 A 
ATOM     32  N   UNL     1       4.276   5.183 -10.567  0.00  0.00    -0.192 NA
ENDBRANCH  25  26
ENDBRANCH  24  25
ENDBRANCH  23  24
ENDBRANCH  22  23
ENDBRANCH   4  22
TORSDOF 10
ENDMDL
MODEL 9
REMARK VINA RESULT:      -7.6      2.491      3.870
REMARK  Name = 
REMARK  10 active torsions:
REMARK  status: ('A' for Active; 'I' for Inactive)
REMARK    1  A    between atoms: C_2  and  C_3
REMARK    2  A    between atoms: C_3  and  N_4
REMARK    3  A    between atoms: N_4  and  S_5
REMARK    4  A    between atoms: S_5  and  N_8
REMARK    5  A    between atoms: C_13  and  O_14
REMARK    6  A    between atoms: O_14  and  C_15
REMARK    7  A    between atoms: C_15  and  C_16
REMARK    8  A    between atoms: C_16  and  O_17
REMARK    9  A    between atoms: O_17  and  C_18
REMARK   10  A    between atoms: C_25  and  C_26
REMARK                            x       y       z     vdW  Elec       q    Type
REMARK                         _______ _______ _______ _____ _____    ______ ____
ROOT
ATOM      1  N   UNL     1       4.276   5.503  -9.001  0.00  0.00    -0.065 NA
ATOM      2  C   UNL     1       3.245   6.357  -8.487  0.00  0.00    +0.179 A 
ATOM      3  C   UNL     1       1.954   5.854  -8.589  0.00  0.00    +0.088 A 
ATOM      4  C   UNL     1       0.985   6.068  -7.631  0.00  0.00    +0.229 A 
ATOM      5  N   UNL     1       1.336   6.793  -6.563  0.00  0.00    -0.189 NA
ATOM      6  C   UNL     1       2.595   7.263  -6.402  0.00  0.00    +0.203 A 
ATOM      7  N   UNL     1       3.547   6.994  -7.328  0.00  0.00    -0.205 NA
ENDROOT
BRANCH   3   8
ATOM      8  C   UNL     1       1.555   5.480  -9.953  0.00  0.00    +0.007 A 
ATOM      9  C   UNL     1       1.406   6.543 -10.836  0.00  0.00    +0.001 A 
ATOM     10  C   UNL     1       0.866   6.305 -12.090  0.00  0.00    +0.007 A 
ATOM     11  C   UNL     1       0.393   5.037 -12.389  0.00  0.00    +0.035 A 
ATOM     12 BR   UNL     1       0.181   4.542 -14.211  0.00  0.00    -0.049 Br
ATOM     13  C   UNL     1       0.160   4.192 -11.334  0.00  0.00    +0.007 A 
ATOM     14  C   UNL     1       0.609   4.469 -10.051  0.00  0.00    +0.001 A 
ENDBRANCH   3   8
BRANCH   1  15
ATOM     15  S   UNL     1       5.381   5.960 -10.218  0.00  0.00    +0.148 S 
ATOM     16  O   UNL     1       5.284   7.408 -10.575  0.00  0.00    -0.135 OA
ATOM     17  O   UNL     1       5.022   5.181 -11.464  0.00  0.00    -0.135 OA
BRANCH  15  18
ATOM     18  N   UNL     1       7.013   5.611  -9.833  0.00  0.00    -0.062 NA
BRANCH  18  19
ATOM     19  C   UNL     1       7.946   6.535 -10.472  0.00  0.00    +0.117 C 
BRANCH  19  21
ATOM     20  C   UNL     1       8.152   5.789 -12.858  0.00  0.00    +0.002 C 
ATOM     21  C   UNL     1       8.746   5.695 -11.459  0.00  0.00    +0.021 C 
ENDBRANCH  19  21
ENDBRANCH  18  19
ENDBRANCH  15  18
ENDBRANCH   1  15
BRANCH   4  22
ATOM     22  O   UNL     1      -0.207   5.340  -7.703  0.00  0.00    -0.456 OA
BRANCH  22  23
ATOM     23  C   UNL     1      -0.874   4.835  -6.580  0.00  0.00    +0.254 C 
BRANCH  23  24
ATOM     24  C   UNL     1      -2.240   5.495  -6.525  0.00  0.00    +0.256 C 
BRANCH  24  25
ATOM     25  O   UNL     1      -2.862   5.223  -5.294  0.00  0.00    -0.443 OA
BRANCH  25  26
ATOM     26  C   UNL     1      -2.328   5.691  -4.115  0.00  0.00    +0.320 A 
ATOM     27  N   UNL     1      -2.483   4.989  -2.991  0.00  0.00    -0.192 NA
ATOM     28  C   UNL     1      -2.388   5.535  -1.760  0.00  0.00    +0.112 A 
ATOM     29  C   UNL     1      -2.180   6.899  -1.679  0.00  0.00    +0.073 A 
ATOM     30 BR   UNL     1      -1.706   7.748  -0.032  0.00  0.00    -0.046 Br
ATOM     31  C   UNL     1      -2.138   7.661  -2.838  0.00  0.00    +0.112 A 
ATOM     32  N   UNL     1      -2.104   7.019  -4.030  0.00  0.00    -0.192 NA
ENDBRANCH  25  26
ENDBRANCH  24  25
ENDBRANCH  23  24
ENDBRANCH  22  23
ENDBRANCH   4  22
TORSDOF 10
ENDMDL
