MODEL 1
REMARK VINA RESULT:      -4.7      0.000      0.000
REMARK  Name = 
REMARK  5 active torsions:
REMARK  status: ('A' for Active; 'I' for Inactive)
REMARK    1  A    between atoms: C_2  and  C_3
REMARK    2  A    between atoms: C_3  and  C_4
REMARK    3  A    between atoms: C_4  and  C_5
REMARK    4  A    between atoms: C_5  and  P_7
REMARK    5  A    between atoms: C_5  and  P_11
REMARK                            x       y       z     vdW  Elec       q    Type
REMARK                         _______ _______ _______ _____ _____    ______ ____
ROOT
ATOM      1  C   UNL     1       1.429   5.618  -8.257  0.00  0.00    +0.216 C 
ATOM      2  O   UNL     1       1.931   4.330  -8.477  0.00  0.00    -0.211 OA
ENDROOT
BRANCH   1   3
ATOM      3  P   UNL     1       0.476   5.524  -6.703  0.00  0.00    +0.151 P 
ATOM      4  O   UNL     1      -1.104   5.096  -7.165  0.00  0.00    -0.355 OA
ATOM      5  O   UNL     1       1.162   4.261  -5.800  0.00  0.00    -0.355 OA
ATOM      6  O   UNL     1       0.519   6.833  -5.972  0.00  0.00    -0.457 OA
ENDBRANCH   1   3
BRANCH   1   7
ATOM      7  P   UNL     1       2.769   6.789  -7.877  0.00  0.00    +0.151 P 
ATOM      8  O   UNL     1       2.063   8.337  -7.926  0.00  0.00    -0.355 OA
ATOM      9  O   UNL     1       3.507   6.466  -6.414  0.00  0.00    -0.355 OA
ATOM     10  O   UNL     1       3.725   6.727  -9.054  0.00  0.00    -0.457 OA
ENDBRANCH   1   7
BRANCH   1  11
ATOM     11  C   UNL     1       0.567   6.086  -9.393  0.00  0.00    +0.046 C 
BRANCH  11  12
ATOM     12  C   UNL     1       0.297   4.965 -10.361  0.00  0.00    +0.024 C 
BRANCH  12  14
ATOM     13  N   UNL     1       1.808   6.117 -11.858  0.00  0.00    -0.131 NA
ATOM     14  C   UNL     1       0.544   5.416 -11.772  0.00  0.00    +0.109 C 
ENDBRANCH  12  14
ENDBRANCH  11  12
ENDBRANCH   1  11
TORSDOF 5
ENDMDL
MODEL 2
REMARK VINA RESULT:      -4.6      2.739      4.039
REMARK  Name = 
REMARK  5 active torsions:
REMARK  status: ('A' for Active; 'I' for Inactive)
REMARK    1  A    between atoms: C_2  and  C_3
REMARK    2  A    between atoms: C_3  and  C_4
REMARK    3  A    between atoms: C_4  and  C_5
REMARK    4  A    between atoms: C_5  and  P_7
REMARK    5  A    between atoms: C_5  and  P_11
REMARK                            x       y       z     vdW  Elec       q    Type
REMARK                         _______ _______ _______ _____ _____    ______ ____
ROOT
ATOM      1  C   UNL     1       2.866   5.139  -7.645  0.00  0.00    +0.216 C 
ATOM      2  O   UNL     1       2.911   3.902  -8.298  0.00  0.00    -0.211 OA
ENDROOT
BRANCH   1   3
ATOM      3  P   UNL     1       1.647   6.143  -8.561  0.00  0.00    +0.151 P 
ATOM      4  O   UNL     1       1.966   7.755  -8.120  0.00  0.00    -0.355 OA
ATOM      5  O   UNL     1       1.995   5.929 -10.208  0.00  0.00    -0.355 OA
ATOM      6  O   UNL     1       0.247   5.727  -8.217  0.00  0.00    -0.457 OA
ENDBRANCH   1   3
BRANCH   1   7
ATOM      7  P   UNL     1       2.138   4.979  -5.984  0.00  0.00    +0.151 P 
ATOM      8  O   UNL     1       3.413   4.511  -4.959  0.00  0.00    -0.355 OA
ATOM      9  O   UNL     1       1.386   6.381  -5.476  0.00  0.00    -0.355 OA
ATOM     10  O   UNL     1       1.197   3.790  -6.053  0.00  0.00    -0.457 OA
ENDBRANCH   1   7
BRANCH   1  11
ATOM     11  C   UNL     1       4.208   5.809  -7.617  0.00  0.00    +0.046 C 
BRANCH  11  12
ATOM     12  C   UNL     1       5.232   4.994  -8.361  0.00  0.00    +0.024 C 
BRANCH  12  14
ATOM     13  N   UNL     1       7.171   5.806  -9.558  0.00  0.00    -0.131 NA
ATOM     14  C   UNL     1       5.725   5.739  -9.568  0.00  0.00    +0.109 C 
ENDBRANCH  12  14
ENDBRANCH  11  12
ENDBRANCH   1  11
TORSDOF 5
ENDMDL
MODEL 3
REMARK VINA RESULT:      -4.6      2.792      3.878
REMARK  Name = 
REMARK  5 active torsions:
REMARK  status: ('A' for Active; 'I' for Inactive)
REMARK    1  A    between atoms: C_2  and  C_3
REMARK    2  A    between atoms: C_3  and  C_4
REMARK    3  A    between atoms: C_4  and  C_5
REMARK    4  A    between atoms: C_5  and  P_7
REMARK    5  A    between atoms: C_5  and  P_11
REMARK                            x       y       z     vdW  Elec       q    Type
REMARK                         _______ _______ _______ _____ _____    ______ ____
ROOT
ATOM      1  C   UNL     1       1.305   5.429  -7.597  0.00  0.00    +0.216 C 
ATOM      2  O   UNL     1       1.398   4.391  -6.663  0.00  0.00    -0.211 OA
ENDROOT
BRANCH   1   3
ATOM      3  P   UNL     1       2.303   6.800  -6.921  0.00  0.00    +0.151 P 
ATOM      4  O   UNL     1       1.833   6.942  -5.293  0.00  0.00    -0.355 OA
ATOM      5  O   UNL     1       3.922   6.296  -7.000  0.00  0.00    -0.355 OA
ATOM      6  O   UNL     1       2.064   8.064  -7.693  0.00  0.00    -0.457 OA
ENDBRANCH   1   3
BRANCH   1   7
ATOM      7  P   UNL     1       2.155   4.997  -9.148  0.00  0.00    +0.151 P 
ATOM      8  O   UNL     1       0.961   4.337 -10.165  0.00  0.00    -0.355 OA
ATOM      9  O   UNL     1       2.936   6.302  -9.837  0.00  0.00    -0.355 OA
ATOM     10  O   UNL     1       3.093   3.853  -8.805  0.00  0.00    -0.457 OA
ENDBRANCH   1   7
BRANCH   1  11
ATOM     11  C   UNL     1      -0.116   5.855  -7.825  0.00  0.00    +0.046 C 
BRANCH  11  12
ATOM     12  C   UNL     1      -1.060   5.064  -6.959  0.00  0.00    +0.024 C 
BRANCH  12  14
ATOM     13  N   UNL     1      -1.303   5.677  -4.631  0.00  0.00    -0.131 NA
ATOM     14  C   UNL     1      -1.754   5.963  -5.977  0.00  0.00    +0.109 C 
ENDBRANCH  12  14
ENDBRANCH  11  12
ENDBRANCH   1  11
TORSDOF 5
ENDMDL
MODEL 4
REMARK VINA RESULT:      -4.6      3.027      3.885
REMARK  Name = 
REMARK  5 active torsions:
REMARK  status: ('A' for Active; 'I' for Inactive)
REMARK    1  A    between atoms: C_2  and  C_3
REMARK    2  A    between atoms: C_3  and  C_4
REMARK    3  A    between atoms: C_4  and  C_5
REMARK    4  A    between atoms: C_5  and  P_7
REMARK    5  A    between atoms: C_5  and  P_11
REMARK                            x       y       z     vdW  Elec       q    Type
REMARK                         _______ _______ _______ _____ _____    ______ ____
ROOT
ATOM      1  C   UNL     1       1.316   5.952  -7.249  0.00  0.00    +0.216 C 
ATOM      2  O   UNL     1       0.603   5.711  -8.429  0.00  0.00    -0.211 OA
ENDROOT
BRANCH   1   3
ATOM      3  P   UNL     1       2.170   4.388  -6.855  0.00  0.00    +0.151 P 
ATOM      4  O   UNL     1       2.557   3.691  -8.357  0.00  0.00    -0.355 OA
ATOM      5  O   UNL     1       3.600   4.816  -6.046  0.00  0.00    -0.355 OA
ATOM      6  O   UNL     1       1.294   3.496  -6.024  0.00  0.00    -0.457 OA
ENDBRANCH   1   3
BRANCH   1   7
ATOM      7  P   UNL     1       2.674   7.131  -7.530  0.00  0.00    +0.151 P 
ATOM      8  O   UNL     1       3.336   7.454  -5.996  0.00  0.00    -0.355 OA
ATOM      9  O   UNL     1       3.809   6.555  -8.612  0.00  0.00    -0.355 OA
ATOM     10  O   UNL     1       2.018   8.422  -7.985  0.00  0.00    -0.457 OA
ENDBRANCH   1   7
BRANCH   1  11
ATOM     11  C   UNL     1       0.416   6.375  -6.125  0.00  0.00    +0.046 C 
BRANCH  11  12
ATOM     12  C   UNL     1      -0.994   5.904  -6.358  0.00  0.00    +0.024 C 
BRANCH  12  14
ATOM     13  N   UNL     1      -0.827   5.516  -3.976  0.00  0.00    -0.131 NA
ATOM     14  C   UNL     1      -1.742   5.813  -5.058  0.00  0.00    +0.109 C 
ENDBRANCH  12  14
ENDBRANCH  11  12
ENDBRANCH   1  11
TORSDOF 5
ENDMDL
MODEL 5
REMARK VINA RESULT:      -4.6      3.192      3.636
REMARK  Name = 
REMARK  5 active torsions:
REMARK  status: ('A' for Active; 'I' for Inactive)
REMARK    1  A    between atoms: C_2  and  C_3
REMARK    2  A    between atoms: C_3  and  C_4
REMARK    3  A    between atoms: C_4  and  C_5
REMARK    4  A    between atoms: C_5  and  P_7
REMARK    5  A    between atoms: C_5  and  P_11
REMARK                            x       y       z     vdW  Elec       q    Type
REMARK                         _______ _______ _______ _____ _____    ______ ____
ROOT
ATOM      1  C   UNL     1       1.558   5.854  -6.748  0.00  0.00    +0.216 C 
ATOM      2  O   UNL     1       1.585   4.467  -6.929  0.00  0.00    -0.211 OA
ENDROOT
BRANCH   1   3
ATOM      3  P   UNL     1       2.730   6.204  -5.392  0.00  0.00    +0.151 P 
ATOM      4  O   UNL     1       1.774   6.338  -3.992  0.00  0.00    -0.355 OA
ATOM      5  O   UNL     1       3.731   4.840  -5.264  0.00  0.00    -0.355 OA
ATOM      6  O   UNL     1       3.509   7.456  -5.671  0.00  0.00    -0.457 OA
ENDBRANCH   1   3
BRANCH   1   7
ATOM      7  P   UNL     1       2.279   6.717  -8.179  0.00  0.00    +0.151 P 
ATOM      8  O   UNL     1       2.074   8.379  -7.875  0.00  0.00    -0.355 OA
ATOM      9  O   UNL     1       3.877   6.305  -8.439  0.00  0.00    -0.355 OA
ATOM     10  O   UNL     1       1.381   6.392  -9.359  0.00  0.00    -0.457 OA
ENDBRANCH   1   7
BRANCH   1  11
ATOM     11  C   UNL     1       0.182   6.352  -6.416  0.00  0.00    +0.046 C 
BRANCH  11  12
ATOM     12  C   UNL     1      -0.866   5.358  -6.841  0.00  0.00    +0.024 C 
BRANCH  12  14
ATOM     13  N   UNL     1      -2.178   5.709  -4.839  0.00  0.00    -0.131 NA
ATOM     14  C   UNL     1      -2.209   5.738  -6.286  0.00  0.00    +0.109 C 
ENDBRANCH  12  14
ENDBRANCH  11  12
ENDBRANCH   1  11
TORSDOF 5
ENDMDL
MODEL 6
REMARK VINA RESULT:      -4.5      3.084      3.993
REMARK  Name = 
REMARK  5 active torsions:
REMARK  status: ('A' for Active; 'I' for Inactive)
REMARK    1  A    between atoms: C_2  and  C_3
REMARK    2  A    between atoms: C_3  and  C_4
REMARK    3  A    between atoms: C_4  and  C_5
REMARK    4  A    between atoms: C_5  and  P_7
REMARK    5  A    between atoms: C_5  and  P_11
REMARK                            x       y       z     vdW  Elec       q    Type
REMARK                         _______ _______ _______ _____ _____    ______ ____
ROOT
ATOM      1  C   UNL     1       2.804   5.811  -9.181  0.00  0.00    +0.216 C 
ATOM      2  O   UNL     1       3.035   4.443  -8.999  0.00  0.00    -0.211 OA
ENDROOT
BRANCH   1   3
ATOM      3  P   UNL     1       1.506   5.933 -10.458  0.00  0.00    +0.151 P 
ATOM      4  O   UNL     1       2.331   5.928 -11.945  0.00  0.00    -0.355 OA
ATOM      5  O   UNL     1       0.573   4.521 -10.325  0.00  0.00    -0.355 OA
ATOM      6  O   UNL     1       0.686   7.175 -10.268  0.00  0.00    -0.457 OA
ENDBRANCH   1   3
BRANCH   1   7
ATOM      7  P   UNL     1       2.035   6.550  -7.707  0.00  0.00    +0.151 P 
ATOM      8  O   UNL     1       2.147   8.235  -7.917  0.00  0.00    -0.355 OA
ATOM      9  O   UNL     1       0.463   6.035  -7.477  0.00  0.00    -0.355 OA
ATOM     10  O   UNL     1       2.950   6.210  -6.543  0.00  0.00    -0.457 OA
ENDBRANCH   1   7
BRANCH   1  11
ATOM     11  C   UNL     1       4.047   6.539  -9.602  0.00  0.00    +0.046 C 
BRANCH  11  12
ATOM     12  C   UNL     1       5.273   5.703  -9.347  0.00  0.00    +0.024 C 
BRANCH  12  14
ATOM     13  N   UNL     1       7.605   5.702  -9.989  0.00  0.00    -0.131 NA
ATOM     14  C   UNL     1       6.250   5.840 -10.479  0.00  0.00    +0.109 C 
ENDBRANCH  12  14
ENDBRANCH  11  12
ENDBRANCH   1  11
TORSDOF 5
ENDMDL
MODEL 7
REMARK VINA RESULT:      -4.5      2.338      3.179
REMARK  Name = 
REMARK  5 active torsions:
REMARK  status: ('A' for Active; 'I' for Inactive)
REMARK    1  A    between atoms: C_2  and  C_3
REMARK    2  A    between atoms: C_3  and  C_4
REMARK    3  A    between atoms: C_4  and  C_5
REMARK    4  A    between atoms: C_5  and  P_7
REMARK    5  A    between atoms: C_5  and  P_11
REMARK                            x       y       z     vdW  Elec       q    Type
REMARK                         _______ _______ _______ _____ _____    ______ ____
ROOT
ATOM      1  C   UNL     1       2.971   5.544  -7.099  0.00  0.00    +0.216 C 
ATOM      2  O   UNL     1       2.433   4.263  -7.265  0.00  0.00    -0.211 OA
ENDROOT
BRANCH   1   3
ATOM      3  P   UNL     1       1.606   6.707  -7.437  0.00  0.00    +0.151 P 
ATOM      4  O   UNL     1       2.353   8.152  -7.932  0.00  0.00    -0.355 OA
ATOM      5  O   UNL     1       0.731   6.050  -8.735  0.00  0.00    -0.355 OA
ATOM      6  O   UNL     1       0.753   6.897  -6.217  0.00  0.00    -0.457 OA
ENDBRANCH   1   3
BRANCH   1   7
ATOM      7  P   UNL     1       3.390   5.860  -5.356  0.00  0.00    +0.151 P 
ATOM      8  O   UNL     1       3.746   7.521  -5.255  0.00  0.00    -0.355 OA
ATOM      9  O   UNL     1       2.172   5.400  -4.310  0.00  0.00    -0.355 OA
ATOM     10  O   UNL     1       4.699   5.133  -5.102  0.00  0.00    -0.457 OA
ENDBRANCH   1   7
BRANCH   1  11
ATOM     11  C   UNL     1       4.132   5.789  -8.018  0.00  0.00    +0.046 C 
BRANCH  11  12
ATOM     12  C   UNL     1       4.182   4.754  -9.109  0.00  0.00    +0.024 C 
BRANCH  12  14
ATOM     13  N   UNL     1       4.357   6.794 -10.397  0.00  0.00    -0.131 NA
ATOM     14  C   UNL     1       3.991   5.394 -10.454  0.00  0.00    +0.109 C 
ENDBRANCH  12  14
ENDBRANCH  11  12
ENDBRANCH   1  11
TORSDOF 5
ENDMDL
MODEL 8
REMARK VINA RESULT:      -4.5      3.386      4.974
REMARK  Name = 
REMARK  5 active torsions:
REMARK  status: ('A' for Active; 'I' for Inactive)
REMARK    1  A    between atoms: C_2  and  C_3
REMARK    2  A    between atoms: C_3  and  C_4
REMARK    3  A    between atoms: C_4  and  C_5
REMARK    4  A    between atoms: C_5  and  P_7
REMARK    5  A    between atoms: C_5  and  P_11
REMARK                            x       y       z     vdW  Elec       q    Type
REMARK                         _______ _______ _______ _____ _____    ______ ____
ROOT
ATOM      1  C   UNL     1       3.090   5.539  -6.816  0.00  0.00    +0.216 C 
ATOM      2  O   UNL     1       2.695   4.392  -6.118  0.00  0.00    -0.211 OA
ENDROOT
BRANCH   1   3
ATOM      3  P   UNL     1       3.375   5.004  -8.537  0.00  0.00    +0.151 P 
ATOM      4  O   UNL     1       5.051   4.741  -8.658  0.00  0.00    -0.355 OA
ATOM      5  O   UNL     1       2.558   3.527  -8.719  0.00  0.00    -0.355 OA
ATOM      6  O   UNL     1       2.892   6.043  -9.505  0.00  0.00    -0.457 OA
ENDBRANCH   1   3
BRANCH   1   7
ATOM      7  P   UNL     1       1.721   6.730  -6.951  0.00  0.00    +0.151 P 
ATOM      8  O   UNL     1       1.156   6.975  -5.365  0.00  0.00    -0.355 OA
ATOM      9  O   UNL     1       2.179   8.153  -7.696  0.00  0.00    -0.355 OA
ATOM     10  O   UNL     1       0.608   6.005  -7.686  0.00  0.00    -0.457 OA
ENDBRANCH   1   7
BRANCH   1  11
ATOM     11  C   UNL     1       4.326   6.155  -6.229  0.00  0.00    +0.046 C 
BRANCH  11  12
ATOM     12  C   UNL     1       4.594   5.614  -4.850  0.00  0.00    +0.024 C 
BRANCH  12  14
ATOM     13  N   UNL     1       4.687   7.998  -4.447  0.00  0.00    -0.131 NA
ATOM     14  C   UNL     1       5.094   6.702  -3.944  0.00  0.00    +0.109 C 
ENDBRANCH  12  14
ENDBRANCH  11  12
ENDBRANCH   1  11
TORSDOF 5
ENDMDL
MODEL 9
REMARK VINA RESULT:      -4.5      5.079      6.296
REMARK  Name = 
REMARK  5 active torsions:
REMARK  status: ('A' for Active; 'I' for Inactive)
REMARK    1  A    between atoms: C_2  and  C_3
REMARK    2  A    between atoms: C_3  and  C_4
REMARK    3  A    between atoms: C_4  and  C_5
REMARK    4  A    between atoms: C_5  and  P_7
REMARK    5  A    between atoms: C_5  and  P_11
REMARK                            x       y       z     vdW  Elec       q    Type
REMARK                         _______ _______ _______ _____ _____    ______ ____
ROOT
ATOM      1  C   UNL     1       5.314   6.042 -11.281  0.00  0.00    +0.216 C 
ATOM      2  O   UNL     1       5.006   7.377 -10.998  0.00  0.00    -0.211 OA
ENDROOT
BRANCH   1   3
ATOM      3  P   UNL     1       4.753   5.752 -12.994  0.00  0.00    +0.151 P 
ATOM      4  O   UNL     1       3.124   6.240 -13.025  0.00  0.00    -0.355 OA
ATOM      5  O   UNL     1       5.671   6.787 -13.978  0.00  0.00    -0.355 OA
ATOM      6  O   UNL     1       4.921   4.310 -13.373  0.00  0.00    -0.457 OA
ENDBRANCH   1   3
BRANCH   1   7
ATOM      7  P   UNL     1       7.114   5.786 -11.364  0.00  0.00    +0.151 P 
ATOM      8  O   UNL     1       7.602   5.384  -9.784  0.00  0.00    -0.355 OA
ATOM      9  O   UNL     1       7.546   4.625 -12.484  0.00  0.00    -0.355 OA
ATOM     10  O   UNL     1       7.717   7.149 -11.656  0.00  0.00    -0.457 OA
ENDBRANCH   1   7
BRANCH   1  11
ATOM     11  C   UNL     1       4.647   5.096 -10.326  0.00  0.00    +0.046 C 
BRANCH  11  12
ATOM     12  C   UNL     1       4.043   5.842  -9.165  0.00  0.00    +0.024 C 
BRANCH  12  14
ATOM     13  N   UNL     1       2.877   3.785  -8.649  0.00  0.00    -0.131 NA
ATOM     14  C   UNL     1       2.735   5.222  -8.765  0.00  0.00    +0.109 C 
ENDBRANCH  12  14
ENDBRANCH  11  12
ENDBRANCH   1  11
TORSDOF 5
ENDMDL
