MODEL 1
REMARK VINA RESULT:      -8.5      0.000      0.000
REMARK  Name = 
REMARK  1 active torsions:
REMARK  status: ('A' for Active; 'I' for Inactive)
REMARK    1  A    between atoms: C_11  and  C_12
REMARK                            x       y       z     vdW  Elec       q    Type
REMARK                         _______ _______ _______ _____ _____    ______ ____
ROOT
ATOM      1  O   UNL     1       0.147   4.811 -10.619  0.00  0.00    -0.268 OA
ATOM      2  C   UNL     1       0.874   5.010 -10.126  0.00  0.00    +0.300 C 
ATOM      3  C   UNL     1       1.353   6.511 -10.606  0.00  0.00    +0.333 C 
ATOM      4  O   UNL     1       1.367   7.055  -9.156  0.00  0.00    -0.186 OA
ATOM      5  N   UNL     1       2.903   6.104 -10.653  0.00  0.00    -0.233 NA
ATOM      6  C   UNL     1       3.725   6.187  -9.706  0.00  0.00    +0.080 C 
ATOM      7  C   UNL     1       3.385   5.678  -8.366  0.00  0.00    +0.034 A 
ATOM      8  C   UNL     1       2.441   4.693  -8.085  0.00  0.00    +0.075 A 
ATOM      9  C   UNL     1       2.335   4.266  -6.798  0.00  0.00    +0.018 A 
ATOM     10  C   UNL     1       2.934   5.057  -5.820  0.00  0.00    +0.013 A 
ATOM     11  C   UNL     1       4.074   5.798  -6.107  0.00  0.00    +0.058 A 
ATOM     12 CL   UNL     1       4.812   6.896  -4.954  0.00  0.00    -0.082 Cl
ATOM     13  C   UNL     1       4.388   5.900  -7.458  0.00  0.00    +0.014 A 
ATOM     14  N   UNL     1       1.353   4.368  -8.958  0.00  0.00    -0.175 NA
ENDROOT
BRANCH   6  15
ATOM     15  C   UNL     1       5.139   6.490  -9.938  0.00  0.00    +0.017 A 
ATOM     16  C   UNL     1       6.120   5.557  -9.624  0.00  0.00    +0.001 A 
ATOM     17  C   UNL     1       7.405   5.751 -10.114  0.00  0.00    +0.000 A 
ATOM     18  C   UNL     1       7.745   6.956 -10.700  0.00  0.00    +0.000 A 
ATOM     19  C   UNL     1       6.755   7.864 -11.057  0.00  0.00    +0.000 A 
ATOM     20  C   UNL     1       5.459   7.382 -10.958  0.00  0.00    +0.001 A 
ENDBRANCH   6  15
TORSDOF 1
ENDMDL
MODEL 2
REMARK VINA RESULT:      -8.4      2.948      4.723
REMARK  Name = 
REMARK  1 active torsions:
REMARK  status: ('A' for Active; 'I' for Inactive)
REMARK    1  A    between atoms: C_11  and  C_12
REMARK                            x       y       z     vdW  Elec       q    Type
REMARK                         _______ _______ _______ _____ _____    ______ ____
ROOT
ATOM      1  O   UNL     1       2.296   5.406 -10.380  0.00  0.00    -0.268 OA
ATOM      2  C   UNL     1       2.052   5.567  -9.529  0.00  0.00    +0.300 C 
ATOM      3  C   UNL     1       2.960   6.847  -9.029  0.00  0.00    +0.333 C 
ATOM      4  O   UNL     1       1.718   7.643  -8.558  0.00  0.00    -0.186 OA
ATOM      5  N   UNL     1       3.287   6.181  -7.609  0.00  0.00    -0.233 NA
ATOM      6  C   UNL     1       2.611   6.299  -6.555  0.00  0.00    +0.080 C 
ATOM      7  C   UNL     1       1.150   6.116  -6.574  0.00  0.00    +0.034 A 
ATOM      8  C   UNL     1       0.433   5.377  -7.512  0.00  0.00    +0.075 A 
ATOM      9  C   UNL     1      -0.903   5.223  -7.312  0.00  0.00    +0.018 A 
ATOM     10  C   UNL     1      -1.502   6.071  -6.382  0.00  0.00    +0.013 A 
ATOM     11  C   UNL     1      -0.788   6.540  -5.286  0.00  0.00    +0.058 A 
ATOM     12 CL   UNL     1      -1.450   7.692  -4.141  0.00  0.00    -0.082 Cl
ATOM     13  C   UNL     1       0.585   6.331  -5.343  0.00  0.00    +0.014 A 
ATOM     14  N   UNL     1       0.921   5.084  -8.826  0.00  0.00    -0.175 NA
ENDROOT
BRANCH   6  15
ATOM     15  C   UNL     1       3.241   6.308  -5.233  0.00  0.00    +0.017 A 
ATOM     16  C   UNL     1       3.562   5.114  -4.598  0.00  0.00    +0.001 A 
ATOM     17  C   UNL     1       4.406   5.152  -3.495  0.00  0.00    +0.000 A 
ATOM     18  C   UNL     1       4.726   6.365  -2.914  0.00  0.00    +0.000 A 
ATOM     19  C   UNL     1       4.446   7.554  -3.576  0.00  0.00    +0.000 A 
ATOM     20  C   UNL     1       4.027   7.405  -4.889  0.00  0.00    +0.001 A 
ENDBRANCH   6  15
TORSDOF 1
ENDMDL
MODEL 3
REMARK VINA RESULT:      -8.4      4.076      6.998
REMARK  Name = 
REMARK  1 active torsions:
REMARK  status: ('A' for Active; 'I' for Inactive)
REMARK    1  A    between atoms: C_11  and  C_12
REMARK                            x       y       z     vdW  Elec       q    Type
REMARK                         _______ _______ _______ _____ _____    ______ ____
ROOT
ATOM      1  O   UNL     1       5.034   5.819  -4.180  0.00  0.00    -0.268 OA
ATOM      2  C   UNL     1       4.265   5.793  -4.648  0.00  0.00    +0.300 C 
ATOM      3  C   UNL     1       3.517   7.235  -4.374  0.00  0.00    +0.333 C 
ATOM      4  O   UNL     1       3.345   7.520  -5.887  0.00  0.00    -0.186 OA
ATOM      5  N   UNL     1       2.081   6.555  -4.162  0.00  0.00    -0.233 NA
ATOM      6  C   UNL     1       1.225   6.324  -5.054  0.00  0.00    +0.080 C 
ATOM      7  C   UNL     1       1.611   5.675  -6.318  0.00  0.00    +0.034 A 
ATOM      8  C   UNL     1       2.720   4.854  -6.507  0.00  0.00    +0.075 A 
ATOM      9  C   UNL     1       2.863   4.249  -7.716  0.00  0.00    +0.018 A 
ATOM     10  C   UNL     1       2.084   4.741  -8.763  0.00  0.00    +0.013 A 
ATOM     11  C   UNL     1       0.832   5.291  -8.518  0.00  0.00    +0.058 A 
ATOM     12 CL   UNL     1      -0.148   6.024  -9.775  0.00  0.00    -0.082 Cl
ATOM     13  C   UNL     1       0.552   5.552  -7.181  0.00  0.00    +0.014 A 
ATOM     14  N   UNL     1       3.881   4.889  -5.668  0.00  0.00    -0.175 NA
ENDROOT
BRANCH   6  15
ATOM     15  C   UNL     1      -0.212   6.389  -4.777  0.00  0.00    +0.017 A 
ATOM     16  C   UNL     1      -0.804   5.476  -3.912  0.00  0.00    +0.001 A 
ATOM     17  C   UNL     1      -2.088   5.733  -3.449  0.00  0.00    +0.000 A 
ATOM     18  C   UNL     1      -2.835   6.748  -4.017  0.00  0.00    +0.000 A 
ATOM     19  C   UNL     1      -2.227   7.687  -4.843  0.00  0.00    +0.000 A 
ATOM     20  C   UNL     1      -0.843   7.626  -4.872  0.00  0.00    +0.001 A 
ENDBRANCH   6  15
TORSDOF 1
ENDMDL
MODEL 4
REMARK VINA RESULT:      -8.3      2.829      4.159
REMARK  Name = 
REMARK  1 active torsions:
REMARK  status: ('A' for Active; 'I' for Inactive)
REMARK    1  A    between atoms: C_11  and  C_12
REMARK                            x       y       z     vdW  Elec       q    Type
REMARK                         _______ _______ _______ _____ _____    ______ ____
ROOT
ATOM      1  O   UNL     1       2.046   5.961  -6.424  0.00  0.00    -0.268 OA
ATOM      2  C   UNL     1       2.138   5.960  -7.320  0.00  0.00    +0.300 C 
ATOM      3  C   UNL     1       3.407   4.963  -7.648  0.00  0.00    +0.333 C 
ATOM      4  O   UNL     1       2.587   4.127  -8.661  0.00  0.00    -0.186 OA
ATOM      5  N   UNL     1       4.039   5.968  -8.724  0.00  0.00    -0.233 NA
ATOM      6  C   UNL     1       3.791   5.994  -9.956  0.00  0.00    +0.080 C 
ATOM      7  C   UNL     1       2.403   5.963 -10.446  0.00  0.00    +0.034 A 
ATOM      8  C   UNL     1       1.278   6.367  -9.732  0.00  0.00    +0.075 A 
ATOM      9  C   UNL     1       0.083   6.373 -10.381  0.00  0.00    +0.018 A 
ATOM     10  C   UNL     1       0.018   5.679 -11.588  0.00  0.00    +0.013 A 
ATOM     11  C   UNL     1       1.136   5.570 -12.404  0.00  0.00    +0.058 A 
ATOM     12 CL   UNL     1       1.148   4.620 -13.880  0.00  0.00    -0.082 Cl
ATOM     13  C   UNL     1       2.337   5.950 -11.816  0.00  0.00    +0.014 A 
ATOM     14  N   UNL     1       1.229   6.426  -8.302  0.00  0.00    -0.175 NA
ENDROOT
BRANCH   6  15
ATOM     15  C   UNL     1       4.811   6.367 -10.939  0.00  0.00    +0.017 A 
ATOM     16  C   UNL     1       5.393   7.629 -10.905  0.00  0.00    +0.001 A 
ATOM     17  C   UNL     1       6.542   7.853 -11.652  0.00  0.00    +0.000 A 
ATOM     18  C   UNL     1       6.957   6.914 -12.578  0.00  0.00    +0.000 A 
ATOM     19  C   UNL     1       6.405   5.638 -12.575  0.00  0.00    +0.000 A 
ATOM     20  C   UNL     1       5.596   5.356 -11.486  0.00  0.00    +0.001 A 
ENDBRANCH   6  15
TORSDOF 1
ENDMDL
MODEL 5
REMARK VINA RESULT:      -8.3      3.772      6.765
REMARK  Name = 
REMARK  1 active torsions:
REMARK  status: ('A' for Active; 'I' for Inactive)
REMARK    1  A    between atoms: C_11  and  C_12
REMARK                            x       y       z     vdW  Elec       q    Type
REMARK                         _______ _______ _______ _____ _____    ______ ____
ROOT
ATOM      1  O   UNL     1       3.361   4.596  -8.049  0.00  0.00    -0.268 OA
ATOM      2  C   UNL     1       3.177   5.024  -7.278  0.00  0.00    +0.300 C 
ATOM      3  C   UNL     1       2.153   4.041  -6.443  0.00  0.00    +0.333 C 
ATOM      4  O   UNL     1       3.035   4.076  -5.171  0.00  0.00    -0.186 OA
ATOM      5  N   UNL     1       1.190   5.249  -6.019  0.00  0.00    -0.233 NA
ATOM      6  C   UNL     1       1.291   5.957  -4.985  0.00  0.00    +0.080 C 
ATOM      7  C   UNL     1       2.587   6.537  -4.593  0.00  0.00    +0.034 A 
ATOM      8  C   UNL     1       3.654   6.799  -5.449  0.00  0.00    +0.075 A 
ATOM      9  C   UNL     1       4.736   7.441  -4.935  0.00  0.00    +0.018 A 
ATOM     10  C   UNL     1       4.835   7.496  -3.546  0.00  0.00    +0.013 A 
ATOM     11  C   UNL     1       3.694   7.529  -2.754  0.00  0.00    +0.058 A 
ATOM     12 CL   UNL     1       3.750   7.490  -1.001  0.00  0.00    -0.082 Cl
ATOM     13  C   UNL     1       2.507   7.235  -3.416  0.00  0.00    +0.014 A 
ATOM     14  N   UNL     1       3.840   6.138  -6.706  0.00  0.00    -0.175 NA
ENDROOT
BRANCH   6  15
ATOM     15  C   UNL     1       0.113   6.497  -4.303  0.00  0.00    +0.017 A 
ATOM     16  C   UNL     1      -0.676   7.463  -4.918  0.00  0.00    +0.001 A 
ATOM     17  C   UNL     1      -1.926   7.742  -4.382  0.00  0.00    +0.000 A 
ATOM     18  C   UNL     1      -2.273   7.238  -3.143  0.00  0.00    +0.000 A 
ATOM     19  C   UNL     1      -1.508   6.237  -2.555  0.00  0.00    +0.000 A 
ATOM     20  C   UNL     1      -0.540   5.686  -3.378  0.00  0.00    +0.001 A 
ENDBRANCH   6  15
TORSDOF 1
ENDMDL
MODEL 6
REMARK VINA RESULT:      -8.1      5.929      7.535
REMARK  Name = 
REMARK  1 active torsions:
REMARK  status: ('A' for Active; 'I' for Inactive)
REMARK    1  A    between atoms: C_11  and  C_12
REMARK                            x       y       z     vdW  Elec       q    Type
REMARK                         _______ _______ _______ _____ _____    ______ ____
ROOT
ATOM      1  O   UNL     1      -1.980   7.258  -0.340  0.00  0.00    -0.268 OA
ATOM      2  C   UNL     1      -1.621   7.066  -1.143  0.00  0.00    +0.300 C 
ATOM      3  C   UNL     1      -0.650   5.757  -0.906  0.00  0.00    +0.333 C 
ATOM      4  O   UNL     1      -1.318   4.958  -2.052  0.00  0.00    -0.186 OA
ATOM      5  N   UNL     1       0.542   6.364  -1.791  0.00  0.00    -0.233 NA
ATOM      6  C   UNL     1       0.704   6.212  -3.028  0.00  0.00    +0.080 C 
ATOM      7  C   UNL     1      -0.414   6.412  -3.965  0.00  0.00    +0.034 A 
ATOM      8  C   UNL     1      -1.542   7.195  -3.732  0.00  0.00    +0.075 A 
ATOM      9  C   UNL     1      -2.424   7.357  -4.753  0.00  0.00    +0.018 A 
ATOM     10  C   UNL     1      -2.308   6.480  -5.831  0.00  0.00    +0.013 A 
ATOM     11  C   UNL     1      -1.071   5.960  -6.192  0.00  0.00    +0.058 A 
ATOM     12 CL   UNL     1      -0.873   4.772  -7.467  0.00  0.00    -0.082 Cl
ATOM     13  C   UNL     1      -0.054   6.155  -5.263  0.00  0.00    +0.014 A 
ATOM     14  N   UNL     1      -2.011   7.535  -2.422  0.00  0.00    -0.175 NA
ENDROOT
BRANCH   6  15
ATOM     15  C   UNL     1       2.040   6.143  -3.626  0.00  0.00    +0.017 A 
ATOM     16  C   UNL     1       2.734   7.308  -3.935  0.00  0.00    +0.001 A 
ATOM     17  C   UNL     1       4.088   7.218  -4.226  0.00  0.00    +0.000 A 
ATOM     18  C   UNL     1       4.670   5.981  -4.429  0.00  0.00    +0.000 A 
ATOM     19  C   UNL     1       3.990   4.822  -4.072  0.00  0.00    +0.000 A 
ATOM     20  C   UNL     1       2.826   5.028  -3.349  0.00  0.00    +0.001 A 
ENDBRANCH   6  15
TORSDOF 1
ENDMDL
MODEL 7
REMARK VINA RESULT:      -8.1      3.632      6.361
REMARK  Name = 
REMARK  1 active torsions:
REMARK  status: ('A' for Active; 'I' for Inactive)
REMARK    1  A    between atoms: C_11  and  C_12
REMARK                            x       y       z     vdW  Elec       q    Type
REMARK                         _______ _______ _______ _____ _____    ______ ____
ROOT
ATOM      1  O   UNL     1       4.046   5.000  -8.385  0.00  0.00    -0.268 OA
ATOM      2  C   UNL     1       3.610   5.119  -7.606  0.00  0.00    +0.300 C 
ATOM      3  C   UNL     1       2.228   4.231  -7.717  0.00  0.00    +0.333 C 
ATOM      4  O   UNL     1       2.502   3.496  -6.382  0.00  0.00    -0.186 OA
ATOM      5  N   UNL     1       1.319   5.394  -7.091  0.00  0.00    -0.233 NA
ATOM      6  C   UNL     1       1.064   5.568  -5.873  0.00  0.00    +0.080 C 
ATOM      7  C   UNL     1       2.139   5.537  -4.866  0.00  0.00    +0.034 A 
ATOM      8  C   UNL     1       3.486   5.794  -5.106  0.00  0.00    +0.075 A 
ATOM      9  C   UNL     1       4.325   5.830  -4.035  0.00  0.00    +0.018 A 
ATOM     10  C   UNL     1       3.845   5.296  -2.841  0.00  0.00    +0.013 A 
ATOM     11  C   UNL     1       2.491   5.343  -2.536  0.00  0.00    +0.058 A 
ATOM     12 CL   UNL     1       1.811   4.594  -1.102  0.00  0.00    -0.082 Cl
ATOM     13  C   UNL     1       1.659   5.698  -3.592  0.00  0.00    +0.014 A 
ATOM     14  N   UNL     1       4.099   5.666  -6.394  0.00  0.00    -0.175 NA
ENDROOT
BRANCH   6  15
ATOM     15  C   UNL     1      -0.221   6.110  -5.425  0.00  0.00    +0.017 A 
ATOM     16  C   UNL     1      -0.309   7.416  -4.956  0.00  0.00    +0.001 A 
ATOM     17  C   UNL     1      -1.565   7.989  -4.814  0.00  0.00    +0.000 A 
ATOM     18  C   UNL     1      -2.698   7.203  -4.916  0.00  0.00    +0.000 A 
ATOM     19  C   UNL     1      -2.611   5.915  -5.431  0.00  0.00    +0.000 A 
ATOM     20  C   UNL     1      -1.384   5.593  -5.989  0.00  0.00    +0.001 A 
ENDBRANCH   6  15
TORSDOF 1
ENDMDL
MODEL 8
REMARK VINA RESULT:      -8.0      2.523      4.925
REMARK  Name = 
REMARK  1 active torsions:
REMARK  status: ('A' for Active; 'I' for Inactive)
REMARK    1  A    between atoms: C_11  and  C_12
REMARK                            x       y       z     vdW  Elec       q    Type
REMARK                         _______ _______ _______ _____ _____    ______ ____
ROOT
ATOM      1  O   UNL     1       3.008   5.414  -4.700  0.00  0.00    -0.268 OA
ATOM      2  C   UNL     1       3.132   5.519  -5.585  0.00  0.00    +0.300 C 
ATOM      3  C   UNL     1       2.087   6.702  -6.056  0.00  0.00    +0.333 C 
ATOM      4  O   UNL     1       3.206   7.523  -6.743  0.00  0.00    -0.186 OA
ATOM      5  N   UNL     1       1.628   5.904  -7.368  0.00  0.00    -0.233 NA
ATOM      6  C   UNL     1       2.158   5.972  -8.506  0.00  0.00    +0.080 C 
ATOM      7  C   UNL     1       3.618   5.872  -8.665  0.00  0.00    +0.034 A 
ATOM      8  C   UNL     1       4.493   5.253  -7.776  0.00  0.00    +0.075 A 
ATOM      9  C   UNL     1       5.801   5.157  -8.137  0.00  0.00    +0.018 A 
ATOM     10  C   UNL     1       6.222   5.956  -9.197  0.00  0.00    +0.013 A 
ATOM     11  C   UNL     1       5.348   6.294 -10.222  0.00  0.00    +0.058 A 
ATOM     12 CL   UNL     1       5.784   7.384 -11.527  0.00  0.00    -0.082 Cl
ATOM     13  C   UNL     1       4.008   6.016  -9.972  0.00  0.00    +0.014 A 
ATOM     14  N   UNL     1       4.195   5.042  -6.391  0.00  0.00    -0.175 NA
ENDROOT
BRANCH   6  15
ATOM     15  C   UNL     1       1.367   5.838  -9.732  0.00  0.00    +0.017 A 
ATOM     16  C   UNL     1       0.910   4.591 -10.143  0.00  0.00    +0.001 A 
ATOM     17  C   UNL     1      -0.063   4.531 -11.132  0.00  0.00    +0.000 A 
ATOM     18  C   UNL     1      -0.394   5.669 -11.844  0.00  0.00    +0.000 A 
ATOM     19  C   UNL     1       0.026   6.918 -11.401  0.00  0.00    +0.000 A 
ATOM     20  C   UNL     1       0.599   6.926 -10.139  0.00  0.00    +0.001 A 
ENDBRANCH   6  15
TORSDOF 1
ENDMDL
MODEL 9
REMARK VINA RESULT:      -7.9      5.073      7.905
REMARK  Name = 
REMARK  1 active torsions:
REMARK  status: ('A' for Active; 'I' for Inactive)
REMARK    1  A    between atoms: C_11  and  C_12
REMARK                            x       y       z     vdW  Elec       q    Type
REMARK                         _______ _______ _______ _____ _____    ______ ____
ROOT
ATOM      1  O   UNL     1       3.997   5.415  -0.351  0.00  0.00    -0.268 OA
ATOM      2  C   UNL     1       3.621   5.539  -1.160  0.00  0.00    +0.300 C 
ATOM      3  C   UNL     1       2.580   6.804  -0.989  0.00  0.00    +0.333 C 
ATOM      4  O   UNL     1       3.194   7.570  -2.188  0.00  0.00    -0.186 OA
ATOM      5  N   UNL     1       1.417   6.081  -1.822  0.00  0.00    -0.233 NA
ATOM      6  C   UNL     1       1.236   6.150  -3.064  0.00  0.00    +0.080 C 
ATOM      7  C   UNL     1       2.356   5.956  -4.001  0.00  0.00    +0.034 A 
ATOM      8  C   UNL     1       3.527   5.252  -3.735  0.00  0.00    +0.075 A 
ATOM      9  C   UNL     1       4.409   5.079  -4.756  0.00  0.00    +0.018 A 
ATOM     10  C   UNL     1       4.234   5.882  -5.882  0.00  0.00    +0.013 A 
ATOM     11  C   UNL     1       2.968   6.311  -6.258  0.00  0.00    +0.058 A 
ATOM     12 CL   UNL     1       2.693   7.409  -7.598  0.00  0.00    -0.082 Cl
ATOM     13  C   UNL     1       1.971   6.116  -5.308  0.00  0.00    +0.014 A 
ATOM     14  N   UNL     1       4.026   5.017  -2.413  0.00  0.00    -0.175 NA
ENDROOT
BRANCH   6  15
ATOM     15  C   UNL     1      -0.106   6.109  -3.649  0.00  0.00    +0.017 A 
ATOM     16  C   UNL     1      -1.086   5.286  -3.106  0.00  0.00    +0.001 A 
ATOM     17  C   UNL     1      -2.406   5.479  -3.492  0.00  0.00    +0.000 A 
ATOM     18  C   UNL     1      -2.699   6.310  -4.557  0.00  0.00    +0.000 A 
ATOM     19  C   UNL     1      -1.728   7.166  -5.064  0.00  0.00    +0.000 A 
ATOM     20  C   UNL     1      -0.569   7.245  -4.308  0.00  0.00    +0.001 A 
ENDBRANCH   6  15
TORSDOF 1
ENDMDL
