MODEL 1
REMARK VINA RESULT:      -9.4      0.000      0.000
REMARK  Name = 
REMARK  4 active torsions:
REMARK  status: ('A' for Active; 'I' for Inactive)
REMARK    1  A    between atoms: C_2  and  C_3
REMARK    2  A    between atoms: C_5  and  C_6
REMARK    3  A    between atoms: C_6  and  C_7
REMARK    4  A    between atoms: C_26  and  C_28
REMARK                            x       y       z     vdW  Elec       q    Type
REMARK                         _______ _______ _______ _____ _____    ______ ____
ROOT
ATOM      1  C   UNL     1       2.794   6.119  -4.707  0.00  0.00    +0.081 A 
ATOM      2  C   UNL     1       4.047   6.689  -4.529  0.00  0.00    +0.144 A 
ATOM      3  F   UNL     1       4.279   7.945  -5.010  0.00  0.00    -0.204 F 
ATOM      4  C   UNL     1       4.811   6.139  -3.507  0.00  0.00    +0.029 A 
ATOM      5  C   UNL     1       4.236   5.253  -2.602  0.00  0.00    -0.002 A 
ATOM      6  C   UNL     1       2.856   5.102  -2.529  0.00  0.00    -0.016 A 
ATOM      7  C   UNL     1       2.169   5.410  -3.688  0.00  0.00    +0.003 A 
ENDROOT
BRANCH   1   9
ATOM      8  O   UNL     1       0.991   7.135  -5.843  0.00  0.00    -0.270 OA
ATOM      9  C   UNL     1       2.042   6.427  -5.904  0.00  0.00    +0.251 C 
ATOM     10  N   UNL     1       2.433   5.906  -7.180  0.00  0.00    -0.273 N 
ATOM     11  C   UNL     1       2.316   4.459  -7.325  0.00  0.00    +0.115 C 
ATOM     12  C   UNL     1       2.940   3.959  -8.599  0.00  0.00    +0.115 C 
ATOM     13  N   UNL     1       3.196   5.040  -9.548  0.00  0.00    -0.276 N 
ATOM     14  C   UNL     1       4.535   5.538  -9.641  0.00  0.00    +0.225 C 
ATOM     15  O   UNL     1       5.450   5.105  -8.879  0.00  0.00    -0.275 OA
ATOM     16  C   UNL     1       2.144   6.052  -9.620  0.00  0.00    +0.115 C 
ATOM     17  C   UNL     1       2.195   6.796  -8.313  0.00  0.00    +0.115 C 
BRANCH  14  18
ATOM     18  C   UNL     1       4.831   6.825 -10.335  0.00  0.00    +0.077 C 
ATOM     19  C   UNL     1       5.199   6.600 -11.824  0.00  0.00    +0.010 C 
ATOM     20  C   UNL     1       6.234   7.062 -10.770  0.00  0.00    +0.010 C 
ENDBRANCH  14  18
ENDBRANCH   1   9
BRANCH   6  21
ATOM     21  C   UNL     1       2.129   5.073  -1.224  0.00  0.00    +0.074 C 
BRANCH  21  22
ATOM     22  C   UNL     1       1.484   6.360  -0.912  0.00  0.00    +0.085 A 
ATOM     23  C   UNL     1       0.108   6.439  -0.927  0.00  0.00    +0.020 A 
ATOM     24  C   UNL     1      -0.493   7.583  -0.417  0.00  0.00    +0.061 A 
ATOM     25  C   UNL     1      -1.829   7.841  -0.693  0.00  0.00    +0.005 A 
ATOM     26  C   UNL     1      -2.483   6.942  -1.518  0.00  0.00    +0.000 A 
ATOM     27  C   UNL     1      -2.018   5.650  -1.657  0.00  0.00    +0.000 A 
ATOM     28  C   UNL     1       0.199   8.355   0.508  0.00  0.00    +0.297 A 
ATOM     29  O   UNL     1      -0.319   9.408   0.973  0.00  0.00    -0.264 OA
ATOM     30  N   UNL     1       1.500   8.042   0.728  0.00  0.00    -0.106 NA
ATOM     31  C   UNL     1      -0.714   5.381  -1.261  0.00  0.00    +0.001 A 
ATOM     32  N   UNL     1       2.119   7.296  -0.165  0.00  0.00    -0.149 NA
ENDBRANCH  21  22
ENDBRANCH   6  21
TORSDOF 4
ENDMDL
MODEL 2
REMARK VINA RESULT:      -9.2      1.622      2.073
REMARK  Name = 
REMARK  4 active torsions:
REMARK  status: ('A' for Active; 'I' for Inactive)
REMARK    1  A    between atoms: C_2  and  C_3
REMARK    2  A    between atoms: C_5  and  C_6
REMARK    3  A    between atoms: C_6  and  C_7
REMARK    4  A    between atoms: C_26  and  C_28
REMARK                            x       y       z     vdW  Elec       q    Type
REMARK                         _______ _______ _______ _____ _____    ______ ____
ROOT
ATOM      1  C   UNL     1       3.123   5.995  -4.936  0.00  0.00    +0.081 A 
ATOM      2  C   UNL     1       4.509   5.943  -4.873  0.00  0.00    +0.144 A 
ATOM      3  F   UNL     1       5.239   6.865  -5.564  0.00  0.00    -0.204 F 
ATOM      4  C   UNL     1       5.029   5.261  -3.779  0.00  0.00    +0.029 A 
ATOM      5  C   UNL     1       4.199   4.883  -2.730  0.00  0.00    -0.002 A 
ATOM      6  C   UNL     1       2.912   5.396  -2.616  0.00  0.00    -0.016 A 
ATOM      7  C   UNL     1       2.338   5.812  -3.803  0.00  0.00    +0.003 A 
ENDROOT
BRANCH   1   9
ATOM      8  O   UNL     1       1.470   7.189  -6.124  0.00  0.00    -0.270 OA
ATOM      9  C   UNL     1       2.488   6.434  -6.159  0.00  0.00    +0.251 C 
ATOM     10  N   UNL     1       2.959   5.994  -7.438  0.00  0.00    -0.273 N 
ATOM     11  C   UNL     1       2.788   4.571  -7.710  0.00  0.00    +0.115 C 
ATOM     12  C   UNL     1       3.492   4.140  -8.967  0.00  0.00    +0.115 C 
ATOM     13  N   UNL     1       3.875   5.276  -9.802  0.00  0.00    -0.276 N 
ATOM     14  C   UNL     1       5.239   5.708  -9.747  0.00  0.00    +0.225 C 
ATOM     15  O   UNL     1       6.067   5.169  -8.953  0.00  0.00    -0.275 OA
ATOM     16  C   UNL     1       2.881   6.345  -9.874  0.00  0.00    +0.115 C 
ATOM     17  C   UNL     1       2.858   6.980  -8.511  0.00  0.00    +0.115 C 
BRANCH  14  18
ATOM     18  C   UNL     1       5.652   7.028 -10.307  0.00  0.00    +0.077 C 
ATOM     19  C   UNL     1       6.093   6.908 -11.790  0.00  0.00    +0.010 C 
ATOM     20  C   UNL     1       7.089   7.211 -10.645  0.00  0.00    +0.010 C 
ENDBRANCH  14  18
ENDBRANCH   1   9
BRANCH   6  21
ATOM     21  C   UNL     1       2.370   5.899  -1.317  0.00  0.00    +0.074 C 
BRANCH  21  22
ATOM     22  C   UNL     1       0.931   5.620  -1.164  0.00  0.00    +0.085 A 
ATOM     23  C   UNL     1       0.132   6.556  -0.542  0.00  0.00    +0.020 A 
ATOM     24  C   UNL     1      -1.246   6.390  -0.603  0.00  0.00    +0.061 A 
ATOM     25  C   UNL     1      -2.064   7.112   0.256  0.00  0.00    +0.005 A 
ATOM     26  C   UNL     1      -1.437   7.940   1.171  0.00  0.00    +0.000 A 
ATOM     27  C   UNL     1      -0.155   8.397   0.941  0.00  0.00    +0.000 A 
ATOM     28  C   UNL     1      -1.793   5.644  -1.639  0.00  0.00    +0.297 A 
ATOM     29  O   UNL     1      -3.041   5.465  -1.705  0.00  0.00    -0.264 OA
ATOM     30  N   UNL     1      -0.932   4.967  -2.437  0.00  0.00    -0.106 NA
ATOM     31  C   UNL     1       0.611   7.736  -0.011  0.00  0.00    +0.001 A 
ATOM     32  N   UNL     1       0.293   4.762  -1.998  0.00  0.00    -0.149 NA
ENDBRANCH  21  22
ENDBRANCH   6  21
TORSDOF 4
ENDMDL
MODEL 3
REMARK VINA RESULT:      -9.1      2.402      8.966
REMARK  Name = 
REMARK  4 active torsions:
REMARK  status: ('A' for Active; 'I' for Inactive)
REMARK    1  A    between atoms: C_2  and  C_3
REMARK    2  A    between atoms: C_5  and  C_6
REMARK    3  A    between atoms: C_6  and  C_7
REMARK    4  A    between atoms: C_26  and  C_28
REMARK                            x       y       z     vdW  Elec       q    Type
REMARK                         _______ _______ _______ _____ _____    ______ ____
ROOT
ATOM      1  C   UNL     1       2.458   5.957  -5.141  0.00  0.00    +0.081 A 
ATOM      2  C   UNL     1       1.097   6.226  -5.115  0.00  0.00    +0.144 A 
ATOM      3  F   UNL     1       0.677   7.524  -5.072  0.00  0.00    -0.204 F 
ATOM      4  C   UNL     1       0.280   5.203  -5.582  0.00  0.00    +0.029 A 
ATOM      5  C   UNL     1       0.834   4.109  -6.237  0.00  0.00    -0.002 A 
ATOM      6  C   UNL     1       2.153   4.129  -6.673  0.00  0.00    -0.016 A 
ATOM      7  C   UNL     1       2.989   4.981  -5.976  0.00  0.00    +0.003 A 
ENDROOT
BRANCH   1   9
ATOM      8  O   UNL     1       4.088   7.663  -5.059  0.00  0.00    -0.270 OA
ATOM      9  C   UNL     1       3.364   6.833  -4.430  0.00  0.00    +0.251 C 
ATOM     10  N   UNL     1       3.504   6.757  -3.006  0.00  0.00    -0.273 N 
ATOM     11  C   UNL     1       4.099   5.523  -2.503  0.00  0.00    +0.115 C 
ATOM     12  C   UNL     1       4.019   5.420  -1.005  0.00  0.00    +0.115 C 
ATOM     13  N   UNL     1       3.699   6.701  -0.380  0.00  0.00    -0.276 N 
ATOM     14  C   UNL     1       2.345   6.917   0.034  0.00  0.00    +0.225 C 
ATOM     15  O   UNL     1       1.443   6.056  -0.196  0.00  0.00    -0.275 OA
ATOM     16  C   UNL     1       4.364   7.856  -0.978  0.00  0.00    +0.115 C 
ATOM     17  C   UNL     1       3.742   8.033  -2.336  0.00  0.00    +0.115 C 
BRANCH  14  18
ATOM     18  C   UNL     1       1.856   8.281   0.387  0.00  0.00    +0.077 C 
ATOM     19  C   UNL     1       1.929   8.538   1.915  0.00  0.00    +0.010 C 
ATOM     20  C   UNL     1       0.588   8.378   1.159  0.00  0.00    +0.010 C 
ENDBRANCH  14  18
ENDBRANCH   1   9
BRANCH   6  21
ATOM     21  C   UNL     1       2.546   3.661  -8.037  0.00  0.00    +0.074 C 
BRANCH  21  22
ATOM     22  C   UNL     1       2.392   4.711  -9.058  0.00  0.00    +0.085 A 
ATOM     23  C   UNL     1       3.521   5.242  -9.647  0.00  0.00    +0.020 A 
ATOM     24  C   UNL     1       3.362   6.060 -10.758  0.00  0.00    +0.061 A 
ATOM     25  C   UNL     1       4.418   6.855 -11.184  0.00  0.00    +0.005 A 
ATOM     26  C   UNL     1       5.577   6.814 -10.429  0.00  0.00    +0.000 A 
ATOM     27  C   UNL     1       5.853   5.728  -9.623  0.00  0.00    +0.000 A 
ATOM     28  C   UNL     1       2.214   5.936 -11.531  0.00  0.00    +0.297 A 
ATOM     29  O   UNL     1       2.039   6.680 -12.535  0.00  0.00    -0.264 OA
ATOM     30  N   UNL     1       1.226   5.140 -11.052  0.00  0.00    -0.106 NA
ATOM     31  C   UNL     1       4.806   4.872  -9.304  0.00  0.00    +0.001 A 
ATOM     32  N   UNL     1       1.246   4.828  -9.772  0.00  0.00    -0.149 NA
ENDBRANCH  21  22
ENDBRANCH   6  21
TORSDOF 4
ENDMDL
MODEL 4
REMARK VINA RESULT:      -9.1      2.701      3.643
REMARK  Name = 
REMARK  4 active torsions:
REMARK  status: ('A' for Active; 'I' for Inactive)
REMARK    1  A    between atoms: C_2  and  C_3
REMARK    2  A    between atoms: C_5  and  C_6
REMARK    3  A    between atoms: C_6  and  C_7
REMARK    4  A    between atoms: C_26  and  C_28
REMARK                            x       y       z     vdW  Elec       q    Type
REMARK                         _______ _______ _______ _____ _____    ______ ____
ROOT
ATOM      1  C   UNL     1       0.185   5.248  -5.711  0.00  0.00    +0.081 A 
ATOM      2  C   UNL     1      -1.047   5.430  -6.326  0.00  0.00    +0.144 A 
ATOM      3  F   UNL     1      -1.487   4.496  -7.218  0.00  0.00    -0.204 F 
ATOM      4  C   UNL     1      -1.918   6.289  -5.667  0.00  0.00    +0.029 A 
ATOM      5  C   UNL     1      -1.633   6.721  -4.377  0.00  0.00    -0.002 A 
ATOM      6  C   UNL     1      -0.635   6.115  -3.624  0.00  0.00    -0.016 A 
ATOM      7  C   UNL     1       0.364   5.502  -4.356  0.00  0.00    +0.003 A 
ENDROOT
BRANCH   1   9
ATOM      8  O   UNL     1       1.735   3.499  -6.046  0.00  0.00    -0.270 OA
ATOM      9  C   UNL     1       1.252   4.602  -6.445  0.00  0.00    +0.251 C 
ATOM     10  N   UNL     1       1.822   5.208  -7.610  0.00  0.00    -0.273 N 
ATOM     11  C   UNL     1       2.562   6.444  -7.372  0.00  0.00    +0.115 C 
ATOM     12  C   UNL     1       2.946   7.136  -8.651  0.00  0.00    +0.115 C 
ATOM     13  N   UNL     1       2.813   6.261  -9.813  0.00  0.00    -0.276 N 
ATOM     14  C   UNL     1       1.648   6.416 -10.631  0.00  0.00    +0.225 C 
ATOM     15  O   UNL     1       0.732   7.235 -10.319  0.00  0.00    -0.275 OA
ATOM     16  C   UNL     1       3.245   4.882  -9.593  0.00  0.00    +0.115 C 
ATOM     17  C   UNL     1       2.235   4.277  -8.657  0.00  0.00    +0.115 C 
BRANCH  14  18
ATOM     18  C   UNL     1       1.270   5.382 -11.637  0.00  0.00    +0.077 C 
ATOM     19  C   UNL     1       2.003   5.602 -12.986  0.00  0.00    +0.010 C 
ATOM     20  C   UNL     1       0.482   5.829 -12.817  0.00  0.00    +0.010 C 
ENDBRANCH  14  18
ENDBRANCH   1   9
BRANCH   6  21
ATOM     21  C   UNL     1      -0.840   5.735  -2.193  0.00  0.00    +0.074 C 
BRANCH  21  22
ATOM     22  C   UNL     1      -0.017   6.541  -1.274  0.00  0.00    +0.085 A 
ATOM     23  C   UNL     1      -0.612   7.110  -0.168  0.00  0.00    +0.020 A 
ATOM     24  C   UNL     1       0.206   7.673   0.804  0.00  0.00    +0.061 A 
ATOM     25  C   UNL     1      -0.343   8.519   1.758  0.00  0.00    +0.005 A 
ATOM     26  C   UNL     1      -1.696   8.790   1.653  0.00  0.00    +0.000 A 
ATOM     27  C   UNL     1      -2.535   7.926   0.977  0.00  0.00    +0.000 A 
ATOM     28  C   UNL     1       1.520   7.240   0.915  0.00  0.00    +0.297 A 
ATOM     29  O   UNL     1       2.288   7.749   1.779  0.00  0.00    -0.264 OA
ATOM     30  N   UNL     1       1.986   6.414  -0.054  0.00  0.00    -0.106 NA
ATOM     31  C   UNL     1      -1.959   7.002   0.114  0.00  0.00    +0.001 A 
ATOM     32  N   UNL     1       1.323   6.354  -1.191  0.00  0.00    -0.149 NA
ENDBRANCH  21  22
ENDBRANCH   6  21
TORSDOF 4
ENDMDL
MODEL 5
REMARK VINA RESULT:      -9.1      3.724     10.950
REMARK  Name = 
REMARK  4 active torsions:
REMARK  status: ('A' for Active; 'I' for Inactive)
REMARK    1  A    between atoms: C_2  and  C_3
REMARK    2  A    between atoms: C_5  and  C_6
REMARK    3  A    between atoms: C_6  and  C_7
REMARK    4  A    between atoms: C_26  and  C_28
REMARK                            x       y       z     vdW  Elec       q    Type
REMARK                         _______ _______ _______ _____ _____    ______ ____
ROOT
ATOM      1  C   UNL     1       1.782   6.026 -10.355  0.00  0.00    +0.081 A 
ATOM      2  C   UNL     1       0.407   5.918 -10.508  0.00  0.00    +0.144 A 
ATOM      3  F   UNL     1      -0.403   6.828  -9.895  0.00  0.00    -0.204 F 
ATOM      4  C   UNL     1      -0.012   5.185 -11.613  0.00  0.00    +0.029 A 
ATOM      5  C   UNL     1       0.900   4.812 -12.593  0.00  0.00    -0.002 A 
ATOM      6  C   UNL     1       2.171   5.373 -12.636  0.00  0.00    -0.016 A 
ATOM      7  C   UNL     1       2.648   5.844 -11.427  0.00  0.00    +0.003 A 
ENDROOT
BRANCH   1   9
ATOM      8  O   UNL     1       3.303   7.321  -9.097  0.00  0.00    -0.270 OA
ATOM      9  C   UNL     1       2.316   6.524  -9.106  0.00  0.00    +0.251 C 
ATOM     10  N   UNL     1       1.780   6.098  -7.848  0.00  0.00    -0.273 N 
ATOM     11  C   UNL     1       1.991   4.690  -7.525  0.00  0.00    +0.115 C 
ATOM     12  C   UNL     1       1.224   4.263  -6.304  0.00  0.00    +0.115 C 
ATOM     13  N   UNL     1       0.739   5.403  -5.530  0.00  0.00    -0.276 N 
ATOM     14  C   UNL     1      -0.635   5.775  -5.686  0.00  0.00    +0.225 C 
ATOM     15  O   UNL     1      -1.385   5.181  -6.516  0.00  0.00    -0.275 OA
ATOM     16  C   UNL     1       1.682   6.515  -5.424  0.00  0.00    +0.115 C 
ATOM     17  C   UNL     1       1.769   7.115  -6.800  0.00  0.00    +0.115 C 
BRANCH  14  18
ATOM     18  C   UNL     1      -1.138   7.090  -5.191  0.00  0.00    +0.077 C 
ATOM     19  C   UNL     1      -1.873   6.948  -3.834  0.00  0.00    +0.010 C 
ATOM     20  C   UNL     1      -2.611   7.290  -5.150  0.00  0.00    +0.010 C 
ENDBRANCH  14  18
ENDBRANCH   1   9
BRANCH   6  21
ATOM     21  C   UNL     1       2.781   5.860 -13.911  0.00  0.00    +0.074 C 
BRANCH  21  22
ATOM     22  C   UNL     1       4.210   5.517 -14.017  0.00  0.00    +0.085 A 
ATOM     23  C   UNL     1       5.035   6.321 -14.773  0.00  0.00    +0.020 A 
ATOM     24  C   UNL     1       6.408   6.124 -14.686  0.00  0.00    +0.061 A 
ATOM     25  C   UNL     1       7.245   6.682 -15.643  0.00  0.00    +0.005 A 
ATOM     26  C   UNL     1       6.641   7.379 -16.675  0.00  0.00    +0.000 A 
ATOM     27  C   UNL     1       5.375   7.906 -16.519  0.00  0.00    +0.000 A 
ATOM     28  C   UNL     1       6.934   5.528 -13.548  0.00  0.00    +0.297 A 
ATOM     29  O   UNL     1       8.177   5.323 -13.453  0.00  0.00    -0.264 OA
ATOM     30  N   UNL     1       6.055   5.008 -12.656  0.00  0.00    -0.106 NA
ATOM     31  C   UNL     1       4.591   7.422 -15.479  0.00  0.00    +0.001 A 
ATOM     32  N   UNL     1       4.823   4.776 -13.062  0.00  0.00    -0.149 NA
ENDBRANCH  21  22
ENDBRANCH   6  21
TORSDOF 4
ENDMDL
MODEL 6
REMARK VINA RESULT:      -9.0      2.283      9.715
REMARK  Name = 
REMARK  4 active torsions:
REMARK  status: ('A' for Active; 'I' for Inactive)
REMARK    1  A    between atoms: C_2  and  C_3
REMARK    2  A    between atoms: C_5  and  C_6
REMARK    3  A    between atoms: C_6  and  C_7
REMARK    4  A    between atoms: C_26  and  C_28
REMARK                            x       y       z     vdW  Elec       q    Type
REMARK                         _______ _______ _______ _____ _____    ______ ____
ROOT
ATOM      1  C   UNL     1       3.249   5.834  -5.647  0.00  0.00    +0.081 A 
ATOM      2  C   UNL     1       2.101   5.056  -5.579  0.00  0.00    +0.144 A 
ATOM      3  F   UNL     1       1.020   5.527  -4.892  0.00  0.00    -0.204 F 
ATOM      4  C   UNL     1       1.980   4.087  -6.568  0.00  0.00    +0.029 A 
ATOM      5  C   UNL     1       2.842   4.088  -7.658  0.00  0.00    -0.002 A 
ATOM      6  C   UNL     1       3.654   5.184  -7.926  0.00  0.00    -0.016 A 
ATOM      7  C   UNL     1       3.965   5.967  -6.831  0.00  0.00    +0.003 A 
ENDROOT
BRANCH   1   9
ATOM      8  O   UNL     1       4.278   7.731  -4.692  0.00  0.00    -0.270 OA
ATOM      9  C   UNL     1       3.601   6.673  -4.522  0.00  0.00    +0.251 C 
ATOM     10  N   UNL     1       3.237   6.310  -3.185  0.00  0.00    -0.273 N 
ATOM     11  C   UNL     1       3.892   5.115  -2.662  0.00  0.00    +0.115 C 
ATOM     12  C   UNL     1       3.310   4.672  -1.348  0.00  0.00    +0.115 C 
ATOM     13  N   UNL     1       2.488   5.711  -0.731  0.00  0.00    -0.276 N 
ATOM     14  C   UNL     1       1.067   5.597  -0.862  0.00  0.00    +0.225 C 
ATOM     15  O   UNL     1       0.543   4.668  -1.547  0.00  0.00    -0.275 OA
ATOM     16  C   UNL     1       3.023   7.066  -0.851  0.00  0.00    +0.115 C 
ATOM     17  C   UNL     1       2.904   7.429  -2.306  0.00  0.00    +0.115 C 
BRANCH  14  18
ATOM     18  C   UNL     1       0.170   6.747  -0.547  0.00  0.00    +0.077 C 
ATOM     19  C   UNL     1      -0.246   6.756   0.947  0.00  0.00    +0.010 C 
ATOM     20  C   UNL     1      -1.242   6.439  -0.195  0.00  0.00    +0.010 C 
ENDBRANCH  14  18
ENDBRANCH   1   9
BRANCH   6  21
ATOM     21  C   UNL     1       3.795   5.750  -9.303  0.00  0.00    +0.074 C 
BRANCH  21  22
ATOM     22  C   UNL     1       5.105   5.445  -9.903  0.00  0.00    +0.085 A 
ATOM     23  C   UNL     1       5.280   5.636 -11.257  0.00  0.00    +0.020 A 
ATOM     24  C   UNL     1       6.569   5.564 -11.772  0.00  0.00    +0.061 A 
ATOM     25  C   UNL     1       6.756   5.437 -13.142  0.00  0.00    +0.005 A 
ATOM     26  C   UNL     1       5.618   5.344 -13.925  0.00  0.00    +0.000 A 
ATOM     27  C   UNL     1       4.409   5.828 -13.466  0.00  0.00    +0.000 A 
ATOM     28  C   UNL     1       7.648   5.801 -10.931  0.00  0.00    +0.297 A 
ATOM     29  O   UNL     1       8.828   5.723 -11.371  0.00  0.00    -0.264 OA
ATOM     30  N   UNL     1       7.387   5.915  -9.605  0.00  0.00    -0.106 NA
ATOM     31  C   UNL     1       4.277   6.064 -12.103  0.00  0.00    +0.001 A 
ATOM     32  N   UNL     1       6.236   5.457  -9.156  0.00  0.00    -0.149 NA
ENDBRANCH  21  22
ENDBRANCH   6  21
TORSDOF 4
ENDMDL
MODEL 7
REMARK VINA RESULT:      -8.8      2.001      8.379
REMARK  Name = 
REMARK  4 active torsions:
REMARK  status: ('A' for Active; 'I' for Inactive)
REMARK    1  A    between atoms: C_2  and  C_3
REMARK    2  A    between atoms: C_5  and  C_6
REMARK    3  A    between atoms: C_6  and  C_7
REMARK    4  A    between atoms: C_26  and  C_28
REMARK                            x       y       z     vdW  Elec       q    Type
REMARK                         _______ _______ _______ _____ _____    ______ ____
ROOT
ATOM      1  C   UNL     1       3.705   7.329  -2.787  0.00  0.00    +0.081 A 
ATOM      2  C   UNL     1       5.085   7.405  -2.652  0.00  0.00    +0.144 A 
ATOM      3  F   UNL     1       5.663   6.967  -1.497  0.00  0.00    -0.204 F 
ATOM      4  C   UNL     1       5.794   7.494  -3.844  0.00  0.00    +0.029 A 
ATOM      5  C   UNL     1       5.153   7.279  -5.058  0.00  0.00    -0.002 A 
ATOM      6  C   UNL     1       3.882   6.718  -5.106  0.00  0.00    -0.016 A 
ATOM      7  C   UNL     1       3.115   6.904  -3.972  0.00  0.00    +0.003 A 
ENDROOT
BRANCH   1   9
ATOM      8  O   UNL     1       3.196   8.335  -0.713  0.00  0.00    -0.270 OA
ATOM      9  C   UNL     1       2.870   7.509  -1.619  0.00  0.00    +0.251 C 
ATOM     10  N   UNL     1       1.682   6.732  -1.430  0.00  0.00    -0.273 N 
ATOM     11  C   UNL     1       1.899   5.305  -1.212  0.00  0.00    +0.115 C 
ATOM     12  C   UNL     1       0.615   4.522  -1.236  0.00  0.00    +0.115 C 
ATOM     13  N   UNL     1      -0.559   5.383  -1.115  0.00  0.00    -0.276 N 
ATOM     14  C   UNL     1      -1.277   5.697  -2.314  0.00  0.00    +0.225 C 
ATOM     15  O   UNL     1      -0.870   5.299  -3.446  0.00  0.00    -0.275 OA
ATOM     16  C   UNL     1      -0.415   6.484  -0.164  0.00  0.00    +0.115 C 
ATOM     17  C   UNL     1       0.579   7.432  -0.777  0.00  0.00    +0.115 C 
BRANCH  14  18
ATOM     18  C   UNL     1      -2.282   6.800  -2.343  0.00  0.00    +0.077 C 
ATOM     19  C   UNL     1      -3.700   6.273  -2.684  0.00  0.00    +0.010 C 
ATOM     20  C   UNL     1      -2.879   7.149  -3.660  0.00  0.00    +0.010 C 
ENDBRANCH  14  18
ENDBRANCH   1   9
BRANCH   6  21
ATOM     21  C   UNL     1       3.532   5.626  -6.064  0.00  0.00    +0.074 C 
BRANCH  21  22
ATOM     22  C   UNL     1       3.213   6.138  -7.408  0.00  0.00    +0.085 A 
ATOM     23  C   UNL     1       4.120   5.947  -8.429  0.00  0.00    +0.020 A 
ATOM     24  C   UNL     1       3.719   6.228  -9.728  0.00  0.00    +0.061 A 
ATOM     25  C   UNL     1       4.672   6.353 -10.731  0.00  0.00    +0.005 A 
ATOM     26  C   UNL     1       5.998   6.228 -10.355  0.00  0.00    +0.000 A 
ATOM     27  C   UNL     1       6.340   5.554  -9.200  0.00  0.00    +0.000 A 
ATOM     28  C   UNL     1       2.366   6.203 -10.039  0.00  0.00    +0.297 A 
ATOM     29  O   UNL     1       1.975   6.472 -11.209  0.00  0.00    -0.264 OA
ATOM     30  N   UNL     1       1.494   6.077  -9.008  0.00  0.00    -0.106 NA
ATOM     31  C   UNL     1       5.344   5.331  -8.257  0.00  0.00    +0.001 A 
ATOM     32  N   UNL     1       1.929   6.340  -7.792  0.00  0.00    -0.149 NA
ENDBRANCH  21  22
ENDBRANCH   6  21
TORSDOF 4
ENDMDL
MODEL 8
REMARK VINA RESULT:      -8.8      2.567      3.749
REMARK  Name = 
REMARK  4 active torsions:
REMARK  status: ('A' for Active; 'I' for Inactive)
REMARK    1  A    between atoms: C_2  and  C_3
REMARK    2  A    between atoms: C_5  and  C_6
REMARK    3  A    between atoms: C_6  and  C_7
REMARK    4  A    between atoms: C_26  and  C_28
REMARK                            x       y       z     vdW  Elec       q    Type
REMARK                         _______ _______ _______ _____ _____    ______ ____
ROOT
ATOM      1  C   UNL     1       0.481   5.134  -5.439  0.00  0.00    +0.081 A 
ATOM      2  C   UNL     1      -0.727   5.510  -6.010  0.00  0.00    +0.144 A 
ATOM      3  F   UNL     1      -1.242   4.761  -7.028  0.00  0.00    -0.204 F 
ATOM      4  C   UNL     1      -1.526   6.333  -5.224  0.00  0.00    +0.029 A 
ATOM      5  C   UNL     1      -1.212   6.542  -3.886  0.00  0.00    -0.002 A 
ATOM      6  C   UNL     1      -0.273   5.747  -3.239  0.00  0.00    -0.016 A 
ATOM      7  C   UNL     1       0.674   5.167  -4.063  0.00  0.00    +0.003 A 
ENDROOT
BRANCH   1   9
ATOM      8  O   UNL     1       2.008   3.405  -5.940  0.00  0.00    -0.270 OA
ATOM      9  C   UNL     1       1.492   4.516  -6.269  0.00  0.00    +0.251 C 
ATOM     10  N   UNL     1       1.972   5.160  -7.455  0.00  0.00    -0.273 N 
ATOM     11  C   UNL     1       2.722   6.392  -7.236  0.00  0.00    +0.115 C 
ATOM     12  C   UNL     1       3.008   7.123  -8.519  0.00  0.00    +0.115 C 
ATOM     13  N   UNL     1       2.792   6.281  -9.693  0.00  0.00    -0.276 N 
ATOM     14  C   UNL     1       1.568   6.454 -10.417  0.00  0.00    +0.225 C 
ATOM     15  O   UNL     1       0.676   7.258 -10.014  0.00  0.00    -0.275 OA
ATOM     16  C   UNL     1       3.244   4.899  -9.547  0.00  0.00    +0.115 C 
ATOM     17  C   UNL     1       2.308   4.262  -8.557  0.00  0.00    +0.115 C 
BRANCH  14  18
ATOM     18  C   UNL     1       1.120   5.447 -11.423  0.00  0.00    +0.077 C 
ATOM     19  C   UNL     1       1.781   5.687 -12.806  0.00  0.00    +0.010 C 
ATOM     20  C   UNL     1       0.274   5.931 -12.547  0.00  0.00    +0.010 C 
ENDBRANCH  14  18
ENDBRANCH   1   9
BRANCH   6  21
ATOM     21  C   UNL     1      -0.517   5.177  -1.879  0.00  0.00    +0.074 C 
BRANCH  21  22
ATOM     22  C   UNL     1      -0.465   6.202  -0.823  0.00  0.00    +0.085 A 
ATOM     23  C   UNL     1       0.750   6.769  -0.501  0.00  0.00    +0.020 A 
ATOM     24  C   UNL     1       0.758   7.884   0.327  0.00  0.00    +0.061 A 
ATOM     25  C   UNL     1       1.945   8.290   0.923  0.00  0.00    +0.005 A 
ATOM     26  C   UNL     1       3.065   7.512   0.683  0.00  0.00    +0.000 A 
ATOM     27  C   UNL     1       3.130   6.700  -0.431  0.00  0.00    +0.000 A 
ATOM     28  C   UNL     1      -0.378   8.680   0.402  0.00  0.00    +0.297 A 
ATOM     29  O   UNL     1      -0.400   9.688   1.161  0.00  0.00    -0.264 OA
ATOM     30  N   UNL     1      -1.499   8.219  -0.205  0.00  0.00    -0.106 NA
ATOM     31  C   UNL     1       1.943   6.400  -1.089  0.00  0.00    +0.001 A 
ATOM     32  N   UNL     1      -1.559   6.939  -0.510  0.00  0.00    -0.149 NA
ENDBRANCH  21  22
ENDBRANCH   6  21
TORSDOF 4
ENDMDL
MODEL 9
REMARK VINA RESULT:      -8.7      3.183      4.958
REMARK  Name = 
REMARK  4 active torsions:
REMARK  status: ('A' for Active; 'I' for Inactive)
REMARK    1  A    between atoms: C_2  and  C_3
REMARK    2  A    between atoms: C_5  and  C_6
REMARK    3  A    between atoms: C_6  and  C_7
REMARK    4  A    between atoms: C_26  and  C_28
REMARK                            x       y       z     vdW  Elec       q    Type
REMARK                         _______ _______ _______ _____ _____    ______ ____
ROOT
ATOM      1  C   UNL     1      -1.516   6.584  -3.872  0.00  0.00    +0.081 A 
ATOM      2  C   UNL     1      -2.733   5.916  -3.829  0.00  0.00    +0.144 A 
ATOM      3  F   UNL     1      -2.997   4.958  -4.764  0.00  0.00    -0.204 F 
ATOM      4  C   UNL     1      -3.385   5.949  -2.602  0.00  0.00    +0.029 A 
ATOM      5  C   UNL     1      -2.726   6.417  -1.471  0.00  0.00    -0.002 A 
ATOM      6  C   UNL     1      -1.350   6.609  -1.474  0.00  0.00    -0.016 A 
ATOM      7  C   UNL     1      -0.792   6.847  -2.716  0.00  0.00    +0.003 A 
ENDROOT
BRANCH   1   9
ATOM      8  O   UNL     1      -1.454   7.611  -5.997  0.00  0.00    -0.270 OA
ATOM      9  C   UNL     1      -0.898   6.843  -5.155  0.00  0.00    +0.251 C 
ATOM     10  N   UNL     1       0.329   6.205  -5.528  0.00  0.00    -0.273 N 
ATOM     11  C   UNL     1       0.249   4.760  -5.714  0.00  0.00    +0.115 C 
ATOM     12  C   UNL     1       1.604   4.131  -5.892  0.00  0.00    +0.115 C 
ATOM     13  N   UNL     1       2.637   5.121  -6.190  0.00  0.00    -0.276 N 
ATOM     14  C   UNL     1       3.489   5.533  -5.116  0.00  0.00    +0.225 C 
ATOM     15  O   UNL     1       3.311   5.108  -3.936  0.00  0.00    -0.275 OA
ATOM     16  C   UNL     1       2.220   6.183  -7.104  0.00  0.00    +0.115 C 
ATOM     17  C   UNL     1       1.229   7.018  -6.341  0.00  0.00    +0.115 C 
BRANCH  14  18
ATOM     18  C   UNL     1       4.351   6.745  -5.239  0.00  0.00    +0.077 C 
ATOM     19  C   UNL     1       5.469   6.764  -4.164  0.00  0.00    +0.010 C 
ATOM     20  C   UNL     1       4.278   7.753  -4.147  0.00  0.00    +0.010 C 
ENDBRANCH  14  18
ENDBRANCH   1   9
BRANCH   6  21
ATOM     21  C   UNL     1      -0.481   6.142  -0.351  0.00  0.00    +0.074 C 
BRANCH  21  22
ATOM     22  C   UNL     1       0.905   5.891  -0.780  0.00  0.00    +0.085 A 
ATOM     23  C   UNL     1       1.893   6.776  -0.403  0.00  0.00    +0.020 A 
ATOM     24  C   UNL     1       3.217   6.417  -0.616  0.00  0.00    +0.061 A 
ATOM     25  C   UNL     1       4.212   7.384  -0.547  0.00  0.00    +0.005 A 
ATOM     26  C   UNL     1       3.806   8.685  -0.307  0.00  0.00    +0.000 A 
ATOM     27  C   UNL     1       2.594   8.941   0.302  0.00  0.00    +0.000 A 
ATOM     28  C   UNL     1       3.545   5.071  -0.717  0.00  0.00    +0.297 A 
ATOM     29  O   UNL     1       4.740   4.721  -0.929  0.00  0.00    -0.264 OA
ATOM     30  N   UNL     1       2.521   4.186  -0.778  0.00  0.00    -0.106 NA
ATOM     31  C   UNL     1       1.651   7.921   0.330  0.00  0.00    +0.001 A 
ATOM     32  N   UNL     1       1.325   4.640  -1.092  0.00  0.00    -0.149 NA
ENDBRANCH  21  22
ENDBRANCH   6  21
TORSDOF 4
ENDMDL
