MODEL 1
REMARK VINA RESULT:      -6.9      0.000      0.000
REMARK  Name = 
REMARK  2 active torsions:
REMARK  status: ('A' for Active; 'I' for Inactive)
REMARK    1  A    between atoms: N9_10  and  C1*_11
REMARK    2  A    between atoms: C4*_13  and  C5*_14
REMARK                            x       y       z     vdW  Elec       q    Type
REMARK                         _______ _______ _______ _____ _____    ______ ____
ROOT
ATOM      1  O6    I A   1       7.753   4.625 -12.750  0.00  0.00    -0.263 OA
ATOM      2  C6    I A   1       6.816   5.009 -12.627  0.00  0.00    +0.301 A 
ATOM      3  C5    I A   1       6.342   5.435 -11.392  0.00  0.00    +0.175 A 
ATOM      4  N7    I A   1       6.966   5.776 -10.245  0.00  0.00    -0.217 NA
ATOM      5  C8    I A   1       6.021   5.779  -9.305  0.00  0.00    +0.182 A 
ATOM      6  N9    I A   1       4.783   5.946  -9.839  0.00  0.00    -0.269 N 
ATOM      7  C4    I A   1       4.998   5.701 -11.159  0.00  0.00    +0.171 A 
ATOM      8  N3    I A   1       4.184   5.787 -12.237  0.00  0.00    -0.205 NA
ATOM      9  C2    I A   1       4.662   5.525 -13.467  0.00  0.00    +0.203 A 
ATOM     10  N1    I A   1       5.919   5.116 -13.637  0.00  0.00    -0.184 NA
ENDROOT
BRANCH   6  11
ATOM     11  C1*   I A   1       3.621   4.976  -9.269  0.00  0.00    +0.241 C 
ATOM     12  C2*   I A   1       3.311   6.041  -7.917  0.00  0.00    +0.234 C 
ATOM     13  O2*   I A   1       3.784   5.000  -6.924  0.00  0.00    -0.216 OA
ATOM     14  C3*   I A   1       1.631   5.630  -7.905  0.00  0.00    +0.216 C 
ATOM     15  O3*   I A   1       1.746   4.401  -7.020  0.00  0.00    -0.218 OA
ATOM     16  C4*   I A   1       1.760   4.634  -9.326  0.00  0.00    +0.183 C 
ATOM     17  O4*   I A   1       2.528   5.737 -10.065  0.00  0.00    -0.331 OA
BRANCH  16  18
ATOM     18  C5*   I A   1       0.296   5.184  -9.915  0.00  0.00    +0.214 C 
ATOM     19  O5*   I A   1       0.085   4.250 -10.923  0.00  0.00    -0.218 OA
ENDBRANCH  16  18
ENDBRANCH   6  11
TORSDOF 2
ENDMDL
MODEL 2
REMARK VINA RESULT:      -6.9      7.132      8.832
REMARK  Name = 
REMARK  2 active torsions:
REMARK  status: ('A' for Active; 'I' for Inactive)
REMARK    1  A    between atoms: N9_10  and  C1*_11
REMARK    2  A    between atoms: C4*_13  and  C5*_14
REMARK                            x       y       z     vdW  Elec       q    Type
REMARK                         _______ _______ _______ _____ _____    ______ ____
ROOT
ATOM      1  O6    I A   1       4.314   4.346  -0.758  0.00  0.00    -0.263 OA
ATOM      2  C6    I A   1       3.842   4.843  -1.512  0.00  0.00    +0.301 A 
ATOM      3  C5    I A   1       2.587   5.420  -1.354  0.00  0.00    +0.175 A 
ATOM      4  N7    I A   1       1.880   5.777  -0.261  0.00  0.00    -0.217 NA
ATOM      5  C8    I A   1       0.630   5.965  -0.683  0.00  0.00    +0.182 A 
ATOM      6  N9    I A   1       0.585   6.229  -2.015  0.00  0.00    -0.269 N 
ATOM      7  C4    I A   1       1.824   5.856  -2.430  0.00  0.00    +0.171 A 
ATOM      8  N3    I A   1       2.439   5.948  -3.633  0.00  0.00    -0.205 NA
ATOM      9  C2    I A   1       3.711   5.535  -3.774  0.00  0.00    +0.203 A 
ATOM     10  N1    I A   1       4.362   4.971  -2.757  0.00  0.00    -0.184 NA
ENDROOT
BRANCH   6  11
ATOM     11  C1*   I A   1      -0.551   5.448  -2.862  0.00  0.00    +0.241 C 
ATOM     12  C2*   I A   1      -1.829   6.396  -2.137  0.00  0.00    +0.234 C 
ATOM     13  O2*   I A   1      -2.409   5.179  -1.447  0.00  0.00    -0.216 OA
ATOM     14  C3*   I A   1      -2.779   6.323  -3.580  0.00  0.00    +0.216 C 
ATOM     15  O3*   I A   1      -3.472   5.005  -3.281  0.00  0.00    -0.218 OA
ATOM     16  C4*   I A   1      -1.544   5.485  -4.473  0.00  0.00    +0.183 C 
ATOM     17  O4*   I A   1      -0.484   6.492  -4.007  0.00  0.00    -0.331 OA
BRANCH  16  18
ATOM     18  C5*   I A   1      -1.857   6.373  -5.853  0.00  0.00    +0.214 C 
ATOM     19  O5*   I A   1      -1.591   5.408  -6.817  0.00  0.00    -0.218 OA
ENDBRANCH  16  18
ENDBRANCH   6  11
TORSDOF 2
ENDMDL
MODEL 3
REMARK VINA RESULT:      -6.8      6.803      9.585
REMARK  Name = 
REMARK  2 active torsions:
REMARK  status: ('A' for Active; 'I' for Inactive)
REMARK    1  A    between atoms: N9_10  and  C1*_11
REMARK    2  A    between atoms: C4*_13  and  C5*_14
REMARK                            x       y       z     vdW  Elec       q    Type
REMARK                         _______ _______ _______ _____ _____    ______ ____
ROOT
ATOM      1  O6    I A   1      -3.331   4.815  -3.585  0.00  0.00    -0.263 OA
ATOM      2  C6    I A   1      -2.542   5.226  -3.088  0.00  0.00    +0.301 A 
ATOM      3  C5    I A   1      -1.450   5.777  -3.748  0.00  0.00    +0.175 A 
ATOM      4  N7    I A   1      -1.275   6.213  -5.013  0.00  0.00    -0.217 NA
ATOM      5  C8    I A   1       0.042   6.324  -5.180  0.00  0.00    +0.182 A 
ATOM      6  N9    I A   1       0.688   6.463  -3.993  0.00  0.00    -0.269 N 
ATOM      7  C4    I A   1      -0.263   6.090  -3.097  0.00  0.00    +0.171 A 
ATOM      8  N3    I A   1      -0.276   6.089  -1.743  0.00  0.00    -0.205 NA
ATOM      9  C2    I A   1      -1.380   5.702  -1.079  0.00  0.00    +0.203 A 
ATOM     10  N1    I A   1      -2.450   5.254  -1.736  0.00  0.00    -0.184 NA
ENDROOT
BRANCH   6  11
ATOM     11  C1*   I A   1       2.025   5.574  -3.798  0.00  0.00    +0.241 C 
ATOM     12  C2*   I A   1       3.027   6.812  -4.520  0.00  0.00    +0.234 C 
ATOM     13  O2*   I A   1       3.372   5.919  -5.694  0.00  0.00    -0.216 OA
ATOM     14  C3*   I A   1       4.367   6.398  -3.509  0.00  0.00    +0.216 C 
ATOM     15  O3*   I A   1       4.937   5.302  -4.393  0.00  0.00    -0.218 OA
ATOM     16  C4*   I A   1       3.457   5.218  -2.612  0.00  0.00    +0.183 C 
ATOM     17  O4*   I A   1       2.307   6.214  -2.413  0.00  0.00    -0.331 OA
BRANCH  16  18
ATOM     18  C5*   I A   1       4.172   5.675  -1.172  0.00  0.00    +0.214 C 
ATOM     19  O5*   I A   1       4.503   4.423  -0.668  0.00  0.00    -0.218 OA
ENDBRANCH  16  18
ENDBRANCH   6  11
TORSDOF 2
ENDMDL
MODEL 4
REMARK VINA RESULT:      -6.7      5.748      8.565
REMARK  Name = 
REMARK  2 active torsions:
REMARK  status: ('A' for Active; 'I' for Inactive)
REMARK    1  A    between atoms: N9_10  and  C1*_11
REMARK    2  A    between atoms: C4*_13  and  C5*_14
REMARK                            x       y       z     vdW  Elec       q    Type
REMARK                         _______ _______ _______ _____ _____    ______ ____
ROOT
ATOM      1  O6    I A   1      -2.989   5.943  -2.211  0.00  0.00    -0.263 OA
ATOM      2  C6    I A   1      -2.411   5.758  -3.031  0.00  0.00    +0.301 A 
ATOM      3  C5    I A   1      -1.061   5.443  -2.937  0.00  0.00    +0.175 A 
ATOM      4  N7    I A   1      -0.300   4.991  -1.918  0.00  0.00    -0.217 NA
ATOM      5  C8    I A   1       0.963   5.184  -2.295  0.00  0.00    +0.182 A 
ATOM      6  N9    I A   1       1.076   5.268  -3.646  0.00  0.00    -0.269 N 
ATOM      7  C4    I A   1      -0.212   5.457  -4.037  0.00  0.00    +0.171 A 
ATOM      8  N3    I A   1      -0.781   5.530  -5.263  0.00  0.00    -0.205 NA
ATOM      9  C2    I A   1      -2.113   5.683  -5.380  0.00  0.00    +0.203 A 
ATOM     10  N1    I A   1      -2.881   5.829  -4.301  0.00  0.00    -0.184 NA
ENDROOT
BRANCH   6  11
ATOM     11  C1*   I A   1       2.015   6.456  -4.214  0.00  0.00    +0.241 C 
ATOM     12  C2*   I A   1       3.447   5.456  -4.111  0.00  0.00    +0.234 C 
ATOM     13  O2*   I A   1       4.054   6.347  -3.048  0.00  0.00    -0.216 OA
ATOM     14  C3*   I A   1       4.151   6.225  -5.491  0.00  0.00    +0.216 C 
ATOM     15  O3*   I A   1       4.802   7.380  -4.749  0.00  0.00    -0.218 OA
ATOM     16  C4*   I A   1       2.743   7.199  -5.796  0.00  0.00    +0.183 C 
ATOM     17  O4*   I A   1       1.832   5.970  -5.675  0.00  0.00    -0.331 OA
BRANCH  16  18
ATOM     18  C5*   I A   1       2.887   6.995  -7.448  0.00  0.00    +0.214 C 
ATOM     19  O5*   I A   1       2.291   8.173  -7.881  0.00  0.00    -0.218 OA
ENDBRANCH  16  18
ENDBRANCH   6  11
TORSDOF 2
ENDMDL
MODEL 5
REMARK VINA RESULT:      -6.7      5.848      8.998
REMARK  Name = 
REMARK  2 active torsions:
REMARK  status: ('A' for Active; 'I' for Inactive)
REMARK    1  A    between atoms: N9_10  and  C1*_11
REMARK    2  A    between atoms: C4*_13  and  C5*_14
REMARK                            x       y       z     vdW  Elec       q    Type
REMARK                         _______ _______ _______ _____ _____    ______ ____
ROOT
ATOM      1  O6    I A   1      -3.383   4.936  -3.331  0.00  0.00    -0.263 OA
ATOM      2  C6    I A   1      -2.446   5.245  -3.071  0.00  0.00    +0.301 A 
ATOM      3  C5    I A   1      -1.584   5.853  -3.977  0.00  0.00    +0.175 A 
ATOM      4  N7    I A   1      -1.792   6.466  -5.161  0.00  0.00    -0.217 NA
ATOM      5  C8    I A   1      -0.594   6.559  -5.736  0.00  0.00    +0.182 A 
ATOM      6  N9    I A   1       0.408   6.501  -4.820  0.00  0.00    -0.269 N 
ATOM      7  C4    I A   1      -0.231   6.028  -3.717  0.00  0.00    +0.171 A 
ATOM      8  N3    I A   1       0.192   5.827  -2.447  0.00  0.00    -0.205 NA
ATOM      9  C2    I A   1      -0.667   5.381  -1.512  0.00  0.00    +0.203 A 
ATOM     10  N1    I A   1      -1.923   5.069  -1.833  0.00  0.00    -0.184 NA
ENDROOT
BRANCH   6  11
ATOM     11  C1*   I A   1       1.664   5.551  -5.192  0.00  0.00    +0.241 C 
ATOM     12  C2*   I A   1       2.463   6.845  -6.057  0.00  0.00    +0.234 C 
ATOM     13  O2*   I A   1       2.334   6.111  -7.375  0.00  0.00    -0.216 OA
ATOM     14  C3*   I A   1       4.026   6.253  -5.611  0.00  0.00    +0.216 C 
ATOM     15  O3*   I A   1       4.188   5.271  -6.758  0.00  0.00    -0.218 OA
ATOM     16  C4*   I A   1       3.374   4.990  -4.607  0.00  0.00    +0.183 C 
ATOM     17  O4*   I A   1       2.432   5.985  -3.917  0.00  0.00    -0.331 OA
BRANCH  16  18
ATOM     18  C5*   I A   1       4.556   5.222  -3.448  0.00  0.00    +0.214 C 
ATOM     19  O5*   I A   1       3.836   4.877  -2.310  0.00  0.00    -0.218 OA
ENDBRANCH  16  18
ENDBRANCH   6  11
TORSDOF 2
ENDMDL
MODEL 6
REMARK VINA RESULT:      -6.5      1.727      3.391
REMARK  Name = 
REMARK  2 active torsions:
REMARK  status: ('A' for Active; 'I' for Inactive)
REMARK    1  A    between atoms: N9_10  and  C1*_11
REMARK    2  A    between atoms: C4*_13  and  C5*_14
REMARK                            x       y       z     vdW  Elec       q    Type
REMARK                         _______ _______ _______ _____ _____    ______ ____
ROOT
ATOM      1  O6    I A   1       8.255   6.088 -13.024  0.00  0.00    -0.263 OA
ATOM      2  C6    I A   1       7.667   5.907 -12.211  0.00  0.00    +0.301 A 
ATOM      3  C5    I A   1       6.336   5.520 -12.325  0.00  0.00    +0.175 A 
ATOM      4  N7    I A   1       5.627   4.988 -13.342  0.00  0.00    -0.217 NA
ATOM      5  C8    I A   1       4.345   5.132 -13.004  0.00  0.00    +0.182 A 
ATOM      6  N9    I A   1       4.193   5.264 -11.660  0.00  0.00    -0.269 N 
ATOM      7  C4    I A   1       5.459   5.534 -11.247  0.00  0.00    +0.171 A 
ATOM      8  N3    I A   1       5.992   5.686 -10.012  0.00  0.00    -0.205 NA
ATOM      9  C2    I A   1       7.311   5.912  -9.868  0.00  0.00    +0.203 A 
ATOM     10  N1    I A   1       8.099   6.053 -10.934  0.00  0.00    -0.184 NA
ENDROOT
BRANCH   6  11
ATOM     11  C1*   I A   1       3.181   6.425 -11.166  0.00  0.00    +0.241 C 
ATOM     12  C2*   I A   1       1.785   5.402 -11.423  0.00  0.00    +0.234 C 
ATOM     13  O2*   I A   1       1.266   6.302 -12.525  0.00  0.00    -0.216 OA
ATOM     14  C3*   I A   1       0.937   6.132 -10.105  0.00  0.00    +0.216 C 
ATOM     15  O3*   I A   1       0.338   7.289 -10.886  0.00  0.00    -0.218 OA
ATOM     16  C4*   I A   1       2.291   7.125  -9.649  0.00  0.00    +0.183 C 
ATOM     17  O4*   I A   1       3.233   5.914  -9.703  0.00  0.00    -0.331 OA
BRANCH  16  18
ATOM     18  C5*   I A   1       1.992   6.887  -8.022  0.00  0.00    +0.214 C 
ATOM     19  O5*   I A   1       2.139   8.192  -7.565  0.00  0.00    -0.218 OA
ENDBRANCH  16  18
ENDBRANCH   6  11
TORSDOF 2
ENDMDL
MODEL 7
REMARK VINA RESULT:      -6.5      4.068      7.001
REMARK  Name = 
REMARK  2 active torsions:
REMARK  status: ('A' for Active; 'I' for Inactive)
REMARK    1  A    between atoms: N9_10  and  C1*_11
REMARK    2  A    between atoms: C4*_13  and  C5*_14
REMARK                            x       y       z     vdW  Elec       q    Type
REMARK                         _______ _______ _______ _____ _____    ______ ____
ROOT
ATOM      1  O6    I A   1      -1.215   6.254  -3.318  0.00  0.00    -0.263 OA
ATOM      2  C6    I A   1      -1.278   5.964  -4.294  0.00  0.00    +0.301 A 
ATOM      3  C5    I A   1      -0.186   5.469  -4.997  0.00  0.00    +0.175 A 
ATOM      4  N7    I A   1       0.994   4.949  -4.598  0.00  0.00    -0.217 NA
ATOM      5  C8    I A   1       1.776   4.954  -5.678  0.00  0.00    +0.182 A 
ATOM      6  N9    I A   1       1.048   4.978  -6.825  0.00  0.00    -0.269 N 
ATOM      7  C4    I A   1      -0.188   5.330  -6.379  0.00  0.00    +0.171 A 
ATOM      8  N3    I A   1      -1.378   5.442  -7.015  0.00  0.00    -0.205 NA
ATOM      9  C2    I A   1      -2.484   5.773  -6.324  0.00  0.00    +0.203 A 
ATOM     10  N1    I A   1      -2.416   6.058  -5.024  0.00  0.00    -0.184 NA
ENDROOT
BRANCH   6  11
ATOM     11  C1*   I A   1       1.547   6.006  -7.968  0.00  0.00    +0.241 C 
ATOM     12  C2*   I A   1       2.573   4.792  -8.698  0.00  0.00    +0.234 C 
ATOM     13  O2*   I A   1       3.825   5.569  -8.349  0.00  0.00    -0.216 OA
ATOM     14  C3*   I A   1       2.322   5.448 -10.278  0.00  0.00    +0.216 C 
ATOM     15  O3*   I A   1       3.435   6.481 -10.230  0.00  0.00    -0.218 OA
ATOM     16  C4*   I A   1       1.181   6.635  -9.716  0.00  0.00    +0.183 C 
ATOM     17  O4*   I A   1       0.412   5.565  -8.929  0.00  0.00    -0.331 OA
BRANCH  16  18
ATOM     18  C5*   I A   1       0.209   6.422 -11.059  0.00  0.00    +0.214 C 
ATOM     19  O5*   I A   1      -0.349   7.691 -11.147  0.00  0.00    -0.218 OA
ENDBRANCH  16  18
ENDBRANCH   6  11
TORSDOF 2
ENDMDL
MODEL 8
REMARK VINA RESULT:      -6.4      4.144      5.893
REMARK  Name = 
REMARK  2 active torsions:
REMARK  status: ('A' for Active; 'I' for Inactive)
REMARK    1  A    between atoms: N9_10  and  C1*_11
REMARK    2  A    between atoms: C4*_13  and  C5*_14
REMARK                            x       y       z     vdW  Elec       q    Type
REMARK                         _______ _______ _______ _____ _____    ______ ____
ROOT
ATOM      1  O6    I A   1       4.687   5.140  -7.955  0.00  0.00    -0.263 OA
ATOM      2  C6    I A   1       3.962   5.747  -7.572  0.00  0.00    +0.301 A 
ATOM      3  C5    I A   1       3.564   5.683  -6.242  0.00  0.00    +0.175 A 
ATOM      4  N7    I A   1       4.148   5.170  -5.139  0.00  0.00    -0.217 NA
ATOM      5  C8    I A   1       3.186   5.093  -4.221  0.00  0.00    +0.182 A 
ATOM      6  N9    I A   1       2.169   5.955  -4.486  0.00  0.00    -0.269 N 
ATOM      7  C4    I A   1       2.409   6.302  -5.778  0.00  0.00    +0.171 A 
ATOM      8  N3    I A   1       1.807   7.194  -6.599  0.00  0.00    -0.205 NA
ATOM      9  C2    I A   1       2.272   7.384  -7.847  0.00  0.00    +0.203 A 
ATOM     10  N1    I A   1       3.285   6.655  -8.316  0.00  0.00    -0.184 NA
ENDROOT
BRANCH   6  11
ATOM     11  C1*   I A   1       0.671   5.365  -4.331  0.00  0.00    +0.241 C 
ATOM     12  C2*   I A   1       0.503   6.048  -2.730  0.00  0.00    +0.234 C 
ATOM     13  O2*   I A   1       0.425   4.674  -2.097  0.00  0.00    -0.216 OA
ATOM     14  C3*   I A   1      -1.193   6.300  -2.954  0.00  0.00    +0.216 C 
ATOM     15  O3*   I A   1      -1.648   4.921  -2.506  0.00  0.00    -0.218 OA
ATOM     16  C4*   I A   1      -1.159   5.764  -4.608  0.00  0.00    +0.183 C 
ATOM     17  O4*   I A   1       0.048   6.664  -4.905  0.00  0.00    -0.331 OA
BRANCH  16  18
ATOM     18  C5*   I A   1      -2.231   6.955  -5.079  0.00  0.00    +0.214 C 
ATOM     19  O5*   I A   1      -2.706   6.390  -6.256  0.00  0.00    -0.218 OA
ENDBRANCH  16  18
ENDBRANCH   6  11
TORSDOF 2
ENDMDL
MODEL 9
REMARK VINA RESULT:      -6.3      6.767      9.375
REMARK  Name = 
REMARK  2 active torsions:
REMARK  status: ('A' for Active; 'I' for Inactive)
REMARK    1  A    between atoms: N9_10  and  C1*_11
REMARK    2  A    between atoms: C4*_13  and  C5*_14
REMARK                            x       y       z     vdW  Elec       q    Type
REMARK                         _______ _______ _______ _____ _____    ______ ____
ROOT
ATOM      1  O6    I A   1      -3.546   6.379  -3.349  0.00  0.00    -0.263 OA
ATOM      2  C6    I A   1      -2.653   6.040  -3.707  0.00  0.00    +0.301 A 
ATOM      3  C5    I A   1      -1.616   5.646  -2.869  0.00  0.00    +0.175 A 
ATOM      4  N7    I A   1      -1.582   5.287  -1.569  0.00  0.00    -0.217 NA
ATOM      5  C8    I A   1      -0.299   5.335  -1.213  0.00  0.00    +0.182 A 
ATOM      6  N9    I A   1       0.525   5.222  -2.287  0.00  0.00    -0.269 N 
ATOM      7  C4    I A   1      -0.321   5.445  -3.328  0.00  0.00    +0.171 A 
ATOM      8  N3    I A   1      -0.136   5.387  -4.668  0.00  0.00    -0.205 NA
ATOM      9  C2    I A   1      -1.167   5.616  -5.502  0.00  0.00    +0.203 A 
ATOM     10  N1    I A   1      -2.363   5.966  -5.029  0.00  0.00    -0.184 NA
ENDROOT
BRANCH   6  11
ATOM     11  C1*   I A   1       1.772   6.249  -2.346  0.00  0.00    +0.241 C 
ATOM     12  C2*   I A   1       2.814   5.128  -1.499  0.00  0.00    +0.234 C 
ATOM     13  O2*   I A   1       2.927   6.055  -0.307  0.00  0.00    -0.216 OA
ATOM     14  C3*   I A   1       4.207   5.682  -2.361  0.00  0.00    +0.216 C 
ATOM     15  O3*   I A   1       4.553   6.835  -1.435  0.00  0.00    -0.218 OA
ATOM     16  C4*   I A   1       3.282   6.755  -3.370  0.00  0.00    +0.183 C 
ATOM     17  O4*   I A   1       2.274   5.641  -3.681  0.00  0.00    -0.331 OA
BRANCH  16  18
ATOM     18  C5*   I A   1       4.198   6.375  -4.715  0.00  0.00    +0.214 C 
ATOM     19  O5*   I A   1       4.126   7.585  -5.396  0.00  0.00    -0.218 OA
ENDBRANCH  16  18
ENDBRANCH   6  11
TORSDOF 2
ENDMDL
