MODEL 1
REMARK VINA RESULT:      -6.9      0.000      0.000
REMARK  Name = 
REMARK  3 active torsions:
REMARK  status: ('A' for Active; 'I' for Inactive)
REMARK    1  A    between atoms: C_2  and  C_4
REMARK    2  A    between atoms: C_2  and  C_12
REMARK    3  A    between atoms: C_4  and  C_6
REMARK                            x       y       z     vdW  Elec       q    Type
REMARK                         _______ _______ _______ _____ _____    ______ ____
ROOT
ATOM      1  C   UNL     1       2.081   7.655  -7.712  0.00  0.00    +0.012 C 
ATOM      2  C   UNL     1       2.580   6.426  -6.960  0.00  0.00    +0.076 C 
ATOM      3  C   UNL     1       3.478   6.969  -5.853  0.00  0.00    +0.012 C 
ENDROOT
BRANCH   2   4
ATOM      4  C   UNL     1       3.410   5.596  -7.871  0.00  0.00    +0.003 A 
ATOM      5  C   UNL     1       3.024   5.247  -9.148  0.00  0.00    +0.095 A 
ATOM      6  N   UNL     1       3.897   5.233 -10.178  0.00  0.00    -0.243 NA
ATOM      7  C   UNL     1       5.212   5.395  -9.931  0.00  0.00    +0.099 A 
ATOM      8  C   UNL     1       5.633   5.167  -8.626  0.00  0.00    +0.020 A 
ATOM      9  C   UNL     1       4.766   5.531  -7.604  0.00  0.00    -0.001 A 
ENDBRANCH   2   4
BRANCH   2  10
ATOM     10  C   UNL     1       1.449   5.648  -6.375  0.00  0.00    +0.178 C 
ATOM     11  O   UNL     1       1.759   4.485  -5.973  0.00  0.00    -0.291 OA
BRANCH  10  12
ATOM     12  C   UNL     1       0.131   6.203  -6.139  0.00  0.00    +0.054 A 
ATOM     13  C   UNL     1      -0.188   6.961  -5.019  0.00  0.00    +0.102 A 
ATOM     14  N   UNL     1      -1.444   7.453  -4.925  0.00  0.00    -0.242 NA
ATOM     15  C   UNL     1      -2.469   6.685  -5.339  0.00  0.00    +0.099 A 
ATOM     16  C   UNL     1      -2.239   5.729  -6.307  0.00  0.00    +0.021 A 
ATOM     17  C   UNL     1      -0.937   5.562  -6.752  0.00  0.00    +0.006 A 
ENDBRANCH  10  12
ENDBRANCH   2  10
TORSDOF 3
ENDMDL
MODEL 2
REMARK VINA RESULT:      -6.8      1.782      2.578
REMARK  Name = 
REMARK  3 active torsions:
REMARK  status: ('A' for Active; 'I' for Inactive)
REMARK    1  A    between atoms: C_2  and  C_4
REMARK    2  A    between atoms: C_2  and  C_12
REMARK    3  A    between atoms: C_4  and  C_6
REMARK                            x       y       z     vdW  Elec       q    Type
REMARK                         _______ _______ _______ _____ _____    ______ ____
ROOT
ATOM      1  C   UNL     1       2.324   7.198  -7.093  0.00  0.00    +0.012 C 
ATOM      2  C   UNL     1       2.265   5.746  -7.555  0.00  0.00    +0.076 C 
ATOM      3  C   UNL     1       3.699   5.234  -7.456  0.00  0.00    +0.012 C 
ENDROOT
BRANCH   2   4
ATOM      4  C   UNL     1       1.850   5.700  -8.982  0.00  0.00    +0.003 A 
ATOM      5  C   UNL     1       1.629   4.528  -9.673  0.00  0.00    +0.095 A 
ATOM      6  N   UNL     1       0.606   4.397 -10.545  0.00  0.00    -0.243 NA
ATOM      7  C   UNL     1      -0.117   5.483 -10.883  0.00  0.00    +0.099 A 
ATOM      8  C   UNL     1       0.467   6.720 -10.637  0.00  0.00    +0.020 A 
ATOM      9  C   UNL     1       1.259   6.837  -9.503  0.00  0.00    -0.001 A 
ENDBRANCH   2   4
BRANCH   2  10
ATOM     10  C   UNL     1       1.363   4.934  -6.688  0.00  0.00    +0.178 C 
ATOM     11  O   UNL     1       1.816   3.790  -6.378  0.00  0.00    -0.291 OA
BRANCH  10  12
ATOM     12  C   UNL     1       0.134   5.442  -6.110  0.00  0.00    +0.054 A 
ATOM     13  C   UNL     1      -0.103   5.492  -4.742  0.00  0.00    +0.102 A 
ATOM     14  N   UNL     1      -1.276   6.018  -4.323  0.00  0.00    -0.242 NA
ATOM     15  C   UNL     1      -2.389   5.756  -5.032  0.00  0.00    +0.099 A 
ATOM     16  C   UNL     1      -2.273   5.472  -6.377  0.00  0.00    +0.021 A 
ATOM     17  C   UNL     1      -0.998   5.401  -6.913  0.00  0.00    +0.006 A 
ENDBRANCH  10  12
ENDBRANCH   2  10
TORSDOF 3
ENDMDL
MODEL 3
REMARK VINA RESULT:      -6.7      1.718      6.153
REMARK  Name = 
REMARK  3 active torsions:
REMARK  status: ('A' for Active; 'I' for Inactive)
REMARK    1  A    between atoms: C_2  and  C_4
REMARK    2  A    between atoms: C_2  and  C_12
REMARK    3  A    between atoms: C_4  and  C_6
REMARK                            x       y       z     vdW  Elec       q    Type
REMARK                         _______ _______ _______ _____ _____    ______ ____
ROOT
ATOM      1  C   UNL     1       2.318   7.618  -7.932  0.00  0.00    +0.012 C 
ATOM      2  C   UNL     1       1.857   6.300  -8.543  0.00  0.00    +0.076 C 
ATOM      3  C   UNL     1       0.994   6.691  -9.739  0.00  0.00    +0.012 C 
ENDROOT
BRANCH   2   4
ATOM      4  C   UNL     1       1.001   5.577  -7.566  0.00  0.00    +0.003 A 
ATOM      5  C   UNL     1       1.351   5.381  -6.246  0.00  0.00    +0.095 A 
ATOM      6  N   UNL     1       0.448   5.482  -5.247  0.00  0.00    -0.243 NA
ATOM      7  C   UNL     1      -0.859   5.608  -5.549  0.00  0.00    +0.099 A 
ATOM      8  C   UNL     1      -1.241   5.228  -6.830  0.00  0.00    +0.020 A 
ATOM      9  C   UNL     1      -0.346   5.474  -7.863  0.00  0.00    -0.001 A 
ENDBRANCH   2   4
BRANCH   2  10
ATOM     10  C   UNL     1       3.015   5.471  -8.988  0.00  0.00    +0.178 C 
ATOM     11  O   UNL     1       2.755   4.239  -9.144  0.00  0.00    -0.291 OA
BRANCH  10  12
ATOM     12  C   UNL     1       4.301   6.025  -9.361  0.00  0.00    +0.054 A 
ATOM     13  C   UNL     1       4.536   6.663 -10.573  0.00  0.00    +0.102 A 
ATOM     14  N   UNL     1       5.771   7.168 -10.793  0.00  0.00    -0.242 NA
ATOM     15  C   UNL     1       6.838   6.471 -10.360  0.00  0.00    +0.099 A 
ATOM     16  C   UNL     1       6.689   5.622  -9.283  0.00  0.00    +0.021 A 
ATOM     17  C   UNL     1       5.420   5.477  -8.746  0.00  0.00    +0.006 A 
ENDBRANCH  10  12
ENDBRANCH   2  10
TORSDOF 3
ENDMDL
MODEL 4
REMARK VINA RESULT:      -6.6      2.529      5.768
REMARK  Name = 
REMARK  3 active torsions:
REMARK  status: ('A' for Active; 'I' for Inactive)
REMARK    1  A    between atoms: C_2  and  C_4
REMARK    2  A    between atoms: C_2  and  C_12
REMARK    3  A    between atoms: C_4  and  C_6
REMARK                            x       y       z     vdW  Elec       q    Type
REMARK                         _______ _______ _______ _____ _____    ______ ____
ROOT
ATOM      1  C   UNL     1       2.329   7.257  -8.258  0.00  0.00    +0.012 C 
ATOM      2  C   UNL     1       2.381   5.840  -7.698  0.00  0.00    +0.076 C 
ATOM      3  C   UNL     1       0.943   5.334  -7.747  0.00  0.00    +0.012 C 
ENDROOT
BRANCH   2   4
ATOM      4  C   UNL     1       2.811   5.889  -6.276  0.00  0.00    +0.003 A 
ATOM      5  C   UNL     1       2.851   4.782  -5.453  0.00  0.00    +0.095 A 
ATOM      6  N   UNL     1       3.855   4.585  -4.573  0.00  0.00    -0.243 NA
ATOM      7  C   UNL     1       4.753   5.568  -4.364  0.00  0.00    +0.099 A 
ATOM      8  C   UNL     1       4.375   6.848  -4.750  0.00  0.00    +0.020 A 
ATOM      9  C   UNL     1       3.591   6.965  -5.890  0.00  0.00    -0.001 A 
ENDBRANCH   2   4
BRANCH   2  10
ATOM     10  C   UNL     1       3.267   4.962  -8.516  0.00  0.00    +0.178 C 
ATOM     11  O   UNL     1       2.879   3.758  -8.611  0.00  0.00    -0.291 OA
BRANCH  10  12
ATOM     12  C   UNL     1       4.403   5.451  -9.273  0.00  0.00    +0.054 A 
ATOM     13  C   UNL     1       4.476   5.399 -10.660  0.00  0.00    +0.102 A 
ATOM     14  N   UNL     1       5.574   5.918 -11.255  0.00  0.00    -0.242 NA
ATOM     15  C   UNL     1       6.771   5.737 -10.667  0.00  0.00    +0.099 A 
ATOM     16  C   UNL     1       6.823   5.555  -9.300  0.00  0.00    +0.021 A 
ATOM     17  C   UNL     1       5.623   5.497  -8.611  0.00  0.00    +0.006 A 
ENDBRANCH  10  12
ENDBRANCH   2  10
TORSDOF 3
ENDMDL
MODEL 5
REMARK VINA RESULT:      -6.5      2.364      3.976
REMARK  Name = 
REMARK  3 active torsions:
REMARK  status: ('A' for Active; 'I' for Inactive)
REMARK    1  A    between atoms: C_2  and  C_4
REMARK    2  A    between atoms: C_2  and  C_12
REMARK    3  A    between atoms: C_4  and  C_6
REMARK                            x       y       z     vdW  Elec       q    Type
REMARK                         _______ _______ _______ _____ _____    ______ ____
ROOT
ATOM      1  C   UNL     1       2.677   4.750  -5.311  0.00  0.00    +0.012 C 
ATOM      2  C   UNL     1       2.975   6.139  -5.863  0.00  0.00    +0.076 C 
ATOM      3  C   UNL     1       4.024   5.924  -6.950  0.00  0.00    +0.012 C 
ENDROOT
BRANCH   2   4
ATOM      4  C   UNL     1       3.576   6.976  -4.792  0.00  0.00    +0.003 A 
ATOM      5  C   UNL     1       2.920   7.306  -3.625  0.00  0.00    +0.095 A 
ATOM      6  N   UNL     1       3.553   7.326  -2.433  0.00  0.00    -0.243 NA
ATOM      7  C   UNL     1       4.894   7.190  -2.395  0.00  0.00    +0.099 A 
ATOM      8  C   UNL     1       5.578   7.438  -3.579  0.00  0.00    +0.020 A 
ATOM      9  C   UNL     1       4.956   7.068  -4.764  0.00  0.00    -0.001 A 
ENDBRANCH   2   4
BRANCH   2  10
ATOM     10  C   UNL     1       1.753   6.770  -6.441  0.00  0.00    +0.178 C 
ATOM     11  O   UNL     1       1.979   7.743  -7.223  0.00  0.00    -0.291 OA
BRANCH  10  12
ATOM     12  C   UNL     1       0.415   6.241  -6.260  0.00  0.00    +0.054 A 
ATOM     13  C   UNL     1      -0.262   5.524  -7.239  0.00  0.00    +0.102 A 
ATOM     14  N   UNL     1      -1.493   5.053  -6.940  0.00  0.00    -0.242 NA
ATOM     15  C   UNL     1      -2.315   5.822  -6.202  0.00  0.00    +0.099 A 
ATOM     16  C   UNL     1      -1.766   6.744  -5.333  0.00  0.00    +0.021 A 
ATOM     17  C   UNL     1      -0.387   6.877  -5.322  0.00  0.00    +0.006 A 
ENDBRANCH  10  12
ENDBRANCH   2  10
TORSDOF 3
ENDMDL
MODEL 6
REMARK VINA RESULT:      -6.5      2.776      5.537
REMARK  Name = 
REMARK  3 active torsions:
REMARK  status: ('A' for Active; 'I' for Inactive)
REMARK    1  A    between atoms: C_2  and  C_4
REMARK    2  A    between atoms: C_2  and  C_12
REMARK    3  A    between atoms: C_4  and  C_6
REMARK                            x       y       z     vdW  Elec       q    Type
REMARK                         _______ _______ _______ _____ _____    ______ ____
ROOT
ATOM      1  C   UNL     1       1.258   5.128  -8.088  0.00  0.00    +0.012 C 
ATOM      2  C   UNL     1       1.306   5.306  -6.575  0.00  0.00    +0.076 C 
ATOM      3  C   UNL     1       2.098   4.111  -6.053  0.00  0.00    +0.012 C 
ENDROOT
BRANCH   2   4
ATOM      4  C   UNL     1      -0.073   5.229  -6.026  0.00  0.00    +0.003 A 
ATOM      5  C   UNL     1      -0.379   5.453  -4.700  0.00  0.00    +0.095 A 
ATOM      6  N   UNL     1      -1.484   6.135  -4.329  0.00  0.00    -0.243 NA
ATOM      7  C   UNL     1      -2.403   6.460  -5.260  0.00  0.00    +0.099 A 
ATOM      8  C   UNL     1      -2.365   5.741  -6.449  0.00  0.00    +0.020 A 
ATOM      9  C   UNL     1      -1.117   5.360  -6.924  0.00  0.00    -0.001 A 
ENDBRANCH   2   4
BRANCH   2  10
ATOM     10  C   UNL     1       1.984   6.581  -6.197  0.00  0.00    +0.178 C 
ATOM     11  O   UNL     1       1.602   7.598  -6.852  0.00  0.00    -0.291 OA
BRANCH  10  12
ATOM     12  C   UNL     1       2.898   6.702  -5.078  0.00  0.00    +0.054 A 
ATOM     13  C   UNL     1       2.487   7.012  -3.787  0.00  0.00    +0.102 A 
ATOM     14  N   UNL     1       3.430   7.065  -2.820  0.00  0.00    -0.242 NA
ATOM     15  C   UNL     1       4.632   7.591  -3.120  0.00  0.00    +0.099 A 
ATOM     16  C   UNL     1       5.074   7.544  -4.426  0.00  0.00    +0.021 A 
ATOM     17  C   UNL     1       4.216   7.018  -5.379  0.00  0.00    +0.006 A 
ENDBRANCH  10  12
ENDBRANCH   2  10
TORSDOF 3
ENDMDL
MODEL 7
REMARK VINA RESULT:      -6.5      2.091      3.181
REMARK  Name = 
REMARK  3 active torsions:
REMARK  status: ('A' for Active; 'I' for Inactive)
REMARK    1  A    between atoms: C_2  and  C_4
REMARK    2  A    between atoms: C_2  and  C_12
REMARK    3  A    between atoms: C_4  and  C_6
REMARK                            x       y       z     vdW  Elec       q    Type
REMARK                         _______ _______ _______ _____ _____    ______ ____
ROOT
ATOM      1  C   UNL     1       3.188   4.897  -7.714  0.00  0.00    +0.012 C 
ATOM      2  C   UNL     1       2.509   5.797  -6.688  0.00  0.00    +0.076 C 
ATOM      3  C   UNL     1       2.241   7.110  -7.417  0.00  0.00    +0.012 C 
ENDROOT
BRANCH   2   4
ATOM      4  C   UNL     1       3.451   6.067  -5.570  0.00  0.00    +0.003 A 
ATOM      5  C   UNL     1       3.255   7.057  -4.631  0.00  0.00    +0.095 A 
ATOM      6  N   UNL     1       3.537   6.866  -3.325  0.00  0.00    -0.243 NA
ATOM      7  C   UNL     1       4.185   5.746  -2.946  0.00  0.00    +0.099 A 
ATOM      8  C   UNL     1       4.871   5.059  -3.939  0.00  0.00    +0.020 A 
ATOM      9  C   UNL     1       4.309   5.044  -5.209  0.00  0.00    -0.001 A 
ENDBRANCH   2   4
BRANCH   2  10
ATOM     10  C   UNL     1       1.229   5.203  -6.204  0.00  0.00    +0.178 C 
ATOM     11  O   UNL     1       1.313   3.992  -5.836  0.00  0.00    -0.291 OA
BRANCH  10  12
ATOM     12  C   UNL     1       0.010   5.965  -6.020  0.00  0.00    +0.054 A 
ATOM     13  C   UNL     1      -0.234   6.758  -4.905  0.00  0.00    +0.102 A 
ATOM     14  N   UNL     1      -1.396   7.448  -4.862  0.00  0.00    -0.242 NA
ATOM     15  C   UNL     1      -2.512   6.862  -5.334  0.00  0.00    +0.099 A 
ATOM     16  C   UNL     1      -2.395   5.888  -6.304  0.00  0.00    +0.021 A 
ATOM     17  C   UNL     1      -1.118   5.513  -6.691  0.00  0.00    +0.006 A 
ENDBRANCH  10  12
ENDBRANCH   2  10
TORSDOF 3
ENDMDL
MODEL 8
REMARK VINA RESULT:      -6.4      2.431      3.713
REMARK  Name = 
REMARK  3 active torsions:
REMARK  status: ('A' for Active; 'I' for Inactive)
REMARK    1  A    between atoms: C_2  and  C_4
REMARK    2  A    between atoms: C_2  and  C_12
REMARK    3  A    between atoms: C_4  and  C_6
REMARK                            x       y       z     vdW  Elec       q    Type
REMARK                         _______ _______ _______ _____ _____    ______ ____
ROOT
ATOM      1  C   UNL     1       2.513   4.295  -6.318  0.00  0.00    +0.012 C 
ATOM      2  C   UNL     1       2.616   5.445  -7.313  0.00  0.00    +0.076 C 
ATOM      3  C   UNL     1       1.260   5.499  -8.009  0.00  0.00    +0.012 C 
ENDROOT
BRANCH   2   4
ATOM      4  C   UNL     1       3.652   5.125  -8.330  0.00  0.00    +0.003 A 
ATOM      5  C   UNL     1       3.402   5.084  -9.685  0.00  0.00    +0.095 A 
ATOM      6  N   UNL     1       4.282   5.567 -10.587  0.00  0.00    -0.243 NA
ATOM      7  C   UNL     1       5.509   5.944 -10.176  0.00  0.00    +0.099 A 
ATOM      8  C   UNL     1       5.933   5.448  -8.949  0.00  0.00    +0.020 A 
ATOM      9  C   UNL     1       4.973   5.293  -7.957  0.00  0.00    -0.001 A 
ENDBRANCH   2   4
BRANCH   2  10
ATOM     10  C   UNL     1       2.896   6.739  -6.623  0.00  0.00    +0.178 C 
ATOM     11  O   UNL     1       2.648   7.772  -7.316  0.00  0.00    -0.291 OA
BRANCH  10  12
ATOM     12  C   UNL     1       3.279   6.838  -5.229  0.00  0.00    +0.054 A 
ATOM     13  C   UNL     1       2.363   6.985  -4.194  0.00  0.00    +0.102 A 
ATOM     14  N   UNL     1       2.840   7.033  -2.930  0.00  0.00    -0.242 NA
ATOM     15  C   UNL     1       3.990   7.694  -2.700  0.00  0.00    +0.099 A 
ATOM     16  C   UNL     1       4.909   7.811  -3.723  0.00  0.00    +0.021 A 
ATOM     17  C   UNL     1       4.561   7.300  -4.964  0.00  0.00    +0.006 A 
ENDBRANCH  10  12
ENDBRANCH   2  10
TORSDOF 3
ENDMDL
MODEL 9
REMARK VINA RESULT:      -6.4      3.418      5.262
REMARK  Name = 
REMARK  3 active torsions:
REMARK  status: ('A' for Active; 'I' for Inactive)
REMARK    1  A    between atoms: C_2  and  C_4
REMARK    2  A    between atoms: C_2  and  C_12
REMARK    3  A    between atoms: C_4  and  C_6
REMARK                            x       y       z     vdW  Elec       q    Type
REMARK                         _______ _______ _______ _____ _____    ______ ____
ROOT
ATOM      1  C   UNL     1      -2.462   5.599  -5.496  0.00  0.00    +0.012 C 
ATOM      2  C   UNL     1      -1.613   6.315  -4.451  0.00  0.00    +0.076 C 
ATOM      3  C   UNL     1      -1.972   7.792  -4.583  0.00  0.00    +0.012 C 
ENDROOT
BRANCH   2   4
ATOM      4  C   UNL     1      -0.175   6.151  -4.789  0.00  0.00    +0.003 A 
ATOM      5  C   UNL     1       0.499   4.951  -4.693  0.00  0.00    +0.095 A 
ATOM      6  N   UNL     1       1.401   4.565  -5.620  0.00  0.00    -0.243 NA
ATOM      7  C   UNL     1       1.786   5.439  -6.571  0.00  0.00    +0.099 A 
ATOM      8  C   UNL     1       1.548   6.784  -6.314  0.00  0.00    +0.020 A 
ATOM      9  C   UNL     1       0.390   7.105  -5.616  0.00  0.00    -0.001 A 
ENDBRANCH   2   4
BRANCH   2  10
ATOM     10  C   UNL     1      -1.919   5.829  -3.074  0.00  0.00    +0.178 C 
ATOM     11  O   UNL     1      -2.624   4.776  -3.028  0.00  0.00    -0.291 OA
BRANCH  10  12
ATOM     12  C   UNL     1      -1.347   6.407  -1.873  0.00  0.00    +0.054 A 
ATOM     13  C   UNL     1      -0.281   5.841  -1.186  0.00  0.00    +0.102 A 
ATOM     14  N   UNL     1       0.187   6.492  -0.097  0.00  0.00    -0.242 NA
ATOM     15  C   UNL     1      -0.696   7.093   0.723  0.00  0.00    +0.099 A 
ATOM     16  C   UNL     1      -1.904   7.516   0.207  0.00  0.00    +0.021 A 
ATOM     17  C   UNL     1      -2.173   7.232  -1.122  0.00  0.00    +0.006 A 
ENDBRANCH  10  12
ENDBRANCH   2  10
TORSDOF 3
ENDMDL
