MODEL 1
REMARK VINA RESULT:      -5.8      0.000      0.000
REMARK  Name = 
REMARK  1 active torsions:
REMARK  status: ('A' for Active; 'I' for Inactive)
REMARK    1  A    between atoms: C_5  and  C_6
REMARK                            x       y       z     vdW  Elec       q    Type
REMARK                         _______ _______ _______ _____ _____    ______ ____
ROOT
ATOM      1  C   UNL     1       8.758   5.936 -11.987  0.00  0.00    +0.031 C 
ATOM      2  C   UNL     1       7.776   6.482 -10.997  0.00  0.00    -0.019 A 
ATOM      3  C   UNL     1       7.395   5.697  -9.914  0.00  0.00    +0.037 A 
ATOM      4  C   UNL     1       6.066   5.649  -9.511  0.00  0.00    +0.191 A 
ATOM      5  O   UNL     1       5.724   5.018  -8.331  0.00  0.00    -0.287 OA
ATOM      6  C   UNL     1       5.142   6.536 -10.029  0.00  0.00    +0.016 A 
ATOM      7  C   UNL     1       5.555   7.457 -10.978  0.00  0.00    -0.001 A 
ATOM      8  C   UNL     1       6.900   7.509 -11.329  0.00  0.00    -0.004 A 
ENDROOT
BRANCH   6   9
ATOM      9  C   UNL     1       3.706   6.202 -10.012  0.00  0.00    +0.025 C 
ATOM     10  C   UNL     1       3.089   6.194 -11.385  0.00  0.00    +0.005 C 
ATOM     11  C   UNL     1       2.914   6.985  -9.011  0.00  0.00    +0.005 C 
ENDBRANCH   6   9
TORSDOF 1
ENDMDL
MODEL 2
REMARK VINA RESULT:      -5.5      1.933      4.329
REMARK  Name = 
REMARK  1 active torsions:
REMARK  status: ('A' for Active; 'I' for Inactive)
REMARK    1  A    between atoms: C_5  and  C_6
REMARK                            x       y       z     vdW  Elec       q    Type
REMARK                         _______ _______ _______ _____ _____    ______ ____
ROOT
ATOM      1  C   UNL     1       4.102   5.137  -9.036  0.00  0.00    +0.031 C 
ATOM      2  C   UNL     1       5.335   5.920  -9.366  0.00  0.00    -0.019 A 
ATOM      3  C   UNL     1       5.243   6.997 -10.241  0.00  0.00    +0.037 A 
ATOM      4  C   UNL     1       6.216   7.200 -11.214  0.00  0.00    +0.191 A 
ATOM      5  O   UNL     1       6.218   8.366 -11.955  0.00  0.00    -0.287 OA
ATOM      6  C   UNL     1       7.393   6.477 -11.193  0.00  0.00    +0.016 A 
ATOM      7  C   UNL     1       7.578   5.525 -10.205  0.00  0.00    -0.001 A 
ATOM      8  C   UNL     1       6.607   5.375  -9.220  0.00  0.00    -0.004 A 
ENDROOT
BRANCH   6   9
ATOM      9  C   UNL     1       8.178   6.308 -12.430  0.00  0.00    +0.025 C 
ATOM     10  C   UNL     1       7.473   5.473 -13.464  0.00  0.00    +0.005 C 
ATOM     11  C   UNL     1       9.595   5.887 -12.193  0.00  0.00    +0.005 C 
ENDBRANCH   6   9
TORSDOF 1
ENDMDL
MODEL 3
REMARK VINA RESULT:      -5.3      4.945      7.698
REMARK  Name = 
REMARK  1 active torsions:
REMARK  status: ('A' for Active; 'I' for Inactive)
REMARK    1  A    between atoms: C_5  and  C_6
REMARK                            x       y       z     vdW  Elec       q    Type
REMARK                         _______ _______ _______ _____ _____    ______ ____
ROOT
ATOM      1  C   UNL     1      -2.388   7.647  -4.889  0.00  0.00    +0.031 C 
ATOM      2  C   UNL     1      -1.383   6.633  -5.340  0.00  0.00    -0.019 A 
ATOM      3  C   UNL     1      -0.029   6.941  -5.275  0.00  0.00    +0.037 A 
ATOM      4  C   UNL     1       0.824   6.594  -6.316  0.00  0.00    +0.191 A 
ATOM      5  O   UNL     1       2.190   6.737  -6.167  0.00  0.00    -0.287 OA
ATOM      6  C   UNL     1       0.396   5.754  -7.326  0.00  0.00    +0.016 A 
ATOM      7  C   UNL     1      -0.906   5.284  -7.300  0.00  0.00    -0.001 A 
ATOM      8  C   UNL     1      -1.723   5.612  -6.222  0.00  0.00    -0.004 A 
ENDROOT
BRANCH   6   9
ATOM      9  C   UNL     1       1.065   5.775  -8.639  0.00  0.00    +0.025 C 
ATOM     10  C   UNL     1       0.112   6.007  -9.780  0.00  0.00    +0.005 C 
ATOM     11  C   UNL     1       1.991   4.620  -8.865  0.00  0.00    +0.005 C 
ENDBRANCH   6   9
TORSDOF 1
ENDMDL
MODEL 4
REMARK VINA RESULT:      -5.2      6.238      8.747
REMARK  Name = 
REMARK  1 active torsions:
REMARK  status: ('A' for Active; 'I' for Inactive)
REMARK    1  A    between atoms: C_5  and  C_6
REMARK                            x       y       z     vdW  Elec       q    Type
REMARK                         _______ _______ _______ _____ _____    ______ ____
ROOT
ATOM      1  C   UNL     1       1.936   5.318  -6.903  0.00  0.00    +0.031 C 
ATOM      2  C   UNL     1       0.686   5.019  -6.134  0.00  0.00    -0.019 A 
ATOM      3  C   UNL     1      -0.546   5.128  -6.770  0.00  0.00    +0.037 A 
ATOM      4  C   UNL     1      -1.627   5.709  -6.117  0.00  0.00    +0.191 A 
ATOM      5  O   UNL     1      -2.887   5.649  -6.680  0.00  0.00    -0.287 OA
ATOM      6  C   UNL     1      -1.566   5.989  -4.766  0.00  0.00    +0.016 A 
ATOM      7  C   UNL     1      -0.399   5.706  -4.075  0.00  0.00    -0.001 A 
ATOM      8  C   UNL     1       0.650   5.085  -4.745  0.00  0.00    -0.004 A 
ENDROOT
BRANCH   6   9
ATOM      9  C   UNL     1      -2.448   7.016  -4.182  0.00  0.00    +0.025 C 
ATOM     10  C   UNL     1      -1.930   8.415  -4.379  0.00  0.00    +0.005 C 
ATOM     11  C   UNL     1      -2.860   6.728  -2.772  0.00  0.00    +0.005 C 
ENDBRANCH   6   9
TORSDOF 1
ENDMDL
MODEL 5
REMARK VINA RESULT:      -5.2      1.472      3.835
REMARK  Name = 
REMARK  1 active torsions:
REMARK  status: ('A' for Active; 'I' for Inactive)
REMARK    1  A    between atoms: C_5  and  C_6
REMARK                            x       y       z     vdW  Elec       q    Type
REMARK                         _______ _______ _______ _____ _____    ______ ____
ROOT
ATOM      1  C   UNL     1       3.177   5.715  -7.788  0.00  0.00    +0.031 C 
ATOM      2  C   UNL     1       4.141   5.250  -8.836  0.00  0.00    -0.019 A 
ATOM      3  C   UNL     1       5.502   5.245  -8.553  0.00  0.00    +0.037 A 
ATOM      4  C   UNL     1       6.421   5.679  -9.503  0.00  0.00    +0.191 A 
ATOM      5  O   UNL     1       7.773   5.500  -9.287  0.00  0.00    -0.287 OA
ATOM      6  C   UNL     1       6.027   5.912 -10.807  0.00  0.00    +0.016 A 
ATOM      7  C   UNL     1       4.697   5.735 -11.147  0.00  0.00    -0.001 A 
ATOM      8  C   UNL     1       3.810   5.260 -10.187  0.00  0.00    -0.004 A 
ENDROOT
BRANCH   6   9
ATOM      9  C   UNL     1       6.816   6.812 -11.667  0.00  0.00    +0.025 C 
ATOM     10  C   UNL     1       6.533   8.268 -11.410  0.00  0.00    +0.005 C 
ATOM     11  C   UNL     1       6.779   6.448 -13.118  0.00  0.00    +0.005 C 
ENDBRANCH   6   9
TORSDOF 1
ENDMDL
MODEL 6
REMARK VINA RESULT:      -5.2      2.095      3.148
REMARK  Name = 
REMARK  1 active torsions:
REMARK  status: ('A' for Active; 'I' for Inactive)
REMARK    1  A    between atoms: C_5  and  C_6
REMARK                            x       y       z     vdW  Elec       q    Type
REMARK                         _______ _______ _______ _____ _____    ______ ____
ROOT
ATOM      1  C   UNL     1       7.065   7.686 -10.899  0.00  0.00    +0.031 C 
ATOM      2  C   UNL     1       6.075   6.644 -10.481  0.00  0.00    -0.019 A 
ATOM      3  C   UNL     1       4.716   6.911 -10.599  0.00  0.00    +0.037 A 
ATOM      4  C   UNL     1       3.834   6.542  -9.589  0.00  0.00    +0.191 A 
ATOM      5  O   UNL     1       2.472   6.643  -9.790  0.00  0.00    -0.287 OA
ATOM      6  C   UNL     1       4.249   5.718  -8.560  0.00  0.00    +0.016 A 
ATOM      7  C   UNL     1       5.565   5.287  -8.535  0.00  0.00    -0.001 A 
ATOM      8  C   UNL     1       6.411   5.636  -9.583  0.00  0.00    -0.004 A 
ENDROOT
BRANCH   6   9
ATOM      9  C   UNL     1       3.530   5.724  -7.273  0.00  0.00    +0.025 C 
ATOM     10  C   UNL     1       4.433   5.985  -6.098  0.00  0.00    +0.005 C 
ATOM     11  C   UNL     1       2.629   4.543  -7.079  0.00  0.00    +0.005 C 
ENDBRANCH   6   9
TORSDOF 1
ENDMDL
MODEL 7
REMARK VINA RESULT:      -5.2      6.016      9.328
REMARK  Name = 
REMARK  1 active torsions:
REMARK  status: ('A' for Active; 'I' for Inactive)
REMARK    1  A    between atoms: C_5  and  C_6
REMARK                            x       y       z     vdW  Elec       q    Type
REMARK                         _______ _______ _______ _____ _____    ______ ____
ROOT
ATOM      1  C   UNL     1      -3.446   6.171  -2.916  0.00  0.00    +0.031 C 
ATOM      2  C   UNL     1      -2.746   6.610  -4.164  0.00  0.00    -0.019 A 
ATOM      3  C   UNL     1      -2.551   5.695  -5.193  0.00  0.00    +0.037 A 
ATOM      4  C   UNL     1      -1.340   5.649  -5.875  0.00  0.00    +0.191 A 
ATOM      5  O   UNL     1      -1.216   4.870  -7.009  0.00  0.00    -0.287 OA
ATOM      6  C   UNL     1      -0.396   6.642  -5.699  0.00  0.00    +0.016 A 
ATOM      7  C   UNL     1      -0.662   7.670  -4.811  0.00  0.00    -0.001 A 
ATOM      8  C   UNL     1      -1.898   7.713  -4.176  0.00  0.00    -0.004 A 
ENDROOT
BRANCH   6   9
ATOM      9  C   UNL     1       1.023   6.373  -5.995  0.00  0.00    +0.025 C 
ATOM     10  C   UNL     1       1.875   6.289  -4.757  0.00  0.00    +0.005 C 
ATOM     11  C   UNL     1       1.600   7.262  -7.053  0.00  0.00    +0.005 C 
ENDBRANCH   6   9
TORSDOF 1
ENDMDL
MODEL 8
REMARK VINA RESULT:      -5.1      6.111      8.663
REMARK  Name = 
REMARK  1 active torsions:
REMARK  status: ('A' for Active; 'I' for Inactive)
REMARK    1  A    between atoms: C_5  and  C_6
REMARK                            x       y       z     vdW  Elec       q    Type
REMARK                         _______ _______ _______ _____ _____    ______ ____
ROOT
ATOM      1  C   UNL     1      -2.823   7.686  -5.256  0.00  0.00    +0.031 C 
ATOM      2  C   UNL     1      -2.078   6.389  -5.187  0.00  0.00    -0.019 A 
ATOM      3  C   UNL     1      -1.328   6.095  -4.054  0.00  0.00    +0.037 A 
ATOM      4  C   UNL     1      -0.069   5.518  -4.172  0.00  0.00    +0.191 A 
ATOM      5  O   UNL     1       0.590   5.062  -3.047  0.00  0.00    -0.287 OA
ATOM      6  C   UNL     1       0.369   5.028  -5.387  0.00  0.00    +0.016 A 
ATOM      7  C   UNL     1      -0.455   5.146  -6.494  0.00  0.00    -0.001 A 
ATOM      8  C   UNL     1      -1.726   5.688  -6.336  0.00  0.00    -0.004 A 
ENDROOT
BRANCH   6   9
ATOM      9  C   UNL     1       1.813   4.885  -5.650  0.00  0.00    +0.025 C 
ATOM     10  C   UNL     1       2.470   6.181  -6.041  0.00  0.00    +0.005 C 
ATOM     11  C   UNL     1       2.151   3.749  -6.565  0.00  0.00    +0.005 C 
ENDBRANCH   6   9
TORSDOF 1
ENDMDL
MODEL 9
REMARK VINA RESULT:      -5.1      1.855      2.991
REMARK  Name = 
REMARK  1 active torsions:
REMARK  status: ('A' for Active; 'I' for Inactive)
REMARK    1  A    between atoms: C_5  and  C_6
REMARK                            x       y       z     vdW  Elec       q    Type
REMARK                         _______ _______ _______ _____ _____    ______ ____
ROOT
ATOM      1  C   UNL     1       7.448   6.410  -9.950  0.00  0.00    +0.031 C 
ATOM      2  C   UNL     1       6.083   5.795  -9.915  0.00  0.00    -0.019 A 
ATOM      3  C   UNL     1       5.189   6.063 -10.946  0.00  0.00    +0.037 A 
ATOM      4  C   UNL     1       3.851   6.318 -10.671  0.00  0.00    +0.191 A 
ATOM      5  O   UNL     1       2.937   6.401 -11.703  0.00  0.00    -0.287 OA
ATOM      6  C   UNL     1       3.339   6.099  -9.406  0.00  0.00    +0.016 A 
ATOM      7  C   UNL     1       4.186   5.646  -8.409  0.00  0.00    -0.001 A 
ATOM      8  C   UNL     1       5.510   5.358  -8.725  0.00  0.00    -0.004 A 
ENDROOT
BRANCH   6   9
ATOM      9  C   UNL     1       2.120   6.804  -8.969  0.00  0.00    +0.025 C 
ATOM     10  C   UNL     1       2.338   7.646  -7.741  0.00  0.00    +0.005 C 
ATOM     11  C   UNL     1       0.912   5.925  -8.879  0.00  0.00    +0.005 C 
ENDBRANCH   6   9
TORSDOF 1
ENDMDL
