MODEL 1
REMARK VINA RESULT:      -7.5      0.000      0.000
REMARK  Name = 
REMARK  5 active torsions:
REMARK  status: ('A' for Active; 'I' for Inactive)
REMARK    1  A    between atoms: C_2  and  C_3
REMARK    2  A    between atoms: C_3  and  C_4
REMARK    3  A    between atoms: C_4  and  N_5
REMARK    4  A    between atoms: C_10  and  C_11
REMARK    5  A    between atoms: N_13  and  C_14
REMARK                            x       y       z     vdW  Elec       q    Type
REMARK                         _______ _______ _______ _____ _____    ______ ____
ROOT
ATOM      1  C   UNL     1       4.028   5.963  -9.827  0.00  0.00    +0.260 C 
ATOM      2  N   UNL     1       4.805   6.728 -10.708  0.00  0.00    -0.179 NA
ATOM      3  O   UNL     1       4.052   4.750  -9.901  0.00  0.00    -0.272 OA
ENDROOT
BRANCH   2   4
ATOM      4  C   UNL     1       5.937   6.265 -11.407  0.00  0.00    +0.065 A 
ATOM      5  C   UNL     1       7.154   6.277 -10.734  0.00  0.00    -0.007 A 
ATOM      6  C   UNL     1       7.213   5.811  -9.312  0.00  0.00    +0.032 C 
ATOM      7  C   UNL     1       8.270   6.270 -11.568  0.00  0.00    -0.003 A 
ATOM      8  C   UNL     1       8.185   5.716 -12.840  0.00  0.00    -0.001 A 
ATOM      9  C   UNL     1       6.964   5.269 -13.334  0.00  0.00    -0.003 A 
ATOM     10  C   UNL     1       5.811   5.615 -12.633  0.00  0.00    -0.007 A 
ATOM     11  C   UNL     1       4.497   5.318 -13.232  0.00  0.00    +0.032 C 
ENDBRANCH   2   4
BRANCH   1  13
ATOM     12  N   UNL     1       2.091   5.933  -8.590  0.00  0.00    -0.267 NA
ATOM     13  C   UNL     1       3.478   6.680  -8.495  0.00  0.00    +0.137 C 
ATOM     14  C   UNL     1       4.122   5.570  -7.465  0.00  0.00    +0.025 C 
ATOM     15  C   UNL     1       3.095   5.150  -6.501  0.00  0.00    +0.003 C 
ATOM     16  C   UNL     1       2.176   6.298  -6.212  0.00  0.00    +0.017 C 
ATOM     17  C   UNL     1       1.332   6.483  -7.465  0.00  0.00    +0.072 C 
BRANCH  12  18
ATOM     18  C   UNL     1       1.508   6.562  -9.777  0.00  0.00    +0.072 C 
BRANCH  18  19
ATOM     19  C   UNL     1       0.129   6.035 -10.071  0.00  0.00    +0.017 C 
BRANCH  19  21
ATOM     20  C   UNL     1       0.391   4.758 -11.937  0.00  0.00    +0.000 C 
ATOM     21  C   UNL     1       0.144   4.743 -10.842  0.00  0.00    +0.001 C 
ENDBRANCH  19  21
ENDBRANCH  18  19
ENDBRANCH  12  18
ENDBRANCH   1  13
TORSDOF 5
ENDMDL
MODEL 2
REMARK VINA RESULT:      -7.4      4.761      9.224
REMARK  Name = 
REMARK  5 active torsions:
REMARK  status: ('A' for Active; 'I' for Inactive)
REMARK    1  A    between atoms: C_2  and  C_3
REMARK    2  A    between atoms: C_3  and  C_4
REMARK    3  A    between atoms: C_4  and  N_5
REMARK    4  A    between atoms: C_10  and  C_11
REMARK    5  A    between atoms: N_13  and  C_14
REMARK                            x       y       z     vdW  Elec       q    Type
REMARK                         _______ _______ _______ _____ _____    ______ ____
ROOT
ATOM      1  C   UNL     1       0.749   5.977  -4.261  0.00  0.00    +0.260 C 
ATOM      2  N   UNL     1      -0.019   5.275  -3.321  0.00  0.00    -0.179 NA
ATOM      3  O   UNL     1       0.531   7.157  -4.454  0.00  0.00    -0.272 OA
ENDROOT
BRANCH   2   4
ATOM      4  C   UNL     1      -0.744   5.857  -2.263  0.00  0.00    +0.065 A 
ATOM      5  C   UNL     1      -2.102   6.076  -2.463  0.00  0.00    -0.007 A 
ATOM      6  C   UNL     1      -2.930   5.013  -3.118  0.00  0.00    +0.032 C 
ATOM      7  C   UNL     1      -2.655   7.043  -1.626  0.00  0.00    -0.003 A 
ATOM      8  C   UNL     1      -2.086   7.296  -0.384  0.00  0.00    -0.001 A 
ATOM      9  C   UNL     1      -0.898   6.676  -0.012  0.00  0.00    -0.003 A 
ATOM     10  C   UNL     1      -0.180   6.000  -0.997  0.00  0.00    -0.007 A 
ATOM     11  C   UNL     1       1.167   5.496  -0.677  0.00  0.00    +0.032 C 
ENDBRANCH   2   4
BRANCH   1  13
ATOM     12  N   UNL     1       1.868   5.666  -6.244  0.00  0.00    -0.267 NA
ATOM     13  C   UNL     1       2.145   5.326  -4.727  0.00  0.00    +0.137 C 
ATOM     14  C   UNL     1       3.025   6.693  -4.474  0.00  0.00    +0.025 C 
ATOM     15  C   UNL     1       3.862   6.957  -5.654  0.00  0.00    +0.003 C 
ATOM     16  C   UNL     1       4.276   5.658  -6.278  0.00  0.00    +0.017 C 
ATOM     17  C   UNL     1       3.024   5.094  -6.936  0.00  0.00    +0.072 C 
BRANCH  12  18
ATOM     18  C   UNL     1       0.763   4.755  -6.545  0.00  0.00    +0.072 C 
BRANCH  18  19
ATOM     19  C   UNL     1      -0.293   5.413  -7.391  0.00  0.00    +0.017 C 
BRANCH  19  21
ATOM     20  C   UNL     1      -2.266   6.013  -6.426  0.00  0.00    +0.000 C 
ATOM     21  C   UNL     1      -1.690   5.167  -6.886  0.00  0.00    +0.001 C 
ENDBRANCH  19  21
ENDBRANCH  18  19
ENDBRANCH  12  18
ENDBRANCH   1  13
TORSDOF 5
ENDMDL
MODEL 3
REMARK VINA RESULT:      -7.4      3.063      7.473
REMARK  Name = 
REMARK  5 active torsions:
REMARK  status: ('A' for Active; 'I' for Inactive)
REMARK    1  A    between atoms: C_2  and  C_3
REMARK    2  A    between atoms: C_3  and  C_4
REMARK    3  A    between atoms: C_4  and  N_5
REMARK    4  A    between atoms: C_10  and  C_11
REMARK    5  A    between atoms: N_13  and  C_14
REMARK                            x       y       z     vdW  Elec       q    Type
REMARK                         _______ _______ _______ _____ _____    ______ ____
ROOT
ATOM      1  C   UNL     1       1.152   5.709  -7.025  0.00  0.00    +0.260 C 
ATOM      2  N   UNL     1       0.112   5.169  -6.255  0.00  0.00    -0.179 NA
ATOM      3  O   UNL     1       1.212   6.911  -7.195  0.00  0.00    -0.272 OA
ENDROOT
BRANCH   2   4
ATOM      4  C   UNL     1      -0.648   5.875  -5.302  0.00  0.00    +0.065 A 
ATOM      5  C   UNL     1      -1.907   6.320  -5.689  0.00  0.00    -0.007 A 
ATOM      6  C   UNL     1      -2.801   5.409  -6.472  0.00  0.00    +0.032 C 
ATOM      7  C   UNL     1      -2.401   7.374  -4.924  0.00  0.00    -0.003 A 
ATOM      8  C   UNL     1      -1.981   7.538  -3.610  0.00  0.00    -0.001 A 
ATOM      9  C   UNL     1      -0.981   6.727  -3.083  0.00  0.00    -0.003 A 
ATOM     10  C   UNL     1      -0.255   5.931  -3.967  0.00  0.00    -0.007 A 
ATOM     11  C   UNL     1       0.928   5.208  -3.466  0.00  0.00    +0.032 C 
ENDBRANCH   2   4
BRANCH   1  13
ATOM     12  N   UNL     1       2.601   5.326  -8.767  0.00  0.00    -0.267 NA
ATOM     13  C   UNL     1       2.446   4.790  -7.290  0.00  0.00    +0.137 C 
ATOM     14  C   UNL     1       3.516   5.877  -6.672  0.00  0.00    +0.025 C 
ATOM     15  C   UNL     1       4.636   6.041  -7.610  0.00  0.00    +0.003 C 
ATOM     16  C   UNL     1       4.895   4.745  -8.318  0.00  0.00    +0.017 C 
ATOM     17  C   UNL     1       3.735   4.561  -9.287  0.00  0.00    +0.072 C 
BRANCH  12  18
ATOM     18  C   UNL     1       1.426   4.737  -9.411  0.00  0.00    +0.072 C 
BRANCH  18  19
ATOM     19  C   UNL     1       1.088   5.431 -10.703  0.00  0.00    +0.017 C 
BRANCH  19  21
ATOM     20  C   UNL     1      -0.186   7.210 -11.333  0.00  0.00    +0.000 C 
ATOM     21  C   UNL     1      -0.062   6.392 -10.573  0.00  0.00    +0.001 C 
ENDBRANCH  19  21
ENDBRANCH  18  19
ENDBRANCH  12  18
ENDBRANCH   1  13
TORSDOF 5
ENDMDL
MODEL 4
REMARK VINA RESULT:      -7.3      2.170      6.589
REMARK  Name = 
REMARK  5 active torsions:
REMARK  status: ('A' for Active; 'I' for Inactive)
REMARK    1  A    between atoms: C_2  and  C_3
REMARK    2  A    between atoms: C_3  and  C_4
REMARK    3  A    between atoms: C_4  and  N_5
REMARK    4  A    between atoms: C_10  and  C_11
REMARK    5  A    between atoms: N_13  and  C_14
REMARK                            x       y       z     vdW  Elec       q    Type
REMARK                         _______ _______ _______ _____ _____    ______ ____
ROOT
ATOM      1  C   UNL     1       2.729   6.330  -7.441  0.00  0.00    +0.260 C 
ATOM      2  N   UNL     1       2.860   7.166  -6.322  0.00  0.00    -0.179 NA
ATOM      3  O   UNL     1       2.954   5.141  -7.332  0.00  0.00    -0.272 OA
ENDROOT
BRANCH   2   4
ATOM      4  C   UNL     1       2.820   6.742  -4.980  0.00  0.00    +0.065 A 
ATOM      5  C   UNL     1       4.027   6.680  -4.292  0.00  0.00    -0.007 A 
ATOM      6  C   UNL     1       5.016   7.795  -4.440  0.00  0.00    +0.032 C 
ATOM      7  C   UNL     1       4.010   5.840  -3.180  0.00  0.00    -0.003 A 
ATOM      8  C   UNL     1       2.816   5.594  -2.512  0.00  0.00    -0.001 A 
ATOM      9  C   UNL     1       1.614   6.085  -3.011  0.00  0.00    -0.003 A 
ATOM     10  C   UNL     1       1.610   6.607  -4.303  0.00  0.00    -0.007 A 
ATOM     11  C   UNL     1       0.320   6.959  -4.925  0.00  0.00    +0.032 C 
ENDBRANCH   2   4
BRANCH   1  13
ATOM     12  N   UNL     1       2.705   5.998  -9.715  0.00  0.00    -0.267 NA
ATOM     13  C   UNL     1       1.885   6.882  -8.695  0.00  0.00    +0.137 C 
ATOM     14  C   UNL     1       0.678   5.775  -8.547  0.00  0.00    +0.025 C 
ATOM     15  C   UNL     1       0.405   5.175  -9.861  0.00  0.00    +0.003 C 
ATOM     16  C   UNL     1       0.640   6.192 -10.938  0.00  0.00    +0.017 C 
ATOM     17  C   UNL     1       2.149   6.376 -11.015  0.00  0.00    +0.072 C 
BRANCH  12  18
ATOM     18  C   UNL     1       4.017   6.647  -9.666  0.00  0.00    +0.072 C 
BRANCH  18  19
ATOM     19  C   UNL     1       5.113   5.731 -10.140  0.00  0.00    +0.017 C 
BRANCH  19  21
ATOM     20  C   UNL     1       7.312   5.725  -9.549  0.00  0.00    +0.000 C 
ATOM     21  C   UNL     1       6.259   5.634  -9.169  0.00  0.00    +0.001 C 
ENDBRANCH  19  21
ENDBRANCH  18  19
ENDBRANCH  12  18
ENDBRANCH   1  13
TORSDOF 5
ENDMDL
MODEL 5
REMARK VINA RESULT:      -7.3      3.656      8.650
REMARK  Name = 
REMARK  5 active torsions:
REMARK  status: ('A' for Active; 'I' for Inactive)
REMARK    1  A    between atoms: C_2  and  C_3
REMARK    2  A    between atoms: C_3  and  C_4
REMARK    3  A    between atoms: C_4  and  N_5
REMARK    4  A    between atoms: C_10  and  C_11
REMARK    5  A    between atoms: N_13  and  C_14
REMARK                            x       y       z     vdW  Elec       q    Type
REMARK                         _______ _______ _______ _____ _____    ______ ____
ROOT
ATOM      1  C   UNL     1       1.443   5.352  -5.601  0.00  0.00    +0.260 C 
ATOM      2  N   UNL     1       0.705   6.294  -4.870  0.00  0.00    -0.179 NA
ATOM      3  O   UNL     1       1.186   4.170  -5.489  0.00  0.00    -0.272 OA
ENDROOT
BRANCH   2   4
ATOM      4  C   UNL     1      -0.579   6.083  -4.331  0.00  0.00    +0.065 A 
ATOM      5  C   UNL     1      -1.664   6.219  -5.189  0.00  0.00    -0.007 A 
ATOM      6  C   UNL     1      -1.592   5.633  -6.565  0.00  0.00    +0.032 C 
ATOM      7  C   UNL     1      -2.875   6.467  -4.545  0.00  0.00    -0.003 A 
ATOM      8  C   UNL     1      -3.072   6.031  -3.241  0.00  0.00    -0.001 A 
ATOM      9  C   UNL     1      -2.029   5.450  -2.527  0.00  0.00    -0.003 A 
ATOM     10  C   UNL     1      -0.744   5.543  -3.057  0.00  0.00    -0.007 A 
ATOM     11  C   UNL     1       0.399   5.104  -2.236  0.00  0.00    +0.032 C 
ENDBRANCH   2   4
BRANCH   1  13
ATOM     12  N   UNL     1       3.578   5.078  -6.407  0.00  0.00    -0.267 NA
ATOM     13  C   UNL     1       2.295   5.878  -6.861  0.00  0.00    +0.137 C 
ATOM     14  C   UNL     1       1.786   4.688  -7.877  0.00  0.00    +0.025 C 
ATOM     15  C   UNL     1       2.948   4.105  -8.562  0.00  0.00    +0.003 C 
ATOM     16  C   UNL     1       3.989   5.164  -8.778  0.00  0.00    +0.017 C 
ATOM     17  C   UNL     1       4.581   5.452  -7.405  0.00  0.00    +0.072 C 
BRANCH  12  18
ATOM     18  C   UNL     1       3.961   5.812  -5.199  0.00  0.00    +0.072 C 
BRANCH  18  19
ATOM     19  C   UNL     1       4.733   4.949  -4.239  0.00  0.00    +0.017 C 
BRANCH  19  21
ATOM     20  C   UNL     1       4.053   5.980  -2.326  0.00  0.00    +0.000 C 
ATOM     21  C   UNL     1       4.183   4.989  -2.838  0.00  0.00    +0.001 C 
ENDBRANCH  19  21
ENDBRANCH  18  19
ENDBRANCH  12  18
ENDBRANCH   1  13
TORSDOF 5
ENDMDL
MODEL 6
REMARK VINA RESULT:      -7.2      2.398      4.387
REMARK  Name = 
REMARK  5 active torsions:
REMARK  status: ('A' for Active; 'I' for Inactive)
REMARK    1  A    between atoms: C_2  and  C_3
REMARK    2  A    between atoms: C_3  and  C_4
REMARK    3  A    between atoms: C_4  and  N_5
REMARK    4  A    between atoms: C_10  and  C_11
REMARK    5  A    between atoms: N_13  and  C_14
REMARK                            x       y       z     vdW  Elec       q    Type
REMARK                         _______ _______ _______ _____ _____    ______ ____
ROOT
ATOM      1  C   UNL     1       2.115   6.147  -8.320  0.00  0.00    +0.260 C 
ATOM      2  N   UNL     1       1.747   6.863  -9.468  0.00  0.00    -0.179 NA
ATOM      3  O   UNL     1       2.104   4.933  -8.340  0.00  0.00    -0.272 OA
ENDROOT
BRANCH   2   4
ATOM      4  C   UNL     1       1.761   6.357 -10.783  0.00  0.00    +0.065 A 
ATOM      5  C   UNL     1       0.534   6.174 -11.410  0.00  0.00    -0.007 A 
ATOM      6  C   UNL     1      -0.520   7.230 -11.287  0.00  0.00    +0.032 C 
ATOM      7  C   UNL     1       0.562   5.267 -12.468  0.00  0.00    -0.003 A 
ATOM      8  C   UNL     1       1.742   5.055 -13.172  0.00  0.00    -0.001 A 
ATOM      9  C   UNL     1       2.927   5.654 -12.759  0.00  0.00    -0.003 A 
ATOM     10  C   UNL     1       2.949   6.257 -11.503  0.00  0.00    -0.007 A 
ATOM     11  C   UNL     1       4.237   6.730 -10.963  0.00  0.00    +0.032 C 
ENDBRANCH   2   4
BRANCH   1  13
ATOM     12  N   UNL     1       2.130   6.219  -6.023  0.00  0.00    -0.267 NA
ATOM     13  C   UNL     1       2.937   6.929  -7.178  0.00  0.00    +0.137 C 
ATOM     14  C   UNL     1       4.170   5.842  -7.127  0.00  0.00    +0.025 C 
ATOM     15  C   UNL     1       4.447   5.487  -5.728  0.00  0.00    +0.003 C 
ATOM     16  C   UNL     1       4.182   6.671  -4.846  0.00  0.00    +0.017 C 
ATOM     17  C   UNL     1       2.669   6.831  -4.807  0.00  0.00    +0.072 C 
BRANCH  12  18
ATOM     18  C   UNL     1       0.805   6.818  -6.188  0.00  0.00    +0.072 C 
BRANCH  18  19
ATOM     19  C   UNL     1      -0.225   6.152  -5.315  0.00  0.00    +0.017 C 
BRANCH  19  21
ATOM     20  C   UNL     1      -1.356   5.230  -7.063  0.00  0.00    +0.000 C 
ATOM     21  C   UNL     1      -1.461   5.745  -6.070  0.00  0.00    +0.001 C 
ENDBRANCH  19  21
ENDBRANCH  18  19
ENDBRANCH  12  18
ENDBRANCH   1  13
TORSDOF 5
ENDMDL
MODEL 7
REMARK VINA RESULT:      -7.1      4.370      7.595
REMARK  Name = 
REMARK  5 active torsions:
REMARK  status: ('A' for Active; 'I' for Inactive)
REMARK    1  A    between atoms: C_2  and  C_3
REMARK    2  A    between atoms: C_3  and  C_4
REMARK    3  A    between atoms: C_4  and  N_5
REMARK    4  A    between atoms: C_10  and  C_11
REMARK    5  A    between atoms: N_13  and  C_14
REMARK                            x       y       z     vdW  Elec       q    Type
REMARK                         _______ _______ _______ _____ _____    ______ ____
ROOT
ATOM      1  C   UNL     1       1.337   5.941  -5.464  0.00  0.00    +0.260 C 
ATOM      2  N   UNL     1       1.723   5.129  -4.388  0.00  0.00    -0.179 NA
ATOM      3  O   UNL     1       1.180   7.134  -5.291  0.00  0.00    -0.272 OA
ENDROOT
BRANCH   2   4
ATOM      4  C   UNL     1       2.358   5.579  -3.214  0.00  0.00    +0.065 A 
ATOM      5  C   UNL     1       1.548   5.898  -2.131  0.00  0.00    -0.007 A 
ATOM      6  C   UNL     1       0.408   4.994  -1.773  0.00  0.00    +0.032 C 
ATOM      7  C   UNL     1       2.141   6.753  -1.204  0.00  0.00    -0.003 A 
ATOM      8  C   UNL     1       3.524   6.781  -1.070  0.00  0.00    -0.001 A 
ATOM      9  C   UNL     1       4.332   6.049  -1.933  0.00  0.00    -0.003 A 
ATOM     10  C   UNL     1       3.741   5.495  -3.067  0.00  0.00    -0.007 A 
ATOM     11  C   UNL     1       4.603   4.878  -4.090  0.00  0.00    +0.032 C 
ENDBRANCH   2   4
BRANCH   1  13
ATOM     12  N   UNL     1       0.144   5.942  -7.428  0.00  0.00    -0.267 NA
ATOM     13  C   UNL     1       1.532   5.360  -6.952  0.00  0.00    +0.137 C 
ATOM     14  C   UNL     1       2.382   6.659  -7.497  0.00  0.00    +0.025 C 
ATOM     15  C   UNL     1       1.822   7.100  -8.783  0.00  0.00    +0.003 C 
ATOM     16  C   UNL     1       1.302   5.915  -9.539  0.00  0.00    +0.017 C 
ATOM     17  C   UNL     1       0.039   5.477  -8.812  0.00  0.00    +0.072 C 
BRANCH  12  18
ATOM     18  C   UNL     1      -0.792   5.102  -6.679  0.00  0.00    +0.072 C 
BRANCH  18  19
ATOM     19  C   UNL     1      -2.126   5.774  -6.497  0.00  0.00    +0.017 C 
BRANCH  19  21
ATOM     20  C   UNL     1      -2.381   7.424  -4.950  0.00  0.00    +0.000 C 
ATOM     21  C   UNL     1      -2.328   6.314  -5.107  0.00  0.00    +0.001 C 
ENDBRANCH  19  21
ENDBRANCH  18  19
ENDBRANCH  12  18
ENDBRANCH   1  13
TORSDOF 5
ENDMDL
MODEL 8
REMARK VINA RESULT:      -7.0      2.012      5.660
REMARK  Name = 
REMARK  5 active torsions:
REMARK  status: ('A' for Active; 'I' for Inactive)
REMARK    1  A    between atoms: C_2  and  C_3
REMARK    2  A    between atoms: C_3  and  C_4
REMARK    3  A    between atoms: C_4  and  N_5
REMARK    4  A    between atoms: C_10  and  C_11
REMARK    5  A    between atoms: N_13  and  C_14
REMARK                            x       y       z     vdW  Elec       q    Type
REMARK                         _______ _______ _______ _____ _____    ______ ____
ROOT
ATOM      1  C   UNL     1       3.366   4.363  -8.510  0.00  0.00    +0.260 C 
ATOM      2  N   UNL     1       3.495   5.345  -7.517  0.00  0.00    -0.179 NA
ATOM      3  O   UNL     1       2.538   3.483  -8.382  0.00  0.00    -0.272 OA
ENDROOT
BRANCH   2   4
ATOM      4  C   UNL     1       2.504   5.686  -6.576  0.00  0.00    +0.065 A 
ATOM      5  C   UNL     1       2.462   4.951  -5.397  0.00  0.00    -0.007 A 
ATOM      6  C   UNL     1       3.739   4.622  -4.688  0.00  0.00    +0.032 C 
ATOM      7  C   UNL     1       1.233   4.993  -4.740  0.00  0.00    -0.003 A 
ATOM      8  C   UNL     1       0.392   6.086  -4.908  0.00  0.00    -0.001 A 
ATOM      9  C   UNL     1       0.711   7.089  -5.818  0.00  0.00    -0.003 A 
ATOM     10  C   UNL     1       1.748   6.847  -6.716  0.00  0.00    -0.007 A 
ATOM     11  C   UNL     1       1.983   7.810  -7.808  0.00  0.00    +0.032 C 
ENDBRANCH   2   4
BRANCH   1  13
ATOM     12  N   UNL     1       2.955   5.820 -10.240  0.00  0.00    -0.267 NA
ATOM     13  C   UNL     1       4.000   4.671  -9.957  0.00  0.00    +0.137 C 
ATOM     14  C   UNL     1       5.143   5.709  -9.389  0.00  0.00    +0.025 C 
ATOM     15  C   UNL     1       5.134   6.934 -10.201  0.00  0.00    +0.003 C 
ATOM     16  C   UNL     1       4.771   6.597 -11.617  0.00  0.00    +0.017 C 
ATOM     17  C   UNL     1       3.288   6.255 -11.597  0.00  0.00    +0.072 C 
BRANCH  12  18
ATOM     18  C   UNL     1       1.717   5.053 -10.386  0.00  0.00    +0.072 C 
BRANCH  18  19
ATOM     19  C   UNL     1       0.808   5.646 -11.429  0.00  0.00    +0.017 C 
BRANCH  19  21
ATOM     20  C   UNL     1      -0.567   7.460 -11.496  0.00  0.00    +0.000 C 
ATOM     21  C   UNL     1      -0.190   6.616 -10.857  0.00  0.00    +0.001 C 
ENDBRANCH  19  21
ENDBRANCH  18  19
ENDBRANCH  12  18
ENDBRANCH   1  13
TORSDOF 5
ENDMDL
MODEL 9
REMARK VINA RESULT:      -7.0      1.923      6.440
REMARK  Name = 
REMARK  5 active torsions:
REMARK  status: ('A' for Active; 'I' for Inactive)
REMARK    1  A    between atoms: C_2  and  C_3
REMARK    2  A    between atoms: C_3  and  C_4
REMARK    3  A    between atoms: C_4  and  N_5
REMARK    4  A    between atoms: C_10  and  C_11
REMARK    5  A    between atoms: N_13  and  C_14
REMARK                            x       y       z     vdW  Elec       q    Type
REMARK                         _______ _______ _______ _____ _____    ______ ____
ROOT
ATOM      1  C   UNL     1       4.679   6.173 -11.540  0.00  0.00    +0.260 C 
ATOM      2  N   UNL     1       3.513   5.406 -11.671  0.00  0.00    -0.179 NA
ATOM      3  O   UNL     1       4.630   7.252 -10.982  0.00  0.00    -0.272 OA
ENDROOT
BRANCH   2   4
ATOM      4  C   UNL     1       2.360   5.534 -10.873  0.00  0.00    +0.065 A 
ATOM      5  C   UNL     1       1.202   5.993 -11.491  0.00  0.00    -0.007 A 
ATOM      6  C   UNL     1       0.826   5.459 -12.839  0.00  0.00    +0.032 C 
ATOM      7  C   UNL     1       0.264   6.538 -10.617  0.00  0.00    -0.003 A 
ATOM      8  C   UNL     1       0.227   6.126  -9.290  0.00  0.00    -0.001 A 
ATOM      9  C   UNL     1       1.193   5.257  -8.794  0.00  0.00    -0.003 A 
ATOM     10  C   UNL     1       2.317   5.014  -9.581  0.00  0.00    -0.007 A 
ATOM     11  C   UNL     1       3.439   4.251  -9.005  0.00  0.00    +0.032 C 
ENDBRANCH   2   4
BRANCH   1  13
ATOM     12  N   UNL     1       6.658   6.609 -12.624  0.00  0.00    -0.267 NA
ATOM     13  C   UNL     1       6.093   5.431 -11.739  0.00  0.00    +0.137 C 
ATOM     14  C   UNL     1       6.754   6.019 -10.351  0.00  0.00    +0.025 C 
ATOM     15  C   UNL     1       8.090   6.558 -10.640  0.00  0.00    +0.003 C 
ATOM     16  C   UNL     1       8.729   5.759 -11.737  0.00  0.00    +0.017 C 
ATOM     17  C   UNL     1       7.987   6.134 -13.012  0.00  0.00    +0.072 C 
BRANCH  12  18
ATOM     18  C   UNL     1       5.845   6.474 -13.834  0.00  0.00    +0.072 C 
BRANCH  18  19
ATOM     19  C   UNL     1       6.278   7.432 -14.911  0.00  0.00    +0.017 C 
BRANCH  19  21
ATOM     20  C   UNL     1       7.427   6.990 -16.827  0.00  0.00    +0.000 C 
ATOM     21  C   UNL     1       6.495   6.763 -16.241  0.00  0.00    +0.001 C 
ENDBRANCH  19  21
ENDBRANCH  18  19
ENDBRANCH  12  18
ENDBRANCH   1  13
TORSDOF 5
ENDMDL
