MODEL 1
REMARK VINA RESULT:      -4.5      0.000      0.000
REMARK  Name = 
REMARK  4 active torsions:
REMARK  status: ('A' for Active; 'I' for Inactive)
REMARK    1  A    between atoms: N_4  and  C_5
REMARK    2  A    between atoms: C_5  and  C_6
REMARK    3  A    between atoms: C_6  and  C_7
REMARK    4  A    between atoms: C_7  and  S_8
REMARK                            x       y       z     vdW  Elec       q    Type
REMARK                         _______ _______ _______ _____ _____    ______ ____
ROOT
ATOM      1  C   UNL     1       6.259   7.341 -10.974  0.00  0.00    +0.047 C 
ENDROOT
BRANCH   1   2
ATOM      2  C   UNL     1       4.847   6.810 -11.148  0.00  0.00    +0.117 C 
BRANCH   2   5
ATOM      3  C   UNL     1       4.249   5.771  -7.570  0.00  0.00    +0.096 C 
ATOM      4  C   UNL     1       4.412   5.625  -9.047  0.00  0.00    +0.242 C 
ATOM      5  N   UNL     1       4.177   6.787  -9.851  0.00  0.00    -0.205 NA
ATOM      6  O   UNL     1       4.146   4.522  -9.610  0.00  0.00    -0.273 OA
ENDBRANCH   2   5
ENDBRANCH   1   2
BRANCH   1   7
ATOM      7  C   UNL     1       6.988   7.028 -12.273  0.00  0.00    +0.128 C 
BRANCH   7   8
ATOM      8  S   UNL     1       8.068   5.645 -11.963  0.00  0.00    -0.107 S 
ATOM      9  O   UNL     1       9.621   6.064 -12.458  0.00  0.00    -0.291 OA
ATOM     10  O   UNL     1       8.023   5.356 -10.504  0.00  0.00    -0.371 OA
ATOM     11  O   UNL     1       7.540   4.494 -12.785  0.00  0.00    -0.371 OA
ENDBRANCH   7   8
ENDBRANCH   1   7
TORSDOF 4
ENDMDL
MODEL 2
REMARK VINA RESULT:      -4.4      7.567     10.266
REMARK  Name = 
REMARK  4 active torsions:
REMARK  status: ('A' for Active; 'I' for Inactive)
REMARK    1  A    between atoms: N_4  and  C_5
REMARK    2  A    between atoms: C_5  and  C_6
REMARK    3  A    between atoms: C_6  and  C_7
REMARK    4  A    between atoms: C_7  and  S_8
REMARK                            x       y       z     vdW  Elec       q    Type
REMARK                         _______ _______ _______ _____ _____    ______ ____
ROOT
ATOM      1  C   UNL     1       0.501   5.378  -4.140  0.00  0.00    +0.047 C 
ENDROOT
BRANCH   1   2
ATOM      2  C   UNL     1       1.320   6.640  -4.351  0.00  0.00    +0.117 C 
BRANCH   2   5
ATOM      3  C   UNL     1       5.037   7.288  -4.389  0.00  0.00    +0.096 C 
ATOM      4  C   UNL     1       3.636   7.221  -4.902  0.00  0.00    +0.242 C 
ATOM      5  N   UNL     1       2.739   6.317  -4.245  0.00  0.00    -0.205 NA
ATOM      6  O   UNL     1       3.400   7.410  -6.132  0.00  0.00    -0.273 OA
ENDBRANCH   2   5
ENDBRANCH   1   2
BRANCH   1   7
ATOM      7  C   UNL     1      -0.957   5.815  -4.163  0.00  0.00    +0.128 C 
BRANCH   7   8
ATOM      8  S   UNL     1      -1.618   5.559  -2.527  0.00  0.00    -0.107 S 
ATOM      9  O   UNL     1      -2.001   7.061  -1.870  0.00  0.00    -0.291 OA
ATOM     10  O   UNL     1      -2.825   4.700  -2.657  0.00  0.00    -0.371 OA
ATOM     11  O   UNL     1      -0.530   4.889  -1.724  0.00  0.00    -0.371 OA
ENDBRANCH   7   8
ENDBRANCH   1   7
TORSDOF 4
ENDMDL
MODEL 3
REMARK VINA RESULT:      -4.3      6.292      8.046
REMARK  Name = 
REMARK  4 active torsions:
REMARK  status: ('A' for Active; 'I' for Inactive)
REMARK    1  A    between atoms: N_4  and  C_5
REMARK    2  A    between atoms: C_5  and  C_6
REMARK    3  A    between atoms: C_6  and  C_7
REMARK    4  A    between atoms: C_7  and  S_8
REMARK                            x       y       z     vdW  Elec       q    Type
REMARK                         _______ _______ _______ _____ _____    ______ ____
ROOT
ATOM      1  C   UNL     1       0.464   6.779  -5.714  0.00  0.00    +0.047 C 
ENDROOT
BRANCH   1   2
ATOM      2  C   UNL     1       0.235   5.967  -4.451  0.00  0.00    +0.117 C 
BRANCH   2   5
ATOM      3  C   UNL     1      -3.269   5.726  -3.070  0.00  0.00    +0.096 C 
ATOM      4  C   UNL     1      -1.782   5.596  -3.108  0.00  0.00    +0.242 C 
ATOM      5  N   UNL     1      -1.161   5.541  -4.398  0.00  0.00    -0.205 NA
ATOM      6  O   UNL     1      -1.176   4.962  -2.194  0.00  0.00    -0.273 OA
ENDBRANCH   2   5
ENDBRANCH   1   2
BRANCH   1   7
ATOM      7  C   UNL     1       1.421   5.961  -6.570  0.00  0.00    +0.128 C 
BRANCH   7   8
ATOM      8  S   UNL     1       2.764   7.033  -7.045  0.00  0.00    -0.107 S 
ATOM      9  O   UNL     1       2.124   8.351  -7.873  0.00  0.00    -0.291 OA
ATOM     10  O   UNL     1       3.462   7.459  -5.803  0.00  0.00    -0.371 OA
ATOM     11  O   UNL     1       3.661   6.222  -7.949  0.00  0.00    -0.371 OA
ENDBRANCH   7   8
ENDBRANCH   1   7
TORSDOF 4
ENDMDL
MODEL 4
REMARK VINA RESULT:      -4.3      1.757      2.050
REMARK  Name = 
REMARK  4 active torsions:
REMARK  status: ('A' for Active; 'I' for Inactive)
REMARK    1  A    between atoms: N_4  and  C_5
REMARK    2  A    between atoms: C_5  and  C_6
REMARK    3  A    between atoms: C_6  and  C_7
REMARK    4  A    between atoms: C_7  and  S_8
REMARK                            x       y       z     vdW  Elec       q    Type
REMARK                         _______ _______ _______ _____ _____    ______ ____
ROOT
ATOM      1  C   UNL     1       5.727   7.077 -10.903  0.00  0.00    +0.047 C 
ENDROOT
BRANCH   1   2
ATOM      2  C   UNL     1       4.319   6.865 -10.375  0.00  0.00    +0.117 C 
BRANCH   2   5
ATOM      3  C   UNL     1       2.861   3.855  -8.628  0.00  0.00    +0.096 C 
ATOM      4  C   UNL     1       3.590   5.149  -8.784  0.00  0.00    +0.242 C 
ATOM      5  N   UNL     1       4.122   5.449 -10.081  0.00  0.00    -0.205 NA
ATOM      6  O   UNL     1       4.242   5.633  -7.813  0.00  0.00    -0.273 OA
ENDBRANCH   2   5
ENDBRANCH   1   2
BRANCH   1   7
ATOM      7  C   UNL     1       6.299   5.687 -11.146  0.00  0.00    +0.128 C 
BRANCH   7   8
ATOM      8  S   UNL     1       6.516   5.497 -12.905  0.00  0.00    -0.107 S 
ATOM      9  O   UNL     1       6.595   7.029 -13.598  0.00  0.00    -0.291 OA
ATOM     10  O   UNL     1       7.775   4.737 -13.124  0.00  0.00    -0.371 OA
ATOM     11  O   UNL     1       5.306   4.747 -13.409  0.00  0.00    -0.371 OA
ENDBRANCH   7   8
ENDBRANCH   1   7
TORSDOF 4
ENDMDL
MODEL 5
REMARK VINA RESULT:      -4.3      2.905      5.539
REMARK  Name = 
REMARK  4 active torsions:
REMARK  status: ('A' for Active; 'I' for Inactive)
REMARK    1  A    between atoms: N_4  and  C_5
REMARK    2  A    between atoms: C_5  and  C_6
REMARK    3  A    between atoms: C_6  and  C_7
REMARK    4  A    between atoms: C_7  and  S_8
REMARK                            x       y       z     vdW  Elec       q    Type
REMARK                         _______ _______ _______ _____ _____    ______ ____
ROOT
ATOM      1  C   UNL     1       5.341   5.700  -9.284  0.00  0.00    +0.047 C 
ENDROOT
BRANCH   1   2
ATOM      2  C   UNL     1       5.807   5.691 -10.730  0.00  0.00    +0.117 C 
BRANCH   2   5
ATOM      3  C   UNL     1       9.274   5.900 -12.203  0.00  0.00    +0.096 C 
ATOM      4  C   UNL     1       7.846   5.486 -12.075  0.00  0.00    +0.242 C 
ATOM      5  N   UNL     1       7.259   5.549 -10.769  0.00  0.00    -0.205 NA
ATOM      6  O   UNL     1       7.375   4.585 -12.830  0.00  0.00    -0.273 OA
ENDBRANCH   2   5
ENDBRANCH   1   2
BRANCH   1   7
ATOM      7  C   UNL     1       4.316   4.581  -9.166  0.00  0.00    +0.128 C 
BRANCH   7   8
ATOM      8  S   UNL     1       3.226   4.993  -7.818  0.00  0.00    -0.107 S 
ATOM      9  O   UNL     1       2.284   6.309  -8.282  0.00  0.00    -0.291 OA
ATOM     10  O   UNL     1       2.387   3.799  -7.534  0.00  0.00    -0.371 OA
ATOM     11  O   UNL     1       4.108   5.357  -6.648  0.00  0.00    -0.371 OA
ENDBRANCH   7   8
ENDBRANCH   1   7
TORSDOF 4
ENDMDL
MODEL 6
REMARK VINA RESULT:      -4.3      3.699      5.914
REMARK  Name = 
REMARK  4 active torsions:
REMARK  status: ('A' for Active; 'I' for Inactive)
REMARK    1  A    between atoms: N_4  and  C_5
REMARK    2  A    between atoms: C_5  and  C_6
REMARK    3  A    between atoms: C_6  and  C_7
REMARK    4  A    between atoms: C_7  and  S_8
REMARK                            x       y       z     vdW  Elec       q    Type
REMARK                         _______ _______ _______ _____ _____    ______ ____
ROOT
ATOM      1  C   UNL     1       3.804   6.262  -8.956  0.00  0.00    +0.047 C 
ENDROOT
BRANCH   1   2
ATOM      2  C   UNL     1       4.732   5.063  -9.035  0.00  0.00    +0.117 C 
BRANCH   2   5
ATOM      3  C   UNL     1       7.573   7.068 -10.501  0.00  0.00    +0.096 C 
ATOM      4  C   UNL     1       6.432   6.105 -10.460  0.00  0.00    +0.242 C 
ATOM      5  N   UNL     1       6.108   5.526  -9.190  0.00  0.00    -0.205 NA
ATOM      6  O   UNL     1       6.184   5.371 -11.462  0.00  0.00    -0.273 OA
ENDBRANCH   2   5
ENDBRANCH   1   2
BRANCH   1   7
ATOM      7  C   UNL     1       2.640   5.835  -8.072  0.00  0.00    +0.128 C 
BRANCH   7   8
ATOM      8  S   UNL     1       2.217   7.222  -7.036  0.00  0.00    -0.107 S 
ATOM      9  O   UNL     1       3.434   7.419  -5.890  0.00  0.00    -0.291 OA
ATOM     10  O   UNL     1       2.096   8.419  -7.911  0.00  0.00    -0.371 OA
ATOM     11  O   UNL     1       0.908   6.876  -6.368  0.00  0.00    -0.371 OA
ENDBRANCH   7   8
ENDBRANCH   1   7
TORSDOF 4
ENDMDL
MODEL 7
REMARK VINA RESULT:      -4.3      1.909      2.564
REMARK  Name = 
REMARK  4 active torsions:
REMARK  status: ('A' for Active; 'I' for Inactive)
REMARK    1  A    between atoms: N_4  and  C_5
REMARK    2  A    between atoms: C_5  and  C_6
REMARK    3  A    between atoms: C_6  and  C_7
REMARK    4  A    between atoms: C_7  and  S_8
REMARK                            x       y       z     vdW  Elec       q    Type
REMARK                         _______ _______ _______ _____ _____    ______ ____
ROOT
ATOM      1  C   UNL     1       4.593   5.897 -10.893  0.00  0.00    +0.047 C 
ENDROOT
BRANCH   1   2
ATOM      2  C   UNL     1       4.087   4.970  -9.801  0.00  0.00    +0.117 C 
BRANCH   2   5
ATOM      3  C   UNL     1       2.213   7.558  -7.794  0.00  0.00    +0.096 C 
ATOM      4  C   UNL     1       3.242   6.521  -8.101  0.00  0.00    +0.242 C 
ATOM      5  N   UNL     1       2.938   5.583  -9.141  0.00  0.00    -0.205 NA
ATOM      6  O   UNL     1       3.991   6.076  -7.182  0.00  0.00    -0.273 OA
ENDBRANCH   2   5
ENDBRANCH   1   2
BRANCH   1   7
ATOM      7  C   UNL     1       6.104   5.717 -10.930  0.00  0.00    +0.128 C 
BRANCH   7   8
ATOM      8  S   UNL     1       6.573   5.470 -12.631  0.00  0.00    -0.107 S 
ATOM      9  O   UNL     1       5.296   4.717 -13.429  0.00  0.00    -0.291 OA
ATOM     10  O   UNL     1       6.866   6.806 -13.217  0.00  0.00    -0.371 OA
ATOM     11  O   UNL     1       7.791   4.578 -12.617  0.00  0.00    -0.371 OA
ENDBRANCH   7   8
ENDBRANCH   1   7
TORSDOF 4
ENDMDL
MODEL 8
REMARK VINA RESULT:      -4.3      2.249      2.841
REMARK  Name = 
REMARK  4 active torsions:
REMARK  status: ('A' for Active; 'I' for Inactive)
REMARK    1  A    between atoms: N_4  and  C_5
REMARK    2  A    between atoms: C_5  and  C_6
REMARK    3  A    between atoms: C_6  and  C_7
REMARK    4  A    between atoms: C_7  and  S_8
REMARK                            x       y       z     vdW  Elec       q    Type
REMARK                         _______ _______ _______ _____ _____    ______ ____
ROOT
ATOM      1  C   UNL     1       4.954   6.899 -10.857  0.00  0.00    +0.047 C 
ENDROOT
BRANCH   1   2
ATOM      2  C   UNL     1       3.844   6.407  -9.945  0.00  0.00    +0.117 C 
BRANCH   2   5
ATOM      3  C   UNL     1       0.480   4.873 -10.698  0.00  0.00    +0.096 C 
ATOM      4  C   UNL     1       1.789   5.072 -10.009  0.00  0.00    +0.242 C 
ATOM      5  N   UNL     1       2.823   5.737 -10.745  0.00  0.00    -0.205 NA
ATOM      6  O   UNL     1       2.196   4.226  -9.160  0.00  0.00    -0.273 OA
ENDBRANCH   2   5
ENDBRANCH   1   2
BRANCH   1   7
ATOM      7  C   UNL     1       5.969   5.767 -10.933  0.00  0.00    +0.128 C 
BRANCH   7   8
ATOM      8  S   UNL     1       6.347   5.500 -12.654  0.00  0.00    -0.107 S 
ATOM      9  O   UNL     1       5.052   4.692 -13.363  0.00  0.00    -0.291 OA
ATOM     10  O   UNL     1       6.565   6.832 -13.280  0.00  0.00    -0.371 OA
ATOM     11  O   UNL     1       7.592   4.646 -12.693  0.00  0.00    -0.371 OA
ENDBRANCH   7   8
ENDBRANCH   1   7
TORSDOF 4
ENDMDL
MODEL 9
REMARK VINA RESULT:      -4.3      2.737      3.237
REMARK  Name = 
REMARK  4 active torsions:
REMARK  status: ('A' for Active; 'I' for Inactive)
REMARK    1  A    between atoms: N_4  and  C_5
REMARK    2  A    between atoms: C_5  and  C_6
REMARK    3  A    between atoms: C_6  and  C_7
REMARK    4  A    between atoms: C_7  and  S_8
REMARK                            x       y       z     vdW  Elec       q    Type
REMARK                         _______ _______ _______ _____ _____    ______ ____
ROOT
ATOM      1  C   UNL     1       4.596   6.649 -10.960  0.00  0.00    +0.047 C 
ENDROOT
BRANCH   1   2
ATOM      2  C   UNL     1       3.360   5.873 -10.539  0.00  0.00    +0.117 C 
BRANCH   2   5
ATOM      3  C   UNL     1      -0.114   7.135 -11.295  0.00  0.00    +0.096 C 
ATOM      4  C   UNL     1       0.946   6.243 -10.737  0.00  0.00    +0.242 C 
ATOM      5  N   UNL     1       2.230   6.276 -11.371  0.00  0.00    -0.205 NA
ATOM      6  O   UNL     1       0.633   5.131 -10.218  0.00  0.00    -0.273 OA
ENDBRANCH   2   5
ENDBRANCH   1   2
BRANCH   1   7
ATOM      7  C   UNL     1       5.732   5.636 -11.006  0.00  0.00    +0.128 C 
BRANCH   7   8
ATOM      8  S   UNL     1       6.235   5.472 -12.708  0.00  0.00    -0.107 S 
ATOM      9  O   UNL     1       7.705   4.653 -12.750  0.00  0.00    -0.291 OA
ATOM     10  O   UNL     1       5.172   4.717 -13.422  0.00  0.00    -0.371 OA
ATOM     11  O   UNL     1       6.393   6.874 -13.247  0.00  0.00    -0.371 OA
ENDBRANCH   7   8
ENDBRANCH   1   7
TORSDOF 4
ENDMDL
