MODEL 1
REMARK VINA RESULT:      -6.9      0.000      0.000
REMARK  Name = 
REMARK  6 active torsions:
REMARK  status: ('A' for Active; 'I' for Inactive)
REMARK    1  A    between atoms: C_2  and  N_3
REMARK    2  A    between atoms: N_3  and  C_4
REMARK    3  A    between atoms: C_4  and  C_5
REMARK    4  A    between atoms: C_11  and  C_13
REMARK    5  A    between atoms: C_13  and  C_14
REMARK    6  A    between atoms: C_13  and  C_16
REMARK                            x       y       z     vdW  Elec       q    Type
REMARK                         _______ _______ _______ _____ _____    ______ ____
ROOT
ATOM      1  N   UNL     1       2.386   6.183  -8.904  0.00  0.00    -0.275 N 
ATOM      2  C   UNL     1       2.159   6.467  -7.535  0.00  0.00    +0.232 C 
ATOM      3  O   UNL     1       2.314   7.576  -7.065  0.00  0.00    -0.274 OA
ENDROOT
BRANCH   1   5
ATOM      4  C   UNL     1       4.184   6.556  -9.789  0.00  0.00    +0.023 C 
ATOM      5  C   UNL     1       3.560   6.830  -9.486  0.00  0.00    +0.094 C 
ENDBRANCH   1   5
BRANCH   2   6
ATOM      6  C   UNL     1       1.463   5.299  -6.683  0.00  0.00    +0.132 C 
BRANCH   6   7
ATOM      7  C   UNL     1       0.125   6.161  -6.418  0.00  0.00    -0.011 A 
ATOM      8  C   UNL     1      -0.026   6.573  -5.093  0.00  0.00    -0.004 A 
ATOM      9  C   UNL     1      -1.260   7.120  -4.790  0.00  0.00    -0.000 A 
ATOM     10  C   UNL     1      -2.363   6.759  -5.554  0.00  0.00    -0.000 A 
ATOM     11  C   UNL     1      -2.218   5.763  -6.513  0.00  0.00    -0.000 A 
ATOM     12  C   UNL     1      -0.946   5.363  -6.819  0.00  0.00    -0.004 A 
ENDBRANCH   6   7
BRANCH   6  13
ATOM     13  C   UNL     1       2.188   5.719  -5.279  0.00  0.00    +0.195 C 
ATOM     14  O   UNL     1       3.169   4.852  -4.963  0.00  0.00    -0.220 OA
ENDBRANCH   6  13
ENDBRANCH   2   6
BRANCH   1  15
ATOM     15  C   UNL     1       1.760   5.076  -9.591  0.00  0.00    +0.120 C 
BRANCH  15  16
ATOM     16  C   UNL     1       0.892   5.567 -10.693  0.00  0.00    +0.001 A 
ATOM     17  C   UNL     1      -0.100   6.491 -10.498  0.00  0.00    +0.018 A 
ATOM     18  C   UNL     1      -0.389   7.434 -11.464  0.00  0.00    +0.099 A 
ATOM     19  N   UNL     1       0.174   7.289 -12.688  0.00  0.00    -0.242 NA
ATOM     20  C   UNL     1       0.770   6.120 -13.020  0.00  0.00    +0.099 A 
ATOM     21  C   UNL     1       1.320   5.365 -11.993  0.00  0.00    +0.018 A 
ENDBRANCH  15  16
ENDBRANCH   1  15
TORSDOF 6
ENDMDL
MODEL 2
REMARK VINA RESULT:      -6.9      2.279      3.355
REMARK  Name = 
REMARK  6 active torsions:
REMARK  status: ('A' for Active; 'I' for Inactive)
REMARK    1  A    between atoms: C_2  and  N_3
REMARK    2  A    between atoms: N_3  and  C_4
REMARK    3  A    between atoms: C_4  and  C_5
REMARK    4  A    between atoms: C_11  and  C_13
REMARK    5  A    between atoms: C_13  and  C_14
REMARK    6  A    between atoms: C_13  and  C_16
REMARK                            x       y       z     vdW  Elec       q    Type
REMARK                         _______ _______ _______ _____ _____    ______ ____
ROOT
ATOM      1  N   UNL     1       2.642   5.176  -5.310  0.00  0.00    -0.275 N 
ATOM      2  C   UNL     1       1.849   5.764  -4.293  0.00  0.00    +0.232 C 
ATOM      3  O   UNL     1       2.086   6.865  -3.837  0.00  0.00    -0.274 OA
ENDROOT
BRANCH   1   5
ATOM      4  C   UNL     1       4.596   5.034  -4.748  0.00  0.00    +0.023 C 
ATOM      5  C   UNL     1       4.083   5.376  -5.168  0.00  0.00    +0.094 C 
ENDBRANCH   1   5
BRANCH   2   6
ATOM      6  C   UNL     1       0.484   5.000  -3.939  0.00  0.00    +0.132 C 
BRANCH   6   7
ATOM      7  C   UNL     1      -0.441   6.182  -4.528  0.00  0.00    -0.011 A 
ATOM      8  C   UNL     1      -1.185   6.853  -3.557  0.00  0.00    -0.004 A 
ATOM      9  C   UNL     1      -2.145   7.719  -4.050  0.00  0.00    -0.000 A 
ATOM     10  C   UNL     1      -2.669   7.489  -5.316  0.00  0.00    -0.000 A 
ATOM     11  C   UNL     1      -2.310   6.329  -5.993  0.00  0.00    -0.000 A 
ATOM     12  C   UNL     1      -1.276   5.595  -5.479  0.00  0.00    -0.004 A 
ENDBRANCH   6   7
BRANCH   6  13
ATOM     13  C   UNL     1       0.439   5.534  -2.395  0.00  0.00    +0.195 C 
ATOM     14  O   UNL     1       0.347   4.506  -1.529  0.00  0.00    -0.220 OA
ENDBRANCH   6  13
ENDBRANCH   2   6
BRANCH   1  15
ATOM     15  C   UNL     1       2.141   4.159  -6.206  0.00  0.00    +0.120 C 
BRANCH  15  16
ATOM     16  C   UNL     1       2.086   4.670  -7.600  0.00  0.00    +0.001 A 
ATOM     17  C   UNL     1       1.424   5.819  -7.942  0.00  0.00    +0.018 A 
ATOM     18  C   UNL     1       1.909   6.649  -8.932  0.00  0.00    +0.099 A 
ATOM     19  N   UNL     1       2.927   6.196  -9.704  0.00  0.00    -0.242 NA
ATOM     20  C   UNL     1       3.258   4.884  -9.678  0.00  0.00    +0.099 A 
ATOM     21  C   UNL     1       3.013   4.183  -8.506  0.00  0.00    +0.018 A 
ENDBRANCH  15  16
ENDBRANCH   1  15
TORSDOF 6
ENDMDL
MODEL 3
REMARK VINA RESULT:      -6.8      2.589      7.008
REMARK  Name = 
REMARK  6 active torsions:
REMARK  status: ('A' for Active; 'I' for Inactive)
REMARK    1  A    between atoms: C_2  and  N_3
REMARK    2  A    between atoms: N_3  and  C_4
REMARK    3  A    between atoms: C_4  and  C_5
REMARK    4  A    between atoms: C_11  and  C_13
REMARK    5  A    between atoms: C_13  and  C_14
REMARK    6  A    between atoms: C_13  and  C_16
REMARK                            x       y       z     vdW  Elec       q    Type
REMARK                         _______ _______ _______ _____ _____    ______ ____
ROOT
ATOM      1  N   UNL     1       2.369   6.221  -7.015  0.00  0.00    -0.275 N 
ATOM      2  C   UNL     1       2.553   6.639  -8.356  0.00  0.00    +0.232 C 
ATOM      3  O   UNL     1       2.420   7.796  -8.702  0.00  0.00    -0.274 OA
ENDROOT
BRANCH   1   5
ATOM      4  C   UNL     1       0.604   6.559  -6.052  0.00  0.00    +0.023 C 
ATOM      5  C   UNL     1       1.240   6.840  -6.321  0.00  0.00    +0.094 C 
ENDBRANCH   1   5
BRANCH   2   6
ATOM      6  C   UNL     1       3.176   5.546  -9.351  0.00  0.00    +0.132 C 
BRANCH   6   7
ATOM      7  C   UNL     1       4.547   6.372  -9.551  0.00  0.00    -0.011 A 
ATOM      8  C   UNL     1       4.729   6.857 -10.846  0.00  0.00    -0.004 A 
ATOM      9  C   UNL     1       5.985   7.376 -11.105  0.00  0.00    -0.000 A 
ATOM     10  C   UNL     1       7.065   6.926 -10.354  0.00  0.00    -0.000 A 
ATOM     11  C   UNL     1       6.873   5.880  -9.459  0.00  0.00    -0.000 A 
ATOM     12  C   UNL     1       5.583   5.510  -9.190  0.00  0.00    -0.004 A 
ENDBRANCH   6   7
BRANCH   6  13
ATOM     13  C   UNL     1       2.444   6.155 -10.680  0.00  0.00    +0.195 C 
ATOM     14  O   UNL     1       1.416   5.375 -11.066  0.00  0.00    -0.220 OA
ENDBRANCH   6  13
ENDBRANCH   2   6
BRANCH   1  15
ATOM     15  C   UNL     1       2.981   5.030  -6.472  0.00  0.00    +0.120 C 
BRANCH  15  16
ATOM     16  C   UNL     1       3.933   5.379  -5.386  0.00  0.00    +0.001 A 
ATOM     17  C   UNL     1       4.729   6.492  -5.429  0.00  0.00    +0.018 A 
ATOM     18  C   UNL     1       5.027   7.196  -4.279  0.00  0.00    +0.099 A 
ATOM     19  N   UNL     1       4.699   6.641  -3.087  0.00  0.00    -0.242 NA
ATOM     20  C   UNL     1       4.348   5.335  -3.028  0.00  0.00    +0.099 A 
ATOM     21  C   UNL     1       3.758   4.776  -4.152  0.00  0.00    +0.018 A 
ENDBRANCH  15  16
ENDBRANCH   1  15
TORSDOF 6
ENDMDL
MODEL 4
REMARK VINA RESULT:      -6.7      3.221      5.433
REMARK  Name = 
REMARK  6 active torsions:
REMARK  status: ('A' for Active; 'I' for Inactive)
REMARK    1  A    between atoms: C_2  and  N_3
REMARK    2  A    between atoms: N_3  and  C_4
REMARK    3  A    between atoms: C_4  and  C_5
REMARK    4  A    between atoms: C_11  and  C_13
REMARK    5  A    between atoms: C_13  and  C_14
REMARK    6  A    between atoms: C_13  and  C_16
REMARK                            x       y       z     vdW  Elec       q    Type
REMARK                         _______ _______ _______ _____ _____    ______ ____
ROOT
ATOM      1  N   UNL     1       1.850   5.370 -10.199  0.00  0.00    -0.275 N 
ATOM      2  C   UNL     1       2.968   5.092  -9.374  0.00  0.00    +0.232 C 
ATOM      3  O   UNL     1       3.405   3.968  -9.226  0.00  0.00    -0.274 OA
ENDROOT
BRANCH   1   5
ATOM      4  C   UNL     1       0.116   4.337 -10.486  0.00  0.00    +0.023 C 
ATOM      5  C   UNL     1       0.760   4.400 -10.114  0.00  0.00    +0.094 C 
ENDBRANCH   1   5
BRANCH   2   6
ATOM      6  C   UNL     1       3.772   6.369  -8.829  0.00  0.00    +0.132 C 
BRANCH   6   7
ATOM      7  C   UNL     1       5.025   6.118  -9.814  0.00  0.00    -0.011 A 
ATOM      8  C   UNL     1       6.207   5.790  -9.148  0.00  0.00    -0.004 A 
ATOM      9  C   UNL     1       7.341   5.784  -9.941  0.00  0.00    -0.000 A 
ATOM     10  C   UNL     1       7.363   6.568 -11.088  0.00  0.00    -0.000 A 
ATOM     11  C   UNL     1       6.301   7.429 -11.335  0.00  0.00    -0.000 A 
ATOM     12  C   UNL     1       5.181   7.285 -10.562  0.00  0.00    -0.004 A 
ENDBRANCH   6   7
BRANCH   6  13
ATOM     13  C   UNL     1       4.423   5.574  -7.558  0.00  0.00    +0.195 C 
ATOM     14  O   UNL     1       4.021   6.114  -6.391  0.00  0.00    -0.220 OA
ENDBRANCH   6  13
ENDBRANCH   2   6
BRANCH   1  15
ATOM     15  C   UNL     1       1.616   6.667 -10.792  0.00  0.00    +0.120 C 
BRANCH  15  16
ATOM     16  C   UNL     1       1.806   6.610 -12.265  0.00  0.00    +0.001 A 
ATOM     17  C   UNL     1       2.732   5.796 -12.861  0.00  0.00    +0.018 A 
ATOM     18  C   UNL     1       2.473   5.201 -14.079  0.00  0.00    +0.099 A 
ATOM     19  N   UNL     1       1.383   5.612 -14.772  0.00  0.00    -0.242 NA
ATOM     20  C   UNL     1       0.741   6.746 -14.405  0.00  0.00    +0.099 A 
ATOM     21  C   UNL     1       0.798   7.113 -13.068  0.00  0.00    +0.018 A 
ENDBRANCH  15  16
ENDBRANCH   1  15
TORSDOF 6
ENDMDL
MODEL 5
REMARK VINA RESULT:      -6.7      2.597      5.129
REMARK  Name = 
REMARK  6 active torsions:
REMARK  status: ('A' for Active; 'I' for Inactive)
REMARK    1  A    between atoms: C_2  and  N_3
REMARK    2  A    between atoms: N_3  and  C_4
REMARK    3  A    between atoms: C_4  and  C_5
REMARK    4  A    between atoms: C_11  and  C_13
REMARK    5  A    between atoms: C_13  and  C_14
REMARK    6  A    between atoms: C_13  and  C_16
REMARK                            x       y       z     vdW  Elec       q    Type
REMARK                         _______ _______ _______ _____ _____    ______ ____
ROOT
ATOM      1  N   UNL     1       3.513   6.125  -7.965  0.00  0.00    -0.275 N 
ATOM      2  C   UNL     1       2.235   6.496  -8.451  0.00  0.00    +0.232 C 
ATOM      3  O   UNL     1       1.779   7.611  -8.302  0.00  0.00    -0.274 OA
ENDROOT
BRANCH   1   5
ATOM      4  C   UNL     1       4.119   6.318  -6.028  0.00  0.00    +0.023 C 
ATOM      5  C   UNL     1       3.848   6.646  -6.641  0.00  0.00    +0.094 C 
ENDBRANCH   1   5
BRANCH   2   6
ATOM      6  C   UNL     1       1.517   5.433  -9.414  0.00  0.00    +0.132 C 
BRANCH   6   7
ATOM      7  C   UNL     1       1.126   6.549 -10.511  0.00  0.00    -0.011 A 
ATOM      8  C   UNL     1      -0.249   6.739 -10.654  0.00  0.00    -0.004 A 
ATOM      9  C   UNL     1      -0.620   7.524 -11.732  0.00  0.00    -0.000 A 
ATOM     10  C   UNL     1       0.228   7.604 -12.829  0.00  0.00    -0.000 A 
ATOM     11  C   UNL     1       1.358   6.795 -12.866  0.00  0.00    -0.000 A 
ATOM     12  C   UNL     1       1.702   6.140 -11.714  0.00  0.00    -0.004 A 
ENDBRANCH   6   7
BRANCH   6  13
ATOM     13  C   UNL     1       0.087   5.495  -8.625  0.00  0.00    +0.195 C 
ATOM     14  O   UNL     1       0.222   5.095  -7.346  0.00  0.00    -0.220 OA
ENDBRANCH   6  13
ENDBRANCH   2   6
BRANCH   1  15
ATOM     15  C   UNL     1       4.283   5.039  -8.527  0.00  0.00    +0.120 C 
BRANCH  15  16
ATOM     16  C   UNL     1       5.282   5.554  -9.499  0.00  0.00    +0.001 A 
ATOM     17  C   UNL     1       6.596   5.757  -9.174  0.00  0.00    +0.018 A 
ATOM     18  C   UNL     1       7.599   5.527 -10.094  0.00  0.00    +0.099 A 
ATOM     19  N   UNL     1       7.244   5.311 -11.384  0.00  0.00    -0.242 NA
ATOM     20  C   UNL     1       5.982   5.584 -11.789  0.00  0.00    +0.099 A 
ATOM     21  C   UNL     1       4.969   5.488 -10.846  0.00  0.00    +0.018 A 
ENDBRANCH  15  16
ENDBRANCH   1  15
TORSDOF 6
ENDMDL
MODEL 6
REMARK VINA RESULT:      -6.6      2.450      5.032
REMARK  Name = 
REMARK  6 active torsions:
REMARK  status: ('A' for Active; 'I' for Inactive)
REMARK    1  A    between atoms: C_2  and  N_3
REMARK    2  A    between atoms: N_3  and  C_4
REMARK    3  A    between atoms: C_4  and  C_5
REMARK    4  A    between atoms: C_11  and  C_13
REMARK    5  A    between atoms: C_13  and  C_14
REMARK    6  A    between atoms: C_13  and  C_16
REMARK                            x       y       z     vdW  Elec       q    Type
REMARK                         _______ _______ _______ _____ _____    ______ ____
ROOT
ATOM      1  N   UNL     1       1.141   6.059  -7.578  0.00  0.00    -0.275 N 
ATOM      2  C   UNL     1       2.416   6.518  -7.163  0.00  0.00    +0.232 C 
ATOM      3  O   UNL     1       2.816   7.638  -7.409  0.00  0.00    -0.274 OA
ENDROOT
BRANCH   1   5
ATOM      4  C   UNL     1       0.439   6.088  -9.492  0.00  0.00    +0.023 C 
ATOM      5  C   UNL     1       0.742   6.466  -8.924  0.00  0.00    +0.094 C 
ENDBRANCH   1   5
BRANCH   2   6
ATOM      6  C   UNL     1       3.210   5.560  -6.151  0.00  0.00    +0.132 C 
BRANCH   6   7
ATOM      7  C   UNL     1       3.584   6.769  -5.151  0.00  0.00    -0.011 A 
ATOM      8  C   UNL     1       4.947   6.867  -4.870  0.00  0.00    -0.004 A 
ATOM      9  C   UNL     1       5.272   7.747  -3.854  0.00  0.00    -0.000 A 
ATOM     10  C   UNL     1       4.322   8.030  -2.880  0.00  0.00    -0.000 A 
ATOM     11  C   UNL     1       3.125   7.324  -2.884  0.00  0.00    -0.000 A 
ATOM     12  C   UNL     1       2.847   6.561  -3.985  0.00  0.00    -0.004 A 
ENDBRANCH   6   7
BRANCH   6  13
ATOM     13  C   UNL     1       4.612   5.626  -6.990  0.00  0.00    +0.195 C 
ATOM     14  O   UNL     1       4.537   4.889  -8.116  0.00  0.00    -0.220 OA
ENDBRANCH   6  13
ENDBRANCH   2   6
BRANCH   1  15
ATOM     15  C   UNL     1       0.438   4.986  -6.912  0.00  0.00    +0.120 C 
BRANCH  15  16
ATOM     16  C   UNL     1      -0.639   5.525  -6.043  0.00  0.00    +0.001 A 
ATOM     17  C   UNL     1      -0.389   6.349  -4.979  0.00  0.00    +0.018 A 
ATOM     18  C   UNL     1      -1.264   7.365  -4.647  0.00  0.00    +0.099 A 
ATOM     19  N   UNL     1      -2.474   7.389  -5.256  0.00  0.00    -0.242 NA
ATOM     20  C   UNL     1      -2.901   6.307  -5.948  0.00  0.00    +0.099 A 
ATOM     21  C   UNL     1      -1.937   5.491  -6.524  0.00  0.00    +0.018 A 
ENDBRANCH  15  16
ENDBRANCH   1  15
TORSDOF 6
ENDMDL
MODEL 7
REMARK VINA RESULT:      -6.5      3.110      6.865
REMARK  Name = 
REMARK  6 active torsions:
REMARK  status: ('A' for Active; 'I' for Inactive)
REMARK    1  A    between atoms: C_2  and  N_3
REMARK    2  A    between atoms: N_3  and  C_4
REMARK    3  A    between atoms: C_4  and  C_5
REMARK    4  A    between atoms: C_11  and  C_13
REMARK    5  A    between atoms: C_13  and  C_14
REMARK    6  A    between atoms: C_13  and  C_16
REMARK                            x       y       z     vdW  Elec       q    Type
REMARK                         _______ _______ _______ _____ _____    ______ ____
ROOT
ATOM      1  N   UNL     1       2.315   5.239  -9.658  0.00  0.00    -0.275 N 
ATOM      2  C   UNL     1       3.031   5.781 -10.754  0.00  0.00    +0.232 C 
ATOM      3  O   UNL     1       2.773   6.870 -11.226  0.00  0.00    -0.274 OA
ENDROOT
BRANCH   1   5
ATOM      4  C   UNL     1       0.300   5.014  -9.879  0.00  0.00    +0.023 C 
ATOM      5  C   UNL     1       0.870   5.458  -9.691  0.00  0.00    +0.094 C 
ENDBRANCH   1   5
BRANCH   2   6
ATOM      6  C   UNL     1       4.351   4.982 -11.192  0.00  0.00    +0.132 C 
BRANCH   6   7
ATOM      7  C   UNL     1       5.340   6.152 -10.686  0.00  0.00    -0.011 A 
ATOM      8  C   UNL     1       5.921   6.885 -11.721  0.00  0.00    -0.004 A 
ATOM      9  C   UNL     1       6.934   7.744 -11.331  0.00  0.00    -0.000 A 
ATOM     10  C   UNL     1       7.645   7.461 -10.170  0.00  0.00    -0.000 A 
ATOM     11  C   UNL     1       7.405   6.262  -9.510  0.00  0.00    -0.000 A 
ATOM     12  C   UNL     1       6.314   5.534  -9.902  0.00  0.00    -0.004 A 
ENDBRANCH   6   7
BRANCH   6  13
ATOM     13  C   UNL     1       4.300   5.496 -12.743  0.00  0.00    +0.195 C 
ATOM     14  O   UNL     1       4.549   4.484 -13.597  0.00  0.00    -0.220 OA
ENDBRANCH   6  13
ENDBRANCH   2   6
BRANCH   1  15
ATOM     15  C   UNL     1       2.871   4.242  -8.773  0.00  0.00    +0.120 C 
BRANCH  15  16
ATOM     16  C   UNL     1       3.075   4.805  -7.413  0.00  0.00    +0.001 A 
ATOM     17  C   UNL     1       3.699   6.004  -7.194  0.00  0.00    +0.018 A 
ATOM     18  C   UNL     1       3.295   6.838  -6.171  0.00  0.00    +0.099 A 
ATOM     19  N   UNL     1       2.420   6.351  -5.258  0.00  0.00    -0.242 NA
ATOM     20  C   UNL     1       2.176   5.020  -5.204  0.00  0.00    +0.099 A 
ATOM     21  C   UNL     1       2.311   4.294  -6.378  0.00  0.00    +0.018 A 
ENDBRANCH  15  16
ENDBRANCH   1  15
TORSDOF 6
ENDMDL
MODEL 8
REMARK VINA RESULT:      -6.4      2.083      5.372
REMARK  Name = 
REMARK  6 active torsions:
REMARK  status: ('A' for Active; 'I' for Inactive)
REMARK    1  A    between atoms: C_2  and  N_3
REMARK    2  A    between atoms: N_3  and  C_4
REMARK    3  A    between atoms: C_4  and  C_5
REMARK    4  A    between atoms: C_11  and  C_13
REMARK    5  A    between atoms: C_13  and  C_14
REMARK    6  A    between atoms: C_13  and  C_16
REMARK                            x       y       z     vdW  Elec       q    Type
REMARK                         _______ _______ _______ _____ _____    ______ ____
ROOT
ATOM      1  N   UNL     1       2.132   5.304  -6.840  0.00  0.00    -0.275 N 
ATOM      2  C   UNL     1       2.726   5.043  -8.099  0.00  0.00    +0.232 C 
ATOM      3  O   UNL     1       2.858   3.917  -8.536  0.00  0.00    -0.274 OA
ENDROOT
BRANCH   1   5
ATOM      4  C   UNL     1       2.983   4.437  -5.203  0.00  0.00    +0.023 C 
ATOM      5  C   UNL     1       2.505   4.378  -5.773  0.00  0.00    +0.094 C 
ENDBRANCH   1   5
BRANCH   2   6
ATOM      6  C   UNL     1       3.004   6.324  -9.022  0.00  0.00    +0.132 C 
BRANCH   6   7
ATOM      7  C   UNL     1       1.952   5.857 -10.152  0.00  0.00    -0.011 A 
ATOM      8  C   UNL     1       2.455   5.920 -11.452  0.00  0.00    -0.004 A 
ATOM      9  C   UNL     1       1.516   5.738 -12.451  0.00  0.00    -0.000 A 
ATOM     10  C   UNL     1       0.185   6.040 -12.186  0.00  0.00    -0.000 A 
ATOM     11  C   UNL     1      -0.141   6.636 -10.974  0.00  0.00    -0.000 A 
ATOM     12  C   UNL     1       0.830   6.674 -10.010  0.00  0.00    -0.004 A 
ENDBRANCH   6   7
BRANCH   6  13
ATOM     13  C   UNL     1       4.309   5.668  -9.758  0.00  0.00    +0.195 C 
ATOM     14  O   UNL     1       5.408   5.788  -8.989  0.00  0.00    -0.220 OA
ENDBRANCH   6  13
ENDBRANCH   2   6
BRANCH   1  15
ATOM     15  C   UNL     1       1.511   6.568  -6.512  0.00  0.00    +0.120 C 
BRANCH  15  16
ATOM     16  C   UNL     1       0.161   6.352  -5.929  0.00  0.00    +0.001 A 
ATOM     17  C   UNL     1      -0.328   7.104  -4.895  0.00  0.00    +0.018 A 
ATOM     18  C   UNL     1      -1.668   7.429  -4.826  0.00  0.00    +0.099 A 
ATOM     19  N   UNL     1      -2.520   6.808  -5.677  0.00  0.00    -0.242 NA
ATOM     20  C   UNL     1      -2.106   5.719  -6.367  0.00  0.00    +0.099 A 
ATOM     21  C   UNL     1      -0.755   5.625  -6.669  0.00  0.00    +0.018 A 
ENDBRANCH  15  16
ENDBRANCH   1  15
TORSDOF 6
ENDMDL
MODEL 9
REMARK VINA RESULT:      -6.4      4.365      7.623
REMARK  Name = 
REMARK  6 active torsions:
REMARK  status: ('A' for Active; 'I' for Inactive)
REMARK    1  A    between atoms: C_2  and  N_3
REMARK    2  A    between atoms: N_3  and  C_4
REMARK    3  A    between atoms: C_4  and  C_5
REMARK    4  A    between atoms: C_11  and  C_13
REMARK    5  A    between atoms: C_13  and  C_14
REMARK    6  A    between atoms: C_13  and  C_16
REMARK                            x       y       z     vdW  Elec       q    Type
REMARK                         _______ _______ _______ _____ _____    ______ ____
ROOT
ATOM      1  N   UNL     1      -0.764   6.058  -4.220  0.00  0.00    -0.275 N 
ATOM      2  C   UNL     1       0.499   6.200  -4.846  0.00  0.00    +0.232 C 
ATOM      3  O   UNL     1       0.726   7.070  -5.663  0.00  0.00    -0.274 OA
ENDROOT
BRANCH   1   5
ATOM      4  C   UNL     1      -2.388   5.778  -5.420  0.00  0.00    +0.023 C 
ATOM      5  C   UNL     1      -1.917   6.258  -5.096  0.00  0.00    +0.094 C 
ENDBRANCH   1   5
BRANCH   2   6
ATOM      6  C   UNL     1       1.683   5.298  -4.248  0.00  0.00    +0.132 C 
BRANCH   6   7
ATOM      7  C   UNL     1       2.776   6.477  -4.383  0.00  0.00    -0.011 A 
ATOM      8  C   UNL     1       3.993   6.057  -4.920  0.00  0.00    -0.004 A 
ATOM      9  C   UNL     1       5.015   6.986  -4.846  0.00  0.00    -0.000 A 
ATOM     10  C   UNL     1       4.972   7.956  -3.851  0.00  0.00    -0.000 A 
ATOM     11  C   UNL     1       3.975   7.883  -2.885  0.00  0.00    -0.000 A 
ATOM     12  C   UNL     1       2.949   7.004  -3.103  0.00  0.00    -0.004 A 
ENDBRANCH   6   7
BRANCH   6  13
ATOM     13  C   UNL     1       2.044   4.599  -5.681  0.00  0.00    +0.195 C 
ATOM     14  O   UNL     1       1.061   3.767  -6.075  0.00  0.00    -0.220 OA
ENDBRANCH   6  13
ENDBRANCH   2   6
BRANCH   1  15
ATOM     15  C   UNL     1      -0.937   5.413  -2.938  0.00  0.00    +0.120 C 
BRANCH  15  16
ATOM     16  C   UNL     1      -0.792   6.397  -1.834  0.00  0.00    +0.001 A 
ATOM     17  C   UNL     1      -1.781   7.280  -1.494  0.00  0.00    +0.018 A 
ATOM     18  C   UNL     1      -1.988   7.641  -0.178  0.00  0.00    +0.099 A 
ATOM     19  N   UNL     1      -1.058   7.277   0.738  0.00  0.00    -0.242 NA
ATOM     20  C   UNL     1       0.149   6.822   0.327  0.00  0.00    +0.099 A 
ATOM     21  C   UNL     1       0.209   6.182  -0.902  0.00  0.00    +0.018 A 
ENDBRANCH  15  16
ENDBRANCH   1  15
TORSDOF 6
ENDMDL
