MODEL 1
REMARK VINA RESULT:      -6.4      0.000      0.000
REMARK  Name = 
REMARK  7 active torsions:
REMARK  status: ('A' for Active; 'I' for Inactive)
REMARK    1  A    between atoms: N_2  and  C_4
REMARK    2  A    between atoms: C_4  and  C_5
REMARK    3  A    between atoms: C_5  and  O_6
REMARK    4  A    between atoms: O_6  and  C_7
REMARK    5  A    between atoms: C_7  and  C_9
REMARK    6  A    between atoms: C_9  and  C_10
REMARK    7  A    between atoms: C_9  and  C_16
REMARK                            x       y       z     vdW  Elec       q    Type
REMARK                         _______ _______ _______ _____ _____    ______ ____
ROOT
ATOM      1  C   UNL     1       1.486   6.897  -4.964  0.00  0.00    +0.149 C 
ENDROOT
BRANCH   1   2
ATOM      2  C   UNL     1       0.129   6.621  -5.834  0.00  0.00    -0.010 A 
ATOM      3  C   UNL     1      -0.884   7.375  -5.248  0.00  0.00    -0.004 A 
ATOM      4  C   UNL     1      -2.202   6.938  -5.330  0.00  0.00    -0.000 A 
ATOM      5  C   UNL     1      -2.450   5.781  -6.058  0.00  0.00    -0.000 A 
ATOM      6  C   UNL     1      -1.434   5.137  -6.704  0.00  0.00    -0.000 A 
ATOM      7  C   UNL     1      -0.157   5.367  -6.204  0.00  0.00    -0.004 A 
ENDBRANCH   1   2
BRANCH   1   8
ATOM      8  C   UNL     1       2.480   6.824  -6.297  0.00  0.00    +0.140 C 
ATOM      9  C   UNL     1       1.847   7.697  -7.328  0.00  0.00    +0.031 C 
ATOM     10  C   UNL     1       2.176   6.993  -8.626  0.00  0.00    +0.003 C 
ATOM     11  C   UNL     1       2.719   5.636  -8.283  0.00  0.00    +0.003 C 
ATOM     12  C   UNL     1       2.603   5.469  -6.779  0.00  0.00    +0.031 C 
ATOM     13  O   UNL     1       3.662   7.441  -5.873  0.00  0.00    -0.225 OA
ENDBRANCH   1   8
BRANCH   1  14
ATOM     14  C   UNL     1       1.707   5.323  -4.542  0.00  0.00    +0.323 C 
ATOM     15  O   UNL     1       0.829   4.948  -3.701  0.00  0.00    -0.250 OA
BRANCH  14  16
ATOM     16  O   UNL     1       3.024   5.072  -4.131  0.00  0.00    -0.447 OA
BRANCH  16  17
ATOM     17  C   UNL     1       3.422   5.243  -2.770  0.00  0.00    +0.226 C 
BRANCH  17  18
ATOM     18  C   UNL     1       4.465   6.353  -2.676  0.00  0.00    +0.120 C 
BRANCH  18  20
ATOM     19  C   UNL     1       3.843   8.137  -2.363  0.00  0.00    +0.090 C 
ATOM     20  N   UNL     1       3.767   7.506  -2.128  0.00  0.00    -0.267 NA
ATOM     21  C   UNL     1       2.715   7.060  -1.221  0.00  0.00    +0.090 C 
ENDBRANCH  18  20
ENDBRANCH  17  18
ENDBRANCH  16  17
ENDBRANCH  14  16
ENDBRANCH   1  14
TORSDOF 7
ENDMDL
MODEL 2
REMARK VINA RESULT:      -6.3      1.298      3.603
REMARK  Name = 
REMARK  7 active torsions:
REMARK  status: ('A' for Active; 'I' for Inactive)
REMARK    1  A    between atoms: N_2  and  C_4
REMARK    2  A    between atoms: C_4  and  C_5
REMARK    3  A    between atoms: C_5  and  O_6
REMARK    4  A    between atoms: O_6  and  C_7
REMARK    5  A    between atoms: C_7  and  C_9
REMARK    6  A    between atoms: C_9  and  C_10
REMARK    7  A    between atoms: C_9  and  C_16
REMARK                            x       y       z     vdW  Elec       q    Type
REMARK                         _______ _______ _______ _____ _____    ______ ____
ROOT
ATOM      1  C   UNL     1       0.347   4.893  -5.659  0.00  0.00    +0.149 C 
ENDROOT
BRANCH   1   2
ATOM      2  C   UNL     1       0.476   5.967  -6.885  0.00  0.00    -0.010 A 
ATOM      3  C   UNL     1      -0.147   5.394  -7.989  0.00  0.00    -0.004 A 
ATOM      4  C   UNL     1       0.282   5.723  -9.270  0.00  0.00    -0.000 A 
ATOM      5  C   UNL     1       1.291   6.673  -9.384  0.00  0.00    -0.000 A 
ATOM      6  C   UNL     1       1.795   7.285  -8.273  0.00  0.00    -0.000 A 
ATOM      7  C   UNL     1       1.645   6.589  -7.077  0.00  0.00    -0.004 A 
ENDBRANCH   1   2
BRANCH   1   8
ATOM      8  C   UNL     1      -0.678   5.863  -4.778  0.00  0.00    +0.140 C 
ATOM      9  C   UNL     1      -2.006   5.774  -5.452  0.00  0.00    +0.031 C 
ATOM     10  C   UNL     1      -2.586   7.157  -5.258  0.00  0.00    +0.003 C 
ATOM     11  C   UNL     1      -1.486   8.044  -4.748  0.00  0.00    +0.003 C 
ATOM     12  C   UNL     1      -0.208   7.227  -4.751  0.00  0.00    +0.031 C 
ATOM     13  O   UNL     1      -0.777   5.216  -3.541  0.00  0.00    -0.225 OA
ENDBRANCH   1   8
BRANCH   1  14
ATOM     14  C   UNL     1       1.709   5.395  -4.885  0.00  0.00    +0.323 C 
ATOM     15  O   UNL     1       2.738   4.803  -5.342  0.00  0.00    -0.250 OA
BRANCH  14  16
ATOM     16  O   UNL     1       1.581   5.307  -3.492  0.00  0.00    -0.447 OA
BRANCH  16  17
ATOM     17  C   UNL     1       2.614   5.766  -2.620  0.00  0.00    +0.226 C 
BRANCH  17  18
ATOM     18  C   UNL     1       2.925   7.230  -2.920  0.00  0.00    +0.120 C 
BRANCH  18  20
ATOM     19  C   UNL     1       4.789   7.121  -2.497  0.00  0.00    +0.090 C 
ATOM     20  N   UNL     1       4.376   7.318  -2.995  0.00  0.00    -0.267 NA
ATOM     21  C   UNL     1       4.780   7.625  -4.363  0.00  0.00    +0.090 C 
ENDBRANCH  18  20
ENDBRANCH  17  18
ENDBRANCH  16  17
ENDBRANCH  14  16
ENDBRANCH   1  14
TORSDOF 7
ENDMDL
MODEL 3
REMARK VINA RESULT:      -6.3      2.405      5.068
REMARK  Name = 
REMARK  7 active torsions:
REMARK  status: ('A' for Active; 'I' for Inactive)
REMARK    1  A    between atoms: N_2  and  C_4
REMARK    2  A    between atoms: C_4  and  C_5
REMARK    3  A    between atoms: C_5  and  O_6
REMARK    4  A    between atoms: O_6  and  C_7
REMARK    5  A    between atoms: C_7  and  C_9
REMARK    6  A    between atoms: C_9  and  C_10
REMARK    7  A    between atoms: C_9  and  C_16
REMARK                            x       y       z     vdW  Elec       q    Type
REMARK                         _______ _______ _______ _____ _____    ______ ____
ROOT
ATOM      1  C   UNL     1       2.330   4.891  -6.496  0.00  0.00    +0.149 C 
ENDROOT
BRANCH   1   2
ATOM      2  C   UNL     1       3.641   5.661  -5.893  0.00  0.00    -0.010 A 
ATOM      3  C   UNL     1       4.215   4.806  -4.957  0.00  0.00    -0.004 A 
ATOM      4  C   UNL     1       4.919   5.335  -3.881  0.00  0.00    -0.000 A 
ATOM      5  C   UNL     1       5.068   6.716  -3.830  0.00  0.00    -0.000 A 
ATOM      6  C   UNL     1       4.578   7.504  -4.831  0.00  0.00    -0.000 A 
ATOM      7  C   UNL     1       3.539   6.958  -5.578  0.00  0.00    -0.004 A 
ENDBRANCH   1   2
BRANCH   1   8
ATOM      8  C   UNL     1       2.725   5.236  -8.075  0.00  0.00    +0.140 C 
ATOM      9  C   UNL     1       4.139   4.794  -8.251  0.00  0.00    +0.031 C 
ATOM     10  C   UNL     1       4.699   5.806  -9.224  0.00  0.00    +0.003 C 
ATOM     11  C   UNL     1       3.703   6.923  -9.344  0.00  0.00    +0.003 C 
ATOM     12  C   UNL     1       2.592   6.647  -8.348  0.00  0.00    +0.031 C 
ATOM     13  O   UNL     1       1.908   4.380  -8.823  0.00  0.00    -0.225 OA
ENDBRANCH   1   8
BRANCH   1  14
ATOM     14  C   UNL     1       1.318   6.176  -6.324  0.00  0.00    +0.323 C 
ATOM     15  O   UNL     1       1.155   6.467  -5.096  0.00  0.00    -0.250 OA
BRANCH  14  16
ATOM     16  O   UNL     1       0.117   5.992  -7.024  0.00  0.00    -0.447 OA
BRANCH  16  17
ATOM     17  C   UNL     1      -0.894   5.106  -6.544  0.00  0.00    +0.226 C 
BRANCH  17  18
ATOM     18  C   UNL     1      -2.210   5.864  -6.392  0.00  0.00    +0.120 C 
BRANCH  18  20
ATOM     19  C   UNL     1      -2.313   5.717  -4.485  0.00  0.00    +0.090 C 
ATOM     20  N   UNL     1      -2.320   6.183  -4.976  0.00  0.00    -0.267 NA
ATOM     21  C   UNL     1      -2.172   7.622  -4.783  0.00  0.00    +0.090 C 
ENDBRANCH  18  20
ENDBRANCH  17  18
ENDBRANCH  16  17
ENDBRANCH  14  16
ENDBRANCH   1  14
TORSDOF 7
ENDMDL
MODEL 4
REMARK VINA RESULT:      -6.3      3.046      6.121
REMARK  Name = 
REMARK  7 active torsions:
REMARK  status: ('A' for Active; 'I' for Inactive)
REMARK    1  A    between atoms: N_2  and  C_4
REMARK    2  A    between atoms: C_4  and  C_5
REMARK    3  A    between atoms: C_5  and  O_6
REMARK    4  A    between atoms: O_6  and  C_7
REMARK    5  A    between atoms: C_7  and  C_9
REMARK    6  A    between atoms: C_9  and  C_10
REMARK    7  A    between atoms: C_9  and  C_16
REMARK                            x       y       z     vdW  Elec       q    Type
REMARK                         _______ _______ _______ _____ _____    ______ ____
ROOT
ATOM      1  C   UNL     1       1.810   6.059  -6.804  0.00  0.00    +0.149 C 
ENDROOT
BRANCH   1   2
ATOM      2  C   UNL     1       2.673   5.960  -5.419  0.00  0.00    -0.010 A 
ATOM      3  C   UNL     1       3.392   7.146  -5.306  0.00  0.00    -0.004 A 
ATOM      4  C   UNL     1       4.611   7.151  -4.636  0.00  0.00    -0.000 A 
ATOM      5  C   UNL     1       5.024   5.961  -4.049  0.00  0.00    -0.000 A 
ATOM      6  C   UNL     1       4.231   4.852  -4.095  0.00  0.00    -0.000 A 
ATOM      7  C   UNL     1       3.303   4.814  -5.132  0.00  0.00    -0.004 A 
ENDBRANCH   1   2
BRANCH   1   8
ATOM      8  C   UNL     1       0.488   5.282  -6.158  0.00  0.00    +0.140 C 
ATOM      9  C   UNL     1      -0.589   5.382  -7.186  0.00  0.00    +0.031 C 
ATOM     10  C   UNL     1      -1.848   5.500  -6.356  0.00  0.00    +0.003 C 
ATOM     11  C   UNL     1      -1.435   5.746  -4.934  0.00  0.00    +0.003 C 
ATOM     12  C   UNL     1       0.074   5.900  -4.921  0.00  0.00    +0.031 C 
ATOM     13  O   UNL     1       0.887   3.943  -6.079  0.00  0.00    -0.225 OA
ENDBRANCH   1   8
BRANCH   1  14
ATOM     14  C   UNL     1       2.455   4.701  -7.472  0.00  0.00    +0.323 C 
ATOM     15  O   UNL     1       3.708   4.831  -7.648  0.00  0.00    -0.250 OA
BRANCH  14  16
ATOM     16  O   UNL     1       1.762   4.306  -8.624  0.00  0.00    -0.447 OA
BRANCH  16  17
ATOM     17  C   UNL     1       1.918   5.004  -9.860  0.00  0.00    +0.226 C 
BRANCH  17  18
ATOM     18  C   UNL     1       0.645   4.868 -10.691  0.00  0.00    +0.120 C 
BRANCH  18  20
ATOM     19  C   UNL     1      -0.069   6.639 -10.828  0.00  0.00    +0.090 C 
ATOM     20  N   UNL     1       0.334   6.209 -11.162  0.00  0.00    -0.267 NA
ATOM     21  C   UNL     1       1.216   6.558 -12.270  0.00  0.00    +0.090 C 
ENDBRANCH  18  20
ENDBRANCH  17  18
ENDBRANCH  16  17
ENDBRANCH  14  16
ENDBRANCH   1  14
TORSDOF 7
ENDMDL
MODEL 5
REMARK VINA RESULT:      -6.2      3.313      5.992
REMARK  Name = 
REMARK  7 active torsions:
REMARK  status: ('A' for Active; 'I' for Inactive)
REMARK    1  A    between atoms: N_2  and  C_4
REMARK    2  A    between atoms: C_4  and  C_5
REMARK    3  A    between atoms: C_5  and  O_6
REMARK    4  A    between atoms: O_6  and  C_7
REMARK    5  A    between atoms: C_7  and  C_9
REMARK    6  A    between atoms: C_9  and  C_10
REMARK    7  A    between atoms: C_9  and  C_16
REMARK                            x       y       z     vdW  Elec       q    Type
REMARK                         _______ _______ _______ _____ _____    ______ ____
ROOT
ATOM      1  C   UNL     1       3.044   6.379  -7.474  0.00  0.00    +0.149 C 
ENDROOT
BRANCH   1   2
ATOM      2  C   UNL     1       3.417   6.088  -5.909  0.00  0.00    -0.010 A 
ATOM      3  C   UNL     1       3.744   7.314  -5.338  0.00  0.00    -0.004 A 
ATOM      4  C   UNL     1       4.644   7.362  -4.279  0.00  0.00    -0.000 A 
ATOM      5  C   UNL     1       5.132   6.153  -3.797  0.00  0.00    -0.000 A 
ATOM      6  C   UNL     1       4.697   4.971  -4.322  0.00  0.00    -0.000 A 
ATOM      7  C   UNL     1       4.188   5.034  -5.615  0.00  0.00    -0.004 A 
ENDBRANCH   1   2
BRANCH   1   8
ATOM      8  C   UNL     1       1.737   5.349  -7.462  0.00  0.00    +0.140 C 
ATOM      9  C   UNL     1       0.943   5.680  -8.681  0.00  0.00    +0.031 C 
ATOM     10  C   UNL     1      -0.484   5.449  -8.237  0.00  0.00    +0.003 C 
ATOM     11  C   UNL     1      -0.475   5.280  -6.745  0.00  0.00    +0.003 C 
ATOM     12  C   UNL     1       0.944   5.530  -6.269  0.00  0.00    +0.031 C 
ATOM     13  O   UNL     1       2.302   4.082  -7.644  0.00  0.00    -0.225 OA
ENDBRANCH   1   8
BRANCH   1  14
ATOM     14  C   UNL     1       4.091   5.265  -8.080  0.00  0.00    +0.323 C 
ATOM     15  O   UNL     1       5.280   5.499  -7.695  0.00  0.00    -0.250 OA
BRANCH  14  16
ATOM     16  O   UNL     1       3.965   5.132  -9.470  0.00  0.00    -0.447 OA
BRANCH  16  17
ATOM     17  C   UNL     1       5.022   5.512 -10.351  0.00  0.00    +0.226 C 
BRANCH  17  18
ATOM     18  C   UNL     1       4.854   6.975 -10.754  0.00  0.00    +0.120 C 
BRANCH  18  20
ATOM     19  C   UNL     1       6.321   8.070 -11.313  0.00  0.00    +0.090 C 
ATOM     20  N   UNL     1       6.194   7.460 -11.048  0.00  0.00    -0.267 NA
ATOM     21  C   UNL     1       7.183   6.572 -10.447  0.00  0.00    +0.090 C 
ENDBRANCH  18  20
ENDBRANCH  17  18
ENDBRANCH  16  17
ENDBRANCH  14  16
ENDBRANCH   1  14
TORSDOF 7
ENDMDL
MODEL 6
REMARK VINA RESULT:      -6.2      2.289      4.769
REMARK  Name = 
REMARK  7 active torsions:
REMARK  status: ('A' for Active; 'I' for Inactive)
REMARK    1  A    between atoms: N_2  and  C_4
REMARK    2  A    between atoms: C_4  and  C_5
REMARK    3  A    between atoms: C_5  and  O_6
REMARK    4  A    between atoms: O_6  and  C_7
REMARK    5  A    between atoms: C_7  and  C_9
REMARK    6  A    between atoms: C_9  and  C_10
REMARK    7  A    between atoms: C_9  and  C_16
REMARK                            x       y       z     vdW  Elec       q    Type
REMARK                         _______ _______ _______ _____ _____    ______ ____
ROOT
ATOM      1  C   UNL     1       1.664   5.243  -5.578  0.00  0.00    +0.149 C 
ENDROOT
BRANCH   1   2
ATOM      2  C   UNL     1       3.181   5.808  -5.350  0.00  0.00    -0.010 A 
ATOM      3  C   UNL     1       3.889   4.807  -4.691  0.00  0.00    -0.004 A 
ATOM      4  C   UNL     1       4.939   5.147  -3.846  0.00  0.00    -0.000 A 
ATOM      5  C   UNL     1       5.273   6.493  -3.749  0.00  0.00    -0.000 A 
ATOM      6  C   UNL     1       4.617   7.426  -4.498  0.00  0.00    -0.000 A 
ATOM      7  C   UNL     1       3.344   7.069  -4.932  0.00  0.00    -0.004 A 
ENDBRANCH   1   2
BRANCH   1   8
ATOM      8  C   UNL     1       1.574   5.816  -7.138  0.00  0.00    +0.140 C 
ATOM      9  C   UNL     1       2.676   5.145  -7.886  0.00  0.00    +0.031 C 
ATOM     10  C   UNL     1       3.117   6.200  -8.875  0.00  0.00    +0.003 C 
ATOM     11  C   UNL     1       2.468   7.495  -8.478  0.00  0.00    +0.003 C 
ATOM     12  C   UNL     1       1.731   7.251  -7.174  0.00  0.00    +0.031 C 
ATOM     13  O   UNL     1       0.358   5.313  -7.614  0.00  0.00    -0.225 OA
ENDBRANCH   1   8
BRANCH   1  14
ATOM     14  C   UNL     1       0.923   6.550  -4.909  0.00  0.00    +0.323 C 
ATOM     15  O   UNL     1       1.072   6.562  -3.646  0.00  0.00    -0.250 OA
BRANCH  14  16
ATOM     16  O   UNL     1      -0.413   6.660  -5.320  0.00  0.00    -0.447 OA
BRANCH  16  17
ATOM     17  C   UNL     1      -1.254   7.709  -4.840  0.00  0.00    +0.226 C 
BRANCH  17  18
ATOM     18  C   UNL     1      -2.547   7.117  -4.285  0.00  0.00    +0.120 C 
BRANCH  18  20
ATOM     19  C   UNL     1      -2.236   7.314  -2.406  0.00  0.00    +0.090 C 
ATOM     20  N   UNL     1      -2.282   6.835  -2.882  0.00  0.00    -0.267 NA
ATOM     21  C   UNL     1      -2.408   5.402  -2.636  0.00  0.00    +0.090 C 
ENDBRANCH  18  20
ENDBRANCH  17  18
ENDBRANCH  16  17
ENDBRANCH  14  16
ENDBRANCH   1  14
TORSDOF 7
ENDMDL
MODEL 7
REMARK VINA RESULT:      -6.1      1.600      2.200
REMARK  Name = 
REMARK  7 active torsions:
REMARK  status: ('A' for Active; 'I' for Inactive)
REMARK    1  A    between atoms: N_2  and  C_4
REMARK    2  A    between atoms: C_4  and  C_5
REMARK    3  A    between atoms: C_5  and  O_6
REMARK    4  A    between atoms: O_6  and  C_7
REMARK    5  A    between atoms: C_7  and  C_9
REMARK    6  A    between atoms: C_9  and  C_10
REMARK    7  A    between atoms: C_9  and  C_16
REMARK                            x       y       z     vdW  Elec       q    Type
REMARK                         _______ _______ _______ _____ _____    ______ ____
ROOT
ATOM      1  C   UNL     1       0.872   6.523  -5.253  0.00  0.00    +0.149 C 
ENDROOT
BRANCH   1   2
ATOM      2  C   UNL     1      -0.702   6.383  -4.833  0.00  0.00    -0.010 A 
ATOM      3  C   UNL     1      -1.197   7.676  -4.687  0.00  0.00    -0.004 A 
ATOM      4  C   UNL     1      -2.239   7.918  -3.799  0.00  0.00    -0.000 A 
ATOM      5  C   UNL     1      -2.783   6.825  -3.135  0.00  0.00    -0.000 A 
ATOM      6  C   UNL     1      -2.334   5.562  -3.394  0.00  0.00    -0.000 A 
ATOM      7  C   UNL     1      -1.047   5.473  -3.914  0.00  0.00    -0.004 A 
ENDBRANCH   1   2
BRANCH   1   8
ATOM      8  C   UNL     1       0.735   5.456  -6.523  0.00  0.00    +0.140 C 
ATOM      9  C   UNL     1       1.906   5.719  -7.408  0.00  0.00    +0.031 C 
ATOM     10  C   UNL     1       1.358   5.462  -8.793  0.00  0.00    +0.003 C 
ATOM     11  C   UNL     1      -0.135   5.346  -8.677  0.00  0.00    +0.003 C 
ATOM     12  C   UNL     1      -0.503   5.655  -7.239  0.00  0.00    +0.031 C 
ATOM     13  O   UNL     1       0.913   4.200  -5.930  0.00  0.00    -0.225 OA
ENDBRANCH   1   8
BRANCH   1  14
ATOM     14  C   UNL     1       1.406   5.395  -4.183  0.00  0.00    +0.323 C 
ATOM     15  O   UNL     1       1.297   5.814  -2.986  0.00  0.00    -0.250 OA
BRANCH  14  16
ATOM     16  O   UNL     1       2.692   4.937  -4.504  0.00  0.00    -0.447 OA
BRANCH  16  17
ATOM     17  C   UNL     1       3.802   5.174  -3.639  0.00  0.00    +0.226 C 
BRANCH  17  18
ATOM     18  C   UNL     1       4.879   5.955  -4.388  0.00  0.00    +0.120 C 
BRANCH  18  20
ATOM     19  C   UNL     1       4.893   7.857  -4.175  0.00  0.00    +0.090 C 
ATOM     20  N   UNL     1       4.874   7.289  -3.808  0.00  0.00    -0.267 NA
ATOM     21  C   UNL     1       4.553   7.208  -2.387  0.00  0.00    +0.090 C 
ENDBRANCH  18  20
ENDBRANCH  17  18
ENDBRANCH  16  17
ENDBRANCH  14  16
ENDBRANCH   1  14
TORSDOF 7
ENDMDL
MODEL 8
REMARK VINA RESULT:      -6.1      2.229      4.780
REMARK  Name = 
REMARK  7 active torsions:
REMARK  status: ('A' for Active; 'I' for Inactive)
REMARK    1  A    between atoms: N_2  and  C_4
REMARK    2  A    between atoms: C_4  and  C_5
REMARK    3  A    between atoms: C_5  and  O_6
REMARK    4  A    between atoms: O_6  and  C_7
REMARK    5  A    between atoms: C_7  and  C_9
REMARK    6  A    between atoms: C_9  and  C_10
REMARK    7  A    between atoms: C_9  and  C_16
REMARK                            x       y       z     vdW  Elec       q    Type
REMARK                         _______ _______ _______ _____ _____    ______ ____
ROOT
ATOM      1  C   UNL     1       1.722   6.757  -6.613  0.00  0.00    +0.149 C 
ENDROOT
BRANCH   1   2
ATOM      2  C   UNL     1       2.872   6.098  -7.571  0.00  0.00    -0.010 A 
ATOM      3  C   UNL     1       3.114   7.010  -8.594  0.00  0.00    -0.004 A 
ATOM      4  C   UNL     1       3.538   6.553  -9.838  0.00  0.00    -0.000 A 
ATOM      5  C   UNL     1       3.760   5.188  -9.978  0.00  0.00    -0.000 A 
ATOM      6  C   UNL     1       3.611   4.348  -8.912  0.00  0.00    -0.000 A 
ATOM      7  C   UNL     1       2.777   4.803  -7.895  0.00  0.00    -0.004 A 
ENDBRANCH   1   2
BRANCH   1   8
ATOM      8  C   UNL     1       2.519   6.359  -5.207  0.00  0.00    +0.140 C 
ATOM      9  C   UNL     1       3.817   7.093  -5.249  0.00  0.00    +0.031 C 
ATOM     10  C   UNL     1       4.773   6.146  -4.560  0.00  0.00    +0.003 C 
ATOM     11  C   UNL     1       4.075   4.825  -4.410  0.00  0.00    +0.003 C 
ATOM     12  C   UNL     1       2.739   4.935  -5.120  0.00  0.00    +0.031 C 
ATOM     13  O   UNL     1       1.732   6.928  -4.199  0.00  0.00    -0.225 OA
ENDBRANCH   1   8
BRANCH   1  14
ATOM     14  C   UNL     1       0.760   5.423  -6.607  0.00  0.00    +0.323 C 
ATOM     15  O   UNL     1       0.135   5.306  -7.709  0.00  0.00    -0.250 OA
BRANCH  14  16
ATOM     16  O   UNL     1      -0.074   5.386  -5.481  0.00  0.00    -0.447 OA
BRANCH  16  17
ATOM     17  C   UNL     1      -1.471   5.665  -5.581  0.00  0.00    +0.226 C 
BRANCH  17  18
ATOM     18  C   UNL     1      -1.765   7.033  -4.972  0.00  0.00    +0.120 C 
BRANCH  18  20
ATOM     19  C   UNL     1      -2.230   7.231  -3.125  0.00  0.00    +0.090 C 
ATOM     20  N   UNL     1      -2.238   6.770  -3.621  0.00  0.00    -0.267 NA
ATOM     21  C   UNL     1      -2.957   5.501  -3.589  0.00  0.00    +0.090 C 
ENDBRANCH  18  20
ENDBRANCH  17  18
ENDBRANCH  16  17
ENDBRANCH  14  16
ENDBRANCH   1  14
TORSDOF 7
ENDMDL
MODEL 9
REMARK VINA RESULT:      -6.1      5.274      8.175
REMARK  Name = 
REMARK  7 active torsions:
REMARK  status: ('A' for Active; 'I' for Inactive)
REMARK    1  A    between atoms: N_2  and  C_4
REMARK    2  A    between atoms: C_4  and  C_5
REMARK    3  A    between atoms: C_5  and  O_6
REMARK    4  A    between atoms: O_6  and  C_7
REMARK    5  A    between atoms: C_7  and  C_9
REMARK    6  A    between atoms: C_9  and  C_10
REMARK    7  A    between atoms: C_9  and  C_16
REMARK                            x       y       z     vdW  Elec       q    Type
REMARK                         _______ _______ _______ _____ _____    ______ ____
ROOT
ATOM      1  C   UNL     1       4.422   5.022 -10.454  0.00  0.00    +0.149 C 
ENDROOT
BRANCH   1   2
ATOM      2  C   UNL     1       4.210   6.107  -9.250  0.00  0.00    -0.010 A 
ATOM      3  C   UNL     1       4.619   5.488  -8.073  0.00  0.00    -0.004 A 
ATOM      4  C   UNL     1       4.041   5.857  -6.863  0.00  0.00    -0.000 A 
ATOM      5  C   UNL     1       3.109   6.888  -6.886  0.00  0.00    -0.000 A 
ATOM      6  C   UNL     1       2.822   7.537  -8.052  0.00  0.00    -0.000 A 
ATOM      7  C   UNL     1       3.082   6.827  -9.220  0.00  0.00    -0.004 A 
ENDBRANCH   1   2
BRANCH   1   8
ATOM      8  C   UNL     1       5.705   5.850 -11.116  0.00  0.00    +0.140 C 
ATOM      9  C   UNL     1       6.823   5.726 -10.136  0.00  0.00    +0.031 C 
ATOM     10  C   UNL     1       7.545   7.048 -10.266  0.00  0.00    +0.003 C 
ATOM     11  C   UNL     1       6.675   7.964 -11.078  0.00  0.00    +0.003 C 
ATOM     12  C   UNL     1       5.369   7.237 -11.337  0.00  0.00    +0.031 C 
ATOM     13  O   UNL     1       6.040   5.104 -12.251  0.00  0.00    -0.225 OA
ENDBRANCH   1   8
BRANCH   1  14
ATOM     14  C   UNL     1       3.298   5.692 -11.450  0.00  0.00    +0.323 C 
ATOM     15  O   UNL     1       2.127   5.565 -10.967  0.00  0.00    -0.250 OA
BRANCH  14  16
ATOM     16  O   UNL     1       3.419   5.223 -12.765  0.00  0.00    -0.447 OA
BRANCH  16  17
ATOM     17  C   UNL     1       2.911   5.971 -13.870  0.00  0.00    +0.226 C 
BRANCH  17  18
ATOM     18  C   UNL     1       1.530   5.446 -14.253  0.00  0.00    +0.120 C 
BRANCH  18  20
ATOM     19  C   UNL     1       0.456   6.646 -15.290  0.00  0.00    +0.090 C 
ATOM     20  N   UNL     1       0.774   6.609 -14.693  0.00  0.00    -0.267 NA
ATOM     21  C   UNL     1       0.586   7.527 -13.575  0.00  0.00    +0.090 C 
ENDBRANCH  18  20
ENDBRANCH  17  18
ENDBRANCH  16  17
ENDBRANCH  14  16
ENDBRANCH   1  14
TORSDOF 7
ENDMDL
