MODEL 1
REMARK VINA RESULT:      -7.9      0.000      0.000
REMARK  Name = 
REMARK  4 active torsions:
REMARK  status: ('A' for Active; 'I' for Inactive)
REMARK    1  A    between atoms: O_2  and  C_3
REMARK    2  A    between atoms: C_8  and  O_9
REMARK    3  A    between atoms: C_15  and  C_16
REMARK    4  A    between atoms: C_16  and  C_17
REMARK                            x       y       z     vdW  Elec       q    Type
REMARK                         _______ _______ _______ _____ _____    ______ ____
ROOT
ATOM      1  C   UNL     1      -1.448   5.742  -4.411  0.00  0.00    +0.172 A 
ATOM      2  C   UNL     1      -0.277   5.711  -3.664  0.00  0.00    +0.172 A 
ATOM      3  C   UNL     1       0.781   5.053  -4.282  0.00  0.00    +0.037 A 
ATOM      4  C   UNL     1       0.753   4.758  -5.643  0.00  0.00    -0.008 A 
ATOM      5  C   UNL     1       2.276   4.781  -6.165  0.00  0.00    +0.087 C 
ATOM      6  N   UNL     1       2.192   6.263  -6.683  0.00  0.00    -0.269 NA
ATOM      7  C   UNL     1       1.351   6.417  -7.765  0.00  0.00    +0.077 C 
ATOM      8  C   UNL     1       0.063   5.678  -7.809  0.00  0.00    +0.044 C 
ATOM      9  C   UNL     1       3.562   6.411  -7.067  0.00  0.00    +0.080 C 
ATOM     10  C   UNL     1       3.730   5.866  -8.595  0.00  0.00    +0.074 C 
ATOM     11  C   UNL     1       3.286   4.362  -8.241  0.00  0.00    +0.153 C 
ATOM     12  O   UNL     1       3.589   3.619  -9.172  0.00  0.00    -0.296 OA
ATOM     13  C   UNL     1       1.924   4.159  -7.646  0.00  0.00    +0.085 C 
ATOM     14  C   UNL     1      -0.231   5.231  -6.419  0.00  0.00    -0.020 A 
ATOM     15  C   UNL     1      -1.425   5.586  -5.793  0.00  0.00    +0.036 A 
ENDROOT
BRANCH   1  17
ATOM     16  C   UNL     1      -3.240   5.329  -3.332  0.00  0.00    +0.253 C 
ATOM     17  O   UNL     1      -2.623   5.929  -3.682  0.00  0.00    -0.468 OA
ENDBRANCH   1  17
BRANCH   2  18
ATOM     18  O   UNL     1      -0.099   6.527  -2.543  0.00  0.00    -0.468 OA
ATOM     19  C   UNL     1      -0.046   5.952  -1.240  0.00  0.00    +0.253 C 
ENDBRANCH   2  18
BRANCH  10  20
ATOM     20  C   UNL     1       5.319   5.536  -8.383  0.00  0.00    +0.009 C 
BRANCH  20  21
ATOM     21  C   UNL     1       6.071   5.788  -9.623  0.00  0.00    +0.000 C 
ATOM     22  C   UNL     1       5.427   6.736 -10.604  0.00  0.00    +0.000 C 
ATOM     23  C   UNL     1       7.547   5.946  -9.484  0.00  0.00    +0.000 C 
ENDBRANCH  20  21
ENDBRANCH  10  20
TORSDOF 4
ENDMDL
MODEL 2
REMARK VINA RESULT:      -7.9      2.192      7.823
REMARK  Name = 
REMARK  4 active torsions:
REMARK  status: ('A' for Active; 'I' for Inactive)
REMARK    1  A    between atoms: O_2  and  C_3
REMARK    2  A    between atoms: C_8  and  O_9
REMARK    3  A    between atoms: C_15  and  C_16
REMARK    4  A    between atoms: C_16  and  C_17
REMARK                            x       y       z     vdW  Elec       q    Type
REMARK                         _______ _______ _______ _____ _____    ______ ____
ROOT
ATOM      1  C   UNL     1       6.466   5.756 -10.420  0.00  0.00    +0.172 A 
ATOM      2  C   UNL     1       5.351   5.710 -11.249  0.00  0.00    +0.172 A 
ATOM      3  C   UNL     1       4.251   5.065 -10.696  0.00  0.00    +0.037 A 
ATOM      4  C   UNL     1       4.180   4.797  -9.331  0.00  0.00    -0.008 A 
ATOM      5  C   UNL     1       2.624   4.831  -8.921  0.00  0.00    +0.087 C 
ATOM      6  N   UNL     1       2.671   6.323  -8.429  0.00  0.00    -0.269 NA
ATOM      7  C   UNL     1       3.432   6.499  -7.292  0.00  0.00    +0.077 C 
ATOM      8  C   UNL     1       4.713   5.761  -7.140  0.00  0.00    +0.044 C 
ATOM      9  C   UNL     1       1.278   6.478  -8.147  0.00  0.00    +0.080 C 
ATOM     10  C   UNL     1       0.999   5.965  -6.625  0.00  0.00    +0.074 C 
ATOM     11  C   UNL     1       1.465   4.454  -6.916  0.00  0.00    +0.153 C 
ATOM     12  O   UNL     1       1.095   3.730  -5.994  0.00  0.00    -0.296 OA
ATOM     13  C   UNL     1       2.866   4.239  -7.406  0.00  0.00    +0.085 C 
ATOM     14  C   UNL     1       5.106   5.286  -8.496  0.00  0.00    -0.020 A 
ATOM     15  C   UNL     1       6.343   5.628  -9.041  0.00  0.00    +0.036 A 
ENDROOT
BRANCH   1  17
ATOM     16  C   UNL     1       8.270   5.326 -11.471  0.00  0.00    +0.253 C 
ATOM     17  O   UNL     1       7.690   5.928 -11.066  0.00  0.00    -0.468 OA
ENDBRANCH   1  17
BRANCH   2  18
ATOM     18  O   UNL     1       5.256   6.503 -12.397  0.00  0.00    -0.468 OA
ATOM     19  C   UNL     1       5.226   5.896 -13.686  0.00  0.00    +0.253 C 
ENDBRANCH   2  18
BRANCH  10  20
ATOM     20  C   UNL     1      -0.571   5.631  -6.944  0.00  0.00    +0.009 C 
BRANCH  20  21
ATOM     21  C   UNL     1      -1.450   6.278  -5.957  0.00  0.00    +0.000 C 
ATOM     22  C   UNL     1      -2.638   5.468  -5.500  0.00  0.00    +0.000 C 
ATOM     23  C   UNL     1      -0.777   7.055  -4.877  0.00  0.00    +0.000 C 
ENDBRANCH  20  21
ENDBRANCH  10  20
TORSDOF 4
ENDMDL
MODEL 3
REMARK VINA RESULT:      -7.8      1.519      2.292
REMARK  Name = 
REMARK  4 active torsions:
REMARK  status: ('A' for Active; 'I' for Inactive)
REMARK    1  A    between atoms: O_2  and  C_3
REMARK    2  A    between atoms: C_8  and  O_9
REMARK    3  A    between atoms: C_15  and  C_16
REMARK    4  A    between atoms: C_16  and  C_17
REMARK                            x       y       z     vdW  Elec       q    Type
REMARK                         _______ _______ _______ _____ _____    ______ ____
ROOT
ATOM      1  C   UNL     1      -0.479   5.327  -6.222  0.00  0.00    +0.172 A 
ATOM      2  C   UNL     1       0.615   4.751  -5.588  0.00  0.00    +0.172 A 
ATOM      3  C   UNL     1       1.605   4.296  -6.452  0.00  0.00    +0.037 A 
ATOM      4  C   UNL     1       1.634   4.689  -7.789  0.00  0.00    -0.008 A 
ATOM      5  C   UNL     1       3.178   4.700  -8.246  0.00  0.00    +0.087 C 
ATOM      6  N   UNL     1       3.358   6.241  -7.990  0.00  0.00    -0.269 NA
ATOM      7  C   UNL     1       2.633   7.028  -8.861  0.00  0.00    +0.077 C 
ATOM      8  C   UNL     1       1.255   6.625  -9.246  0.00  0.00    +0.044 C 
ATOM      9  C   UNL     1       4.759   6.321  -8.267  0.00  0.00    +0.080 C 
ATOM     10  C   UNL     1       4.957   6.544  -9.870  0.00  0.00    +0.074 C 
ATOM     11  C   UNL     1       4.266   5.150 -10.276  0.00  0.00    +0.153 C 
ATOM     12  O   UNL     1       4.522   4.897 -11.451  0.00  0.00    -0.296 OA
ATOM     13  C   UNL     1       2.849   4.922  -9.842  0.00  0.00    +0.085 C 
ATOM     14  C   UNL     1       0.794   5.631  -8.237  0.00  0.00    -0.020 A 
ATOM     15  C   UNL     1      -0.376   5.842  -7.509  0.00  0.00    +0.036 A 
ENDROOT
BRANCH   1  17
ATOM     16  C   UNL     1      -2.351   5.963  -5.423  0.00  0.00    +0.253 C 
ATOM     17  O   UNL     1      -1.663   5.341  -5.484  0.00  0.00    -0.468 OA
ENDBRANCH   1  17
BRANCH   2  18
ATOM     18  O   UNL     1       0.830   4.896  -4.214  0.00  0.00    -0.468 OA
ATOM     19  C   UNL     1       1.325   6.126  -3.692  0.00  0.00    +0.253 C 
ENDBRANCH   2  18
BRANCH  10  20
ATOM     20  C   UNL     1       6.457   5.892  -9.852  0.00  0.00    +0.009 C 
BRANCH  20  21
ATOM     21  C   UNL     1       7.382   6.697 -10.666  0.00  0.00    +0.000 C 
ATOM     22  C   UNL     1       8.311   5.925 -11.569  0.00  0.00    +0.000 C 
ATOM     23  C   UNL     1       6.825   7.943 -11.268  0.00  0.00    +0.000 C 
ENDBRANCH  20  21
ENDBRANCH  10  20
TORSDOF 4
ENDMDL
MODEL 4
REMARK VINA RESULT:      -7.8      1.604      7.352
REMARK  Name = 
REMARK  4 active torsions:
REMARK  status: ('A' for Active; 'I' for Inactive)
REMARK    1  A    between atoms: O_2  and  C_3
REMARK    2  A    between atoms: C_8  and  O_9
REMARK    3  A    between atoms: C_15  and  C_16
REMARK    4  A    between atoms: C_16  and  C_17
REMARK                            x       y       z     vdW  Elec       q    Type
REMARK                         _______ _______ _______ _____ _____    ______ ____
ROOT
ATOM      1  C   UNL     1       5.419   5.380  -9.147  0.00  0.00    +0.172 A 
ATOM      2  C   UNL     1       4.294   4.918  -9.820  0.00  0.00    +0.172 A 
ATOM      3  C   UNL     1       3.281   4.451  -8.991  0.00  0.00    +0.037 A 
ATOM      4  C   UNL     1       3.273   4.738  -7.627  0.00  0.00    -0.008 A 
ATOM      5  C   UNL     1       1.732   4.798  -7.164  0.00  0.00    +0.087 C 
ATOM      6  N   UNL     1       1.638   6.362  -7.295  0.00  0.00    -0.269 NA
ATOM      7  C   UNL     1       2.406   7.035  -6.368  0.00  0.00    +0.077 C 
ATOM      8  C   UNL     1       3.759   6.527  -6.022  0.00  0.00    +0.044 C 
ATOM      9  C   UNL     1       0.244   6.497  -7.008  0.00  0.00    +0.080 C 
ATOM     10  C   UNL     1       0.059   6.602  -5.391  0.00  0.00    +0.074 C 
ATOM     11  C   UNL     1       0.670   5.144  -5.100  0.00  0.00    +0.153 C 
ATOM     12  O   UNL     1       0.400   4.813  -3.948  0.00  0.00    -0.296 OA
ATOM     13  C   UNL     1       2.073   4.873  -5.557  0.00  0.00    +0.085 C 
ATOM     14  C   UNL     1       4.164   5.592  -7.109  0.00  0.00    -0.020 A 
ATOM     15  C   UNL     1       5.345   5.796  -7.822  0.00  0.00    +0.036 A 
ENDROOT
BRANCH   1  17
ATOM     16  C   UNL     1       7.394   5.862  -9.788  0.00  0.00    +0.253 C 
ATOM     17  O   UNL     1       6.602   5.387  -9.886  0.00  0.00    -0.468 OA
ENDBRANCH   1  17
BRANCH   2  18
ATOM     18  O   UNL     1       4.089   5.183 -11.177  0.00  0.00    -0.468 OA
ATOM     19  C   UNL     1       3.159   6.187 -11.579  0.00  0.00    +0.253 C 
ENDBRANCH   2  18
BRANCH  10  20
ATOM     20  C   UNL     1      -1.476   6.038  -5.454  0.00  0.00    +0.009 C 
BRANCH  20  21
ATOM     21  C   UNL     1      -2.376   6.891  -4.661  0.00  0.00    +0.000 C 
ATOM     22  C   UNL     1      -3.005   6.244  -3.453  0.00  0.00    +0.000 C 
ATOM     23  C   UNL     1      -1.939   8.302  -4.453  0.00  0.00    +0.000 C 
ENDBRANCH  20  21
ENDBRANCH  10  20
TORSDOF 4
ENDMDL
MODEL 5
REMARK VINA RESULT:      -7.2      2.871      4.725
REMARK  Name = 
REMARK  4 active torsions:
REMARK  status: ('A' for Active; 'I' for Inactive)
REMARK    1  A    between atoms: O_2  and  C_3
REMARK    2  A    between atoms: C_8  and  O_9
REMARK    3  A    between atoms: C_15  and  C_16
REMARK    4  A    between atoms: C_16  and  C_17
REMARK                            x       y       z     vdW  Elec       q    Type
REMARK                         _______ _______ _______ _____ _____    ______ ____
ROOT
ATOM      1  C   UNL     1       3.756   5.919  -1.957  0.00  0.00    +0.172 A 
ATOM      2  C   UNL     1       2.369   6.012  -1.954  0.00  0.00    +0.172 A 
ATOM      3  C   UNL     1       1.831   6.613  -3.086  0.00  0.00    +0.037 A 
ATOM      4  C   UNL     1       2.592   6.792  -4.240  0.00  0.00    -0.008 A 
ATOM      5  C   UNL     1       1.579   6.723  -5.490  0.00  0.00    +0.087 C 
ATOM      6  N   UNL     1       1.859   5.202  -5.774  0.00  0.00    -0.269 NA
ATOM      7  C   UNL     1       3.139   4.958  -6.227  0.00  0.00    +0.077 C 
ATOM      8  C   UNL     1       4.285   5.693  -5.631  0.00  0.00    +0.044 C 
ATOM      9  C   UNL     1       0.899   5.021  -6.818  0.00  0.00    +0.080 C 
ATOM     10  C   UNL     1       1.592   5.433  -8.235  0.00  0.00    +0.074 C 
ATOM     11  C   UNL     1       1.846   6.962  -7.809  0.00  0.00    +0.153 C 
ATOM     12  O   UNL     1       2.117   7.623  -8.809  0.00  0.00    -0.296 OA
ATOM     13  C   UNL     1       2.691   7.218  -6.596  0.00  0.00    +0.085 C 
ATOM     14  C   UNL     1       3.815   6.256  -4.335  0.00  0.00    -0.020 A 
ATOM     15  C   UNL     1       4.477   5.957  -3.145  0.00  0.00    +0.036 A 
ENDROOT
BRANCH   1  17
ATOM     16  C   UNL     1       4.716   6.425  -0.121  0.00  0.00    +0.253 C 
ATOM     17  O   UNL     1       4.354   5.797  -0.702  0.00  0.00    -0.468 OA
ENDBRANCH   1  17
BRANCH   2  18
ATOM     18  O   UNL     1       1.587   5.294  -1.044  0.00  0.00    -0.468 OA
ATOM     19  C   UNL     1       0.173   5.226  -1.212  0.00  0.00    +0.253 C 
ENDBRANCH   2  18
BRANCH  10  20
ATOM     20  C   UNL     1       0.150   5.778  -8.927  0.00  0.00    +0.009 C 
BRANCH  20  21
ATOM     21  C   UNL     1       0.241   5.679 -10.393  0.00  0.00    +0.000 C 
ATOM     22  C   UNL     1       0.000   4.309 -10.978  0.00  0.00    +0.000 C 
ATOM     23  C   UNL     1      -0.356   6.801 -11.173  0.00  0.00    +0.000 C 
ENDBRANCH  20  21
ENDBRANCH  10  20
TORSDOF 4
ENDMDL
MODEL 6
REMARK VINA RESULT:      -7.1      2.173      3.648
REMARK  Name = 
REMARK  4 active torsions:
REMARK  status: ('A' for Active; 'I' for Inactive)
REMARK    1  A    between atoms: O_2  and  C_3
REMARK    2  A    between atoms: C_8  and  O_9
REMARK    3  A    between atoms: C_15  and  C_16
REMARK    4  A    between atoms: C_16  and  C_17
REMARK                            x       y       z     vdW  Elec       q    Type
REMARK                         _______ _______ _______ _____ _____    ______ ____
ROOT
ATOM      1  C   UNL     1      -0.196   5.825  -2.723  0.00  0.00    +0.172 A 
ATOM      2  C   UNL     1      -1.047   6.591  -3.510  0.00  0.00    +0.172 A 
ATOM      3  C   UNL     1      -0.436   7.180  -4.611  0.00  0.00    +0.037 A 
ATOM      4  C   UNL     1       0.818   6.762  -5.051  0.00  0.00    -0.008 A 
ATOM      5  C   UNL     1       0.862   6.995  -6.644  0.00  0.00    +0.087 C 
ATOM      6  N   UNL     1       0.464   5.513  -6.983  0.00  0.00    -0.269 NA
ATOM      7  C   UNL     1       1.436   4.595  -6.642  0.00  0.00    +0.077 C 
ATOM      8  C   UNL     1       2.187   4.753  -5.370  0.00  0.00    +0.044 C 
ATOM      9  C   UNL     1       0.367   5.659  -8.402  0.00  0.00    +0.080 C 
ATOM     10  C   UNL     1       1.846   5.429  -9.047  0.00  0.00    +0.074 C 
ATOM     11  C   UNL     1       2.510   6.678  -8.284  0.00  0.00    +0.153 C 
ATOM     12  O   UNL     1       3.595   6.939  -8.799  0.00  0.00    -0.296 OA
ATOM     13  C   UNL     1       2.471   6.681  -6.784  0.00  0.00    +0.085 C 
ATOM     14  C   UNL     1       1.400   5.683  -4.513  0.00  0.00    -0.020 A 
ATOM     15  C   UNL     1       0.984   5.300  -3.238  0.00  0.00    +0.036 A 
ENDROOT
BRANCH   1  17
ATOM     16  C   UNL     1      -0.338   6.029  -0.605  0.00  0.00    +0.253 C 
ATOM     17  O   UNL     1      -0.605   5.635  -1.402  0.00  0.00    -0.468 OA
ENDBRANCH   1  17
BRANCH   2  18
ATOM     18  O   UNL     1      -2.437   6.520  -3.373  0.00  0.00    -0.468 OA
ATOM     19  C   UNL     1      -3.116   5.284  -3.582  0.00  0.00    +0.253 C 
ENDBRANCH   2  18
BRANCH  10  20
ATOM     20  C   UNL     1       1.490   6.321 -10.372  0.00  0.00    +0.009 C 
BRANCH  20  21
ATOM     21  C   UNL     1       0.163   5.962 -10.898  0.00  0.00    +0.000 C 
ATOM     22  C   UNL     1      -0.676   7.106 -11.409  0.00  0.00    +0.000 C 
ATOM     23  C   UNL     1       0.089   4.721 -11.722  0.00  0.00    +0.000 C 
ENDBRANCH  20  21
ENDBRANCH  10  20
TORSDOF 4
ENDMDL
MODEL 7
REMARK VINA RESULT:      -7.1      1.706      7.256
REMARK  Name = 
REMARK  4 active torsions:
REMARK  status: ('A' for Active; 'I' for Inactive)
REMARK    1  A    between atoms: O_2  and  C_3
REMARK    2  A    between atoms: C_8  and  O_9
REMARK    3  A    between atoms: C_15  and  C_16
REMARK    4  A    between atoms: C_16  and  C_17
REMARK                            x       y       z     vdW  Elec       q    Type
REMARK                         _______ _______ _______ _____ _____    ______ ____
ROOT
ATOM      1  C   UNL     1       3.481   5.572  -9.545  0.00  0.00    +0.172 A 
ATOM      2  C   UNL     1       2.281   4.889  -9.694  0.00  0.00    +0.172 A 
ATOM      3  C   UNL     1       1.739   4.415  -8.505  0.00  0.00    +0.037 A 
ATOM      4  C   UNL     1       2.190   4.877  -7.270  0.00  0.00    -0.008 A 
ATOM      5  C   UNL     1       0.943   4.808  -6.254  0.00  0.00    +0.087 C 
ATOM      6  N   UNL     1       0.550   6.316  -6.457  0.00  0.00    -0.269 NA
ATOM      7  C   UNL     1       1.485   7.197  -5.952  0.00  0.00    +0.077 C 
ATOM      8  C   UNL     1       2.933   6.911  -6.119  0.00  0.00    +0.044 C 
ATOM      9  C   UNL     1      -0.639   6.315  -5.664  0.00  0.00    +0.080 C 
ATOM     10  C   UNL     1      -0.228   6.612  -4.115  0.00  0.00    +0.074 C 
ATOM     11  C   UNL     1       0.680   5.292  -3.973  0.00  0.00    +0.153 C 
ATOM     12  O   UNL     1       0.915   5.086  -2.784  0.00  0.00    -0.296 OA
ATOM     13  C   UNL     1       1.838   5.137  -4.914  0.00  0.00    +0.085 C 
ATOM     14  C   UNL     1       3.055   5.897  -7.203  0.00  0.00    -0.020 A 
ATOM     15  C   UNL     1       3.836   6.148  -8.331  0.00  0.00    +0.036 A 
ENDROOT
BRANCH   1  17
ATOM     16  C   UNL     1       4.920   6.244 -10.968  0.00  0.00    +0.253 C 
ATOM     17  O   UNL     1       4.288   5.626 -10.682  0.00  0.00    -0.468 OA
ENDBRANCH   1  17
BRANCH   2  18
ATOM     18  O   UNL     1       1.546   4.943 -10.882  0.00  0.00    -0.468 OA
ATOM     19  C   UNL     1       0.162   4.605 -10.886  0.00  0.00    +0.253 C 
ENDBRANCH   2  18
BRANCH  10  20
ATOM     20  C   UNL     1      -1.560   5.858  -3.537  0.00  0.00    +0.009 C 
BRANCH  20  21
ATOM     21  C   UNL     1      -2.381   6.790  -2.746  0.00  0.00    +0.000 C 
ATOM     22  C   UNL     1      -3.853   6.470  -2.669  0.00  0.00    +0.000 C 
ATOM     23  C   UNL     1      -1.785   7.282  -1.471  0.00  0.00    +0.000 C 
ENDBRANCH  20  21
ENDBRANCH  10  20
TORSDOF 4
ENDMDL
MODEL 8
REMARK VINA RESULT:      -6.9      3.175      4.454
REMARK  Name = 
REMARK  4 active torsions:
REMARK  status: ('A' for Active; 'I' for Inactive)
REMARK    1  A    between atoms: O_2  and  C_3
REMARK    2  A    between atoms: C_8  and  O_9
REMARK    3  A    between atoms: C_15  and  C_16
REMARK    4  A    between atoms: C_16  and  C_17
REMARK                            x       y       z     vdW  Elec       q    Type
REMARK                         _______ _______ _______ _____ _____    ______ ____
ROOT
ATOM      1  C   UNL     1       1.681   5.569  -5.150  0.00  0.00    +0.172 A 
ATOM      2  C   UNL     1       1.053   6.723  -5.603  0.00  0.00    +0.172 A 
ATOM      3  C   UNL     1       1.537   7.202  -6.815  0.00  0.00    +0.037 A 
ATOM      4  C   UNL     1       2.333   6.410  -7.639  0.00  0.00    -0.008 A 
ATOM      5  C   UNL     1       2.045   6.866  -9.156  0.00  0.00    +0.087 C 
ATOM      6  N   UNL     1       0.988   5.732  -9.414  0.00  0.00    -0.269 NA
ATOM      7  C   UNL     1       1.537   4.466  -9.428  0.00  0.00    +0.077 C 
ATOM      8  C   UNL     1       2.595   4.110  -8.447  0.00  0.00    +0.044 C 
ATOM      9  C   UNL     1       0.586   6.135 -10.725  0.00  0.00    +0.080 C 
ATOM     10  C   UNL     1       1.602   5.461 -11.807  0.00  0.00    +0.074 C 
ATOM     11  C   UNL     1       2.905   6.211 -11.239  0.00  0.00    +0.153 C 
ATOM     12  O   UNL     1       3.819   6.112 -12.055  0.00  0.00    -0.296 OA
ATOM     13  C   UNL     1       3.271   5.981  -9.802  0.00  0.00    +0.085 C 
ATOM     14  C   UNL     1       2.530   5.117  -7.352  0.00  0.00    -0.020 A 
ATOM     15  C   UNL     1       2.348   4.721  -6.028  0.00  0.00    +0.036 A 
ENDROOT
BRANCH   1  17
ATOM     16  C   UNL     1       2.161   5.561  -3.073  0.00  0.00    +0.253 C 
ATOM     17  O   UNL     1       1.598   5.337  -3.777  0.00  0.00    -0.468 OA
ENDBRANCH   1  17
BRANCH   2  18
ATOM     18  O   UNL     1      -0.146   7.174  -5.044  0.00  0.00    -0.468 OA
ATOM     19  C   UNL     1      -1.364   6.480  -5.304  0.00  0.00    +0.253 C 
ENDBRANCH   2  18
BRANCH  10  20
ATOM     20  C   UNL     1       1.313   6.626 -12.919  0.00  0.00    +0.009 C 
BRANCH  20  21
ATOM     21  C   UNL     1       1.103   6.032 -14.250  0.00  0.00    +0.000 C 
ATOM     22  C   UNL     1       0.750   4.566 -14.270  0.00  0.00    +0.000 C 
ATOM     23  C   UNL     1       0.357   6.864 -15.237  0.00  0.00    +0.000 C 
ENDBRANCH  20  21
ENDBRANCH  10  20
TORSDOF 4
ENDMDL
MODEL 9
REMARK VINA RESULT:      -6.8      1.743      2.626
REMARK  Name = 
REMARK  4 active torsions:
REMARK  status: ('A' for Active; 'I' for Inactive)
REMARK    1  A    between atoms: O_2  and  C_3
REMARK    2  A    between atoms: C_8  and  O_9
REMARK    3  A    between atoms: C_15  and  C_16
REMARK    4  A    between atoms: C_16  and  C_17
REMARK                            x       y       z     vdW  Elec       q    Type
REMARK                         _______ _______ _______ _____ _____    ______ ____
ROOT
ATOM      1  C   UNL     1      -0.007   5.671  -4.266  0.00  0.00    +0.172 A 
ATOM      2  C   UNL     1      -0.165   6.799  -5.062  0.00  0.00    +0.172 A 
ATOM      3  C   UNL     1       0.966   7.149  -5.791  0.00  0.00    +0.037 A 
ATOM      4  C   UNL     1       2.025   6.259  -5.954  0.00  0.00    -0.008 A 
ATOM      5  C   UNL     1       2.702   6.583  -7.379  0.00  0.00    +0.087 C 
ATOM      6  N   UNL     1       1.900   5.465  -8.139  0.00  0.00    -0.269 NA
ATOM      7  C   UNL     1       2.254   4.187  -7.762  0.00  0.00    +0.077 C 
ATOM      8  C   UNL     1       2.520   3.887  -6.331  0.00  0.00    +0.044 C 
ATOM      9  C   UNL     1       2.362   5.761  -9.460  0.00  0.00    +0.080 C 
ATOM     10  C   UNL     1       3.757   4.956  -9.711  0.00  0.00    +0.074 C 
ATOM     11  C   UNL     1       4.550   5.712  -8.534  0.00  0.00    +0.153 C 
ATOM     12  O   UNL     1       5.755   5.509  -8.660  0.00  0.00    -0.296 OA
ATOM     13  C   UNL     1       4.001   5.603  -7.142  0.00  0.00    +0.085 C 
ATOM     14  C   UNL     1       1.916   4.992  -5.535  0.00  0.00    -0.020 A 
ATOM     15  C   UNL     1       0.973   4.725  -4.544  0.00  0.00    +0.036 A 
ENDROOT
BRANCH   1  17
ATOM     16  C   UNL     1      -0.740   5.469  -2.274  0.00  0.00    +0.253 C 
ATOM     17  O   UNL     1      -0.885   5.569  -3.186  0.00  0.00    -0.468 OA
ENDBRANCH   1  17
BRANCH   2  18
ATOM     18  O   UNL     1      -1.426   7.338  -5.330  0.00  0.00    -0.468 OA
ATOM     19  C   UNL     1      -1.926   8.418  -4.545  0.00  0.00    +0.253 C 
ENDBRANCH   2  18
BRANCH  10  20
ATOM     20  C   UNL     1       4.257   6.024 -10.846  0.00  0.00    +0.009 C 
BRANCH  20  21
ATOM     21  C   UNL     1       4.862   5.321 -11.989  0.00  0.00    +0.000 C 
ATOM     22  C   UNL     1       4.077   5.357 -13.276  0.00  0.00    +0.000 C 
ATOM     23  C   UNL     1       6.336   5.471 -12.156  0.00  0.00    +0.000 C 
ENDBRANCH  20  21
ENDBRANCH  10  20
TORSDOF 4
ENDMDL
