MODEL 1
REMARK VINA RESULT:      -5.4      0.000      0.000
REMARK  Name = 
REMARK  1 active torsions:
REMARK  status: ('A' for Active; 'I' for Inactive)
REMARK    1  A    between atoms: C_2  and  C_4
REMARK                            x       y       z     vdW  Elec       q    Type
REMARK                         _______ _______ _______ _____ _____    ______ ____
ROOT
ATOM      1  C   UNL     1       5.607   5.475 -10.343  0.00  0.00    +0.030 C 
ATOM      2  C   UNL     1       5.413   7.121 -10.771  0.00  0.00    +0.152 C 
ATOM      3  O   UNL     1       5.082   6.837 -12.227  0.00  0.00    -0.223 OA
ATOM      4  C   UNL     1       6.941   7.503 -11.079  0.00  0.00    +0.033 C 
ATOM      5  C   UNL     1       7.944   6.348 -11.545  0.00  0.00    +0.003 C 
ATOM      6  C   UNL     1       6.945   5.315 -12.339  0.00  0.00    +0.000 C 
ATOM      7  C   UNL     1       7.936   5.501 -10.145  0.00  0.00    +0.000 C 
ATOM      8  C   UNL     1       6.805   5.821  -9.318  0.00  0.00    +0.003 C 
ENDROOT
BRANCH   1  10
ATOM      9  C   UNL     1       3.248   4.999  -9.689  0.00  0.00    +0.000 C 
ATOM     10  C   UNL     1       4.456   5.587  -9.224  0.00  0.00    +0.002 C 
ATOM     11  C   UNL     1       4.967   5.398  -7.883  0.00  0.00    +0.000 C 
ENDBRANCH   1  10
TORSDOF 1
ENDMDL
MODEL 2
REMARK VINA RESULT:      -5.3      5.915      7.823
REMARK  Name = 
REMARK  1 active torsions:
REMARK  status: ('A' for Active; 'I' for Inactive)
REMARK    1  A    between atoms: C_2  and  C_4
REMARK                            x       y       z     vdW  Elec       q    Type
REMARK                         _______ _______ _______ _____ _____    ______ ____
ROOT
ATOM      1  C   UNL     1      -0.285   6.475  -6.016  0.00  0.00    +0.030 C 
ATOM      2  C   UNL     1       0.279   5.270  -4.940  0.00  0.00    +0.152 C 
ATOM      3  O   UNL     1       1.373   6.137  -4.338  0.00  0.00    -0.223 OA
ATOM      4  C   UNL     1       1.286   4.486  -5.914  0.00  0.00    +0.033 C 
ATOM      5  C   UNL     1       1.947   5.278  -7.136  0.00  0.00    +0.003 C 
ATOM      6  C   UNL     1       2.039   6.809  -6.553  0.00  0.00    +0.000 C 
ATOM      7  C   UNL     1       0.566   5.532  -7.978  0.00  0.00    +0.000 C 
ATOM      8  C   UNL     1      -0.607   5.386  -7.163  0.00  0.00    +0.003 C 
ENDROOT
BRANCH   1  10
ATOM      9  C   UNL     1      -2.075   7.643  -4.732  0.00  0.00    +0.000 C 
ATOM     10  C   UNL     1      -1.760   6.416  -5.376  0.00  0.00    +0.002 C 
ATOM     11  C   UNL     1      -2.697   5.692  -6.209  0.00  0.00    +0.000 C 
ENDBRANCH   1  10
TORSDOF 1
ENDMDL
MODEL 3
REMARK VINA RESULT:      -5.2      6.665      8.985
REMARK  Name = 
REMARK  1 active torsions:
REMARK  status: ('A' for Active; 'I' for Inactive)
REMARK    1  A    between atoms: C_2  and  C_4
REMARK                            x       y       z     vdW  Elec       q    Type
REMARK                         _______ _______ _______ _____ _____    ______ ____
ROOT
ATOM      1  C   UNL     1      -0.305   5.283  -5.514  0.00  0.00    +0.030 C 
ATOM      2  C   UNL     1       0.193   6.871  -5.113  0.00  0.00    +0.152 C 
ATOM      3  O   UNL     1       0.394   6.573  -3.636  0.00  0.00    -0.223 OA
ATOM      4  C   UNL     1      -1.241   7.557  -4.891  0.00  0.00    +0.033 C 
ATOM      5  C   UNL     1      -2.473   6.639  -4.452  0.00  0.00    +0.003 C 
ATOM      6  C   UNL     1      -1.738   5.454  -3.586  0.00  0.00    +0.000 C 
ATOM      7  C   UNL     1      -2.570   5.763  -5.831  0.00  0.00    +0.000 C 
ATOM      8  C   UNL     1      -1.363   5.826  -6.606  0.00  0.00    +0.003 C 
ENDROOT
BRANCH   1  10
ATOM      9  C   UNL     1       1.736   4.039  -6.224  0.00  0.00    +0.000 C 
ATOM     10  C   UNL     1       0.896   5.130  -6.575  0.00  0.00    +0.002 C 
ATOM     11  C   UNL     1       0.473   5.404  -7.932  0.00  0.00    +0.000 C 
ENDBRANCH   1  10
TORSDOF 1
ENDMDL
MODEL 4
REMARK VINA RESULT:      -5.2      1.348      3.808
REMARK  Name = 
REMARK  1 active torsions:
REMARK  status: ('A' for Active; 'I' for Inactive)
REMARK    1  A    between atoms: C_2  and  C_4
REMARK                            x       y       z     vdW  Elec       q    Type
REMARK                         _______ _______ _______ _____ _____    ______ ____
ROOT
ATOM      1  C   UNL     1       5.162   6.521  -9.628  0.00  0.00    +0.030 C 
ATOM      2  C   UNL     1       4.351   5.375 -10.607  0.00  0.00    +0.152 C 
ATOM      3  O   UNL     1       3.174   6.285 -10.922  0.00  0.00    -0.223 OA
ATOM      4  C   UNL     1       3.559   4.562  -9.472  0.00  0.00    +0.033 C 
ATOM      5  C   UNL     1       3.195   5.306  -8.104  0.00  0.00    +0.003 C 
ATOM      6  C   UNL     1       3.017   6.864  -8.589  0.00  0.00    +0.000 C 
ATOM      7  C   UNL     1       4.730   5.501  -7.570  0.00  0.00    +0.000 C 
ATOM      8  C   UNL     1       5.697   5.375  -8.625  0.00  0.00    +0.003 C 
ENDROOT
BRANCH   1  10
ATOM      9  C   UNL     1       6.625   7.699 -11.268  0.00  0.00    +0.000 C 
ATOM     10  C   UNL     1       6.464   6.469 -10.574  0.00  0.00    +0.002 C 
ATOM     11  C   UNL     1       7.562   5.750  -9.965  0.00  0.00    +0.000 C 
ENDBRANCH   1  10
TORSDOF 1
ENDMDL
MODEL 5
REMARK VINA RESULT:      -5.2      1.684      2.394
REMARK  Name = 
REMARK  1 active torsions:
REMARK  status: ('A' for Active; 'I' for Inactive)
REMARK    1  A    between atoms: C_2  and  C_4
REMARK                            x       y       z     vdW  Elec       q    Type
REMARK                         _______ _______ _______ _____ _____    ______ ____
ROOT
ATOM      1  C   UNL     1       5.727   5.613 -11.704  0.00  0.00    +0.030 C 
ATOM      2  C   UNL     1       6.158   7.194 -12.198  0.00  0.00    +0.152 C 
ATOM      3  O   UNL     1       7.368   6.751 -13.005  0.00  0.00    -0.223 OA
ATOM      4  C   UNL     1       7.033   7.645 -10.930  0.00  0.00    +0.033 C 
ATOM      5  C   UNL     1       7.760   6.520 -10.058  0.00  0.00    +0.003 C 
ATOM      6  C   UNL     1       8.061   5.352 -11.171  0.00  0.00    +0.000 C 
ATOM      7  C   UNL     1       6.404   5.811  -9.476  0.00  0.00    +0.000 C 
ATOM      8  C   UNL     1       5.241   6.133 -10.255  0.00  0.00    +0.003 C 
ENDROOT
BRANCH   1  10
ATOM      9  C   UNL     1       4.190   4.970 -13.559  0.00  0.00    +0.000 C 
ATOM     10  C   UNL     1       4.272   5.755 -12.377  0.00  0.00    +0.002 C 
ATOM     11  C   UNL     1       3.211   5.824 -11.394  0.00  0.00    +0.000 C 
ENDBRANCH   1  10
TORSDOF 1
ENDMDL
MODEL 6
REMARK VINA RESULT:      -5.0      7.045      9.336
REMARK  Name = 
REMARK  1 active torsions:
REMARK  status: ('A' for Active; 'I' for Inactive)
REMARK    1  A    between atoms: C_2  and  C_4
REMARK                            x       y       z     vdW  Elec       q    Type
REMARK                         _______ _______ _______ _____ _____    ______ ____
ROOT
ATOM      1  C   UNL     1      -0.655   6.234  -5.632  0.00  0.00    +0.030 C 
ATOM      2  C   UNL     1      -2.175   5.448  -5.657  0.00  0.00    +0.152 C 
ATOM      3  O   UNL     1      -2.930   6.645  -6.213  0.00  0.00    -0.223 OA
ATOM      4  C   UNL     1      -2.644   5.716  -4.146  0.00  0.00    +0.033 C 
ATOM      5  C   UNL     1      -2.072   6.996  -3.378  0.00  0.00    +0.003 C 
ATOM      6  C   UNL     1      -1.835   8.063  -4.603  0.00  0.00    +0.000 C 
ATOM      7  C   UNL     1      -0.510   6.509  -3.316  0.00  0.00    +0.000 C 
ATOM      8  C   UNL     1      -0.220   5.479  -4.274  0.00  0.00    +0.003 C 
ENDROOT
BRANCH   1  10
ATOM      9  C   UNL     1       0.083   5.609  -7.931  0.00  0.00    +0.000 C 
ATOM     10  C   UNL     1      -0.015   5.118  -6.600  0.00  0.00    +0.002 C 
ATOM     11  C   UNL     1       1.033   4.359  -5.953  0.00  0.00    +0.000 C 
ENDBRANCH   1  10
TORSDOF 1
ENDMDL
MODEL 7
REMARK VINA RESULT:      -4.8      1.500      2.501
REMARK  Name = 
REMARK  1 active torsions:
REMARK  status: ('A' for Active; 'I' for Inactive)
REMARK    1  A    between atoms: C_2  and  C_4
REMARK                            x       y       z     vdW  Elec       q    Type
REMARK                         _______ _______ _______ _____ _____    ______ ____
ROOT
ATOM      1  C   UNL     1       5.453   6.247  -9.973  0.00  0.00    +0.030 C 
ATOM      2  C   UNL     1       7.003   5.523  -9.993  0.00  0.00    +0.152 C 
ATOM      3  O   UNL     1       7.744   6.795  -9.612  0.00  0.00    -0.223 OA
ATOM      4  C   UNL     1       7.347   5.661 -11.555  0.00  0.00    +0.033 C 
ATOM      5  C   UNL     1       6.664   6.840 -12.391  0.00  0.00    +0.003 C 
ATOM      6  C   UNL     1       6.473   8.011 -11.257  0.00  0.00    +0.000 C 
ATOM      7  C   UNL     1       5.125   6.293 -12.287  0.00  0.00    +0.000 C 
ATOM      8  C   UNL     1       4.951   5.349 -11.217  0.00  0.00    +0.003 C 
ENDROOT
BRANCH   1  10
ATOM      9  C   UNL     1       4.965   5.802  -7.568  0.00  0.00    +0.000 C 
ATOM     10  C   UNL     1       4.936   5.207  -8.858  0.00  0.00    +0.002 C 
ATOM     11  C   UNL     1       3.840   4.388  -9.331  0.00  0.00    +0.000 C 
ENDBRANCH   1  10
TORSDOF 1
ENDMDL
MODEL 8
REMARK VINA RESULT:      -4.8      5.677      6.910
REMARK  Name = 
REMARK  1 active torsions:
REMARK  status: ('A' for Active; 'I' for Inactive)
REMARK    1  A    between atoms: C_2  and  C_4
REMARK                            x       y       z     vdW  Elec       q    Type
REMARK                         _______ _______ _______ _____ _____    ______ ____
ROOT
ATOM      1  C   UNL     1       0.711   6.067  -6.284  0.00  0.00    +0.030 C 
ATOM      2  C   UNL     1       1.328   4.539  -5.819  0.00  0.00    +0.152 C 
ATOM      3  O   UNL     1       1.116   4.763  -4.330  0.00  0.00    -0.223 OA
ATOM      4  C   UNL     1       2.894   4.886  -5.759  0.00  0.00    +0.033 C 
ATOM      5  C   UNL     1       3.338   6.394  -5.470  0.00  0.00    +0.003 C 
ATOM      6  C   UNL     1       2.110   6.948  -4.533  0.00  0.00    +0.000 C 
ATOM      7  C   UNL     1       2.757   7.042  -6.857  0.00  0.00    +0.000 C 
ATOM      8  C   UNL     1       1.780   6.199  -7.487  0.00  0.00    +0.003 C 
ENDROOT
BRANCH   1  10
ATOM      9  C   UNL     1      -1.706   5.565  -6.631  0.00  0.00    +0.000 C 
ATOM     10  C   UNL     1      -0.418   5.378  -7.201  0.00  0.00    +0.002 C 
ATOM     11  C   UNL     1      -0.146   5.522  -8.615  0.00  0.00    +0.000 C 
ENDBRANCH   1  10
TORSDOF 1
ENDMDL
MODEL 9
REMARK VINA RESULT:      -4.8      3.718      5.319
REMARK  Name = 
REMARK  1 active torsions:
REMARK  status: ('A' for Active; 'I' for Inactive)
REMARK    1  A    between atoms: C_2  and  C_4
REMARK                            x       y       z     vdW  Elec       q    Type
REMARK                         _______ _______ _______ _____ _____    ______ ____
ROOT
ATOM      1  C   UNL     1       1.313   5.480  -8.897  0.00  0.00    +0.030 C 
ATOM      2  C   UNL     1       2.851   4.966  -9.445  0.00  0.00    +0.152 C 
ATOM      3  O   UNL     1       2.841   3.666  -8.655  0.00  0.00    -0.223 OA
ATOM      4  C   UNL     1       3.786   5.729  -8.386  0.00  0.00    +0.033 C 
ATOM      5  C   UNL     1       3.185   6.088  -6.948  0.00  0.00    +0.003 C 
ATOM      6  C   UNL     1       2.107   4.875  -6.705  0.00  0.00    +0.000 C 
ATOM      7  C   UNL     1       2.067   7.167  -7.464  0.00  0.00    +0.000 C 
ATOM      8  C   UNL     1       1.776   7.027  -8.864  0.00  0.00    +0.003 C 
ENDROOT
BRANCH   1  10
ATOM      9  C   UNL     1      -0.004   4.392 -10.713  0.00  0.00    +0.000 C 
ATOM     10  C   UNL     1       0.754   5.554 -10.404  0.00  0.00    +0.002 C 
ATOM     11  C   UNL     1       0.348   6.892 -10.779  0.00  0.00    +0.000 C 
ENDBRANCH   1  10
TORSDOF 1
ENDMDL
