MODEL 1
REMARK VINA RESULT:      -9.9      0.000      0.000
REMARK  Name = 
REMARK  6 active torsions:
REMARK  status: ('A' for Active; 'I' for Inactive)
REMARK    1  A    between atoms: O_2  and  C_3
REMARK    2  A    between atoms: C_4  and  C_5
REMARK    3  A    between atoms: C_10  and  N_11
REMARK    4  A    between atoms: N_11  and  S_12
REMARK    5  A    between atoms: C_21  and  N_22
REMARK    6  A    between atoms: C_31  and  C_32
REMARK                            x       y       z     vdW  Elec       q    Type
REMARK                         _______ _______ _______ _____ _____    ______ ____
ROOT
ATOM      1  C   UNL     1       1.150   6.273  -5.534  0.00  0.00    +0.135 A 
ATOM      2  C   UNL     1       0.155   6.383  -4.571  0.00  0.00    +0.013 A 
ATOM      3  C   UNL     1       0.587   6.293  -3.261  0.00  0.00    +0.016 A 
ATOM      4  C   UNL     1       1.929   6.116  -2.946  0.00  0.00    +0.068 A 
ATOM      5  C   UNL     1       2.753   5.615  -3.946  0.00  0.00    +0.021 A 
ATOM      6  C   UNL     1       2.372   5.673  -5.270  0.00  0.00    +0.035 A 
ENDROOT
BRANCH   6   7
ATOM      7  C   UNL     1       3.101   4.970  -6.333  0.00  0.00    +0.003 A 
ATOM      8  C   UNL     1       4.376   5.317  -6.712  0.00  0.00    +0.000 A 
ATOM      9  C   UNL     1       4.824   5.011  -7.991  0.00  0.00    +0.000 A 
ATOM     10  C   UNL     1       3.975   4.488  -8.958  0.00  0.00    +0.001 A 
ATOM     11  C   UNL     1       4.057   4.937 -10.270  0.00  0.00    +0.018 A 
ATOM     12  C   UNL     1       5.117   5.747 -10.662  0.00  0.00    +0.091 A 
ATOM     13  C   UNL     1       6.197   5.771  -9.789  0.00  0.00    +0.018 A 
ATOM     14  C   UNL     1       2.830   3.869  -8.475  0.00  0.00    +0.000 A 
ATOM     15  C   UNL     1       6.068   5.415  -8.452  0.00  0.00    +0.001 A 
ATOM     16  C   UNL     1       2.438   4.067  -7.156  0.00  0.00    +0.000 A 
BRANCH  12  17
ATOM     17  N   UNL     1       5.015   6.650 -11.751  0.00  0.00    -0.101 NA
BRANCH  17  18
ATOM     18  S   UNL     1       5.351   6.089 -13.340  0.00  0.00    +0.075 S 
ATOM     19  O   UNL     1       6.150   7.144 -14.059  0.00  0.00    -0.153 OA
ATOM     20  O   UNL     1       6.219   4.851 -13.315  0.00  0.00    -0.153 OA
ATOM     21  C   UNL     1       3.864   5.809 -14.247  0.00  0.00    +0.202 C 
ENDBRANCH  17  18
ENDBRANCH  12  17
ENDBRANCH   6   7
BRANCH   4  22
ATOM     22  N   UNL     1       2.420   6.387  -1.634  0.00  0.00    -0.257 N 
ATOM     23  C   UNL     1       3.063   5.438  -0.911  0.00  0.00    +0.357 A 
ATOM     24  O   UNL     1       2.775   4.236  -1.187  0.00  0.00    -0.244 OA
ATOM     25  N   UNL     1       4.120   5.747  -0.121  0.00  0.00    -0.153 NA
ATOM     26  C   UNL     1       4.537   7.031   0.004  0.00  0.00    +0.285 A 
ATOM     27  O   UNL     1       5.777   7.291   0.061  0.00  0.00    -0.265 OA
ATOM     28  C   UNL     1       3.600   7.994  -0.348  0.00  0.00    +0.082 A 
ATOM     29  C   UNL     1       2.543   7.655  -1.174  0.00  0.00    +0.089 A 
ENDBRANCH   4  22
BRANCH   2  30
ATOM     30  C   UNL     1      -1.292   6.342  -4.944  0.00  0.00    +0.022 C 
ATOM     31  C   UNL     1      -1.845   7.760  -5.019  0.00  0.00    +0.004 C 
ATOM     32  C   UNL     1      -2.024   5.586  -3.850  0.00  0.00    +0.004 C 
ATOM     33  C   UNL     1      -1.498   5.586  -6.228  0.00  0.00    +0.004 C 
ENDBRANCH   2  30
BRANCH   1  35
ATOM     34  C   UNL     1       1.725   7.704  -7.349  0.00  0.00    +0.252 C 
ATOM     35  O   UNL     1       0.867   6.698  -6.817  0.00  0.00    -0.472 OA
ENDBRANCH   1  35
TORSDOF 6
ENDMDL
MODEL 2
REMARK VINA RESULT:      -9.7      1.250      1.449
REMARK  Name = 
REMARK  6 active torsions:
REMARK  status: ('A' for Active; 'I' for Inactive)
REMARK    1  A    between atoms: O_2  and  C_3
REMARK    2  A    between atoms: C_4  and  C_5
REMARK    3  A    between atoms: C_10  and  N_11
REMARK    4  A    between atoms: N_11  and  S_12
REMARK    5  A    between atoms: C_21  and  N_22
REMARK    6  A    between atoms: C_31  and  C_32
REMARK                            x       y       z     vdW  Elec       q    Type
REMARK                         _______ _______ _______ _____ _____    ______ ____
ROOT
ATOM      1  C   UNL     1       1.383   6.405  -5.749  0.00  0.00    +0.135 A 
ATOM      2  C   UNL     1       0.449   6.527  -4.728  0.00  0.00    +0.013 A 
ATOM      3  C   UNL     1       0.974   6.584  -3.450  0.00  0.00    +0.016 A 
ATOM      4  C   UNL     1       2.343   6.532  -3.221  0.00  0.00    +0.068 A 
ATOM      5  C   UNL     1       3.135   6.007  -4.233  0.00  0.00    +0.021 A 
ATOM      6  C   UNL     1       2.663   5.920  -5.527  0.00  0.00    +0.035 A 
ENDROOT
BRANCH   6   7
ATOM      7  C   UNL     1       3.372   5.181  -6.578  0.00  0.00    +0.003 A 
ATOM      8  C   UNL     1       4.661   5.477  -6.952  0.00  0.00    +0.000 A 
ATOM      9  C   UNL     1       5.105   5.143  -8.225  0.00  0.00    +0.000 A 
ATOM     10  C   UNL     1       4.244   4.642  -9.193  0.00  0.00    +0.001 A 
ATOM     11  C   UNL     1       4.350   5.076 -10.509  0.00  0.00    +0.018 A 
ATOM     12  C   UNL     1       5.442   5.842 -10.902  0.00  0.00    +0.091 A 
ATOM     13  C   UNL     1       6.516   5.834 -10.021  0.00  0.00    +0.018 A 
ATOM     14  C   UNL     1       3.073   4.071  -8.712  0.00  0.00    +0.000 A 
ATOM     15  C   UNL     1       6.366   5.496  -8.682  0.00  0.00    +0.001 A 
ATOM     16  C   UNL     1       2.681   4.296  -7.398  0.00  0.00    +0.000 A 
BRANCH  12  17
ATOM     17  N   UNL     1       5.380   6.739 -11.999  0.00  0.00    -0.101 NA
BRANCH  17  18
ATOM     18  S   UNL     1       5.505   6.118 -13.596  0.00  0.00    +0.075 S 
ATOM     19  O   UNL     1       6.201   7.142 -14.453  0.00  0.00    -0.153 OA
ATOM     20  O   UNL     1       6.370   4.878 -13.639  0.00  0.00    -0.153 OA
ATOM     21  C   UNL     1       3.912   5.810 -14.289  0.00  0.00    +0.202 C 
ENDBRANCH  17  18
ENDBRANCH  12  17
ENDBRANCH   6   7
BRANCH   4  22
ATOM     22  N   UNL     1       2.898   6.952  -1.975  0.00  0.00    -0.257 N 
ATOM     23  C   UNL     1       3.740   8.012  -1.899  0.00  0.00    +0.357 A 
ATOM     24  O   UNL     1       4.398   8.278  -2.948  0.00  0.00    -0.244 OA
ATOM     25  N   UNL     1       3.696   8.875  -0.855  0.00  0.00    -0.153 NA
ATOM     26  C   UNL     1       2.835   8.675   0.173  0.00  0.00    +0.285 A 
ATOM     27  O   UNL     1       2.247   9.662   0.707  0.00  0.00    -0.265 OA
ATOM     28  C   UNL     1       2.352   7.378   0.294  0.00  0.00    +0.082 A 
ATOM     29  C   UNL     1       2.389   6.525  -0.795  0.00  0.00    +0.089 A 
ENDBRANCH   4  22
BRANCH   2  30
ATOM     30  C   UNL     1      -1.012   6.350  -4.989  0.00  0.00    +0.022 C 
ATOM     31  C   UNL     1      -1.693   7.712  -5.052  0.00  0.00    +0.004 C 
ATOM     32  C   UNL     1      -1.592   5.563  -3.828  0.00  0.00    +0.004 C 
ATOM     33  C   UNL     1      -1.244   5.544  -6.238  0.00  0.00    +0.004 C 
ENDBRANCH   2  30
BRANCH   1  35
ATOM     34  C   UNL     1       1.721   7.711  -7.712  0.00  0.00    +0.252 C 
ATOM     35  O   UNL     1       0.982   6.694  -7.039  0.00  0.00    -0.472 OA
ENDBRANCH   1  35
TORSDOF 6
ENDMDL
MODEL 3
REMARK VINA RESULT:      -9.2      3.858     10.157
REMARK  Name = 
REMARK  6 active torsions:
REMARK  status: ('A' for Active; 'I' for Inactive)
REMARK    1  A    between atoms: O_2  and  C_3
REMARK    2  A    between atoms: C_4  and  C_5
REMARK    3  A    between atoms: C_10  and  N_11
REMARK    4  A    between atoms: N_11  and  S_12
REMARK    5  A    between atoms: C_21  and  N_22
REMARK    6  A    between atoms: C_31  and  C_32
REMARK                            x       y       z     vdW  Elec       q    Type
REMARK                         _______ _______ _______ _____ _____    ______ ____
ROOT
ATOM      1  C   UNL     1       3.102   6.315  -9.699  0.00  0.00    +0.135 A 
ATOM      2  C   UNL     1       3.986   6.420 -10.765  0.00  0.00    +0.013 A 
ATOM      3  C   UNL     1       3.404   6.430 -12.019  0.00  0.00    +0.016 A 
ATOM      4  C   UNL     1       2.027   6.350 -12.183  0.00  0.00    +0.068 A 
ATOM      5  C   UNL     1       1.290   5.844 -11.120  0.00  0.00    +0.021 A 
ATOM      6  C   UNL     1       1.822   5.804  -9.848  0.00  0.00    +0.035 A 
ENDROOT
BRANCH   6   7
ATOM      7  C   UNL     1       1.174   5.086  -8.743  0.00  0.00    +0.003 A 
ATOM      8  C   UNL     1      -0.115   5.347  -8.344  0.00  0.00    +0.000 A 
ATOM      9  C   UNL     1      -0.509   5.055  -7.045  0.00  0.00    +0.000 A 
ATOM     10  C   UNL     1       0.399   4.633  -6.082  0.00  0.00    +0.001 A 
ATOM     11  C   UNL     1       0.312   5.123  -4.784  0.00  0.00    +0.018 A 
ATOM     12  C   UNL     1      -0.798   5.862  -4.393  0.00  0.00    +0.091 A 
ATOM     13  C   UNL     1      -1.896   5.771  -5.240  0.00  0.00    +0.018 A 
ATOM     14  C   UNL     1       1.579   4.087  -6.572  0.00  0.00    +0.000 A 
ATOM     15  C   UNL     1      -1.770   5.378  -6.566  0.00  0.00    +0.001 A 
ATOM     16  C   UNL     1       1.923   4.267  -7.906  0.00  0.00    +0.000 A 
BRANCH  12  17
ATOM     17  N   UNL     1      -0.741   6.810  -3.339  0.00  0.00    -0.101 NA
BRANCH  17  18
ATOM     18  S   UNL     1      -1.256   6.346  -1.767  0.00  0.00    +0.075 S 
ATOM     19  O   UNL     1      -2.143   7.431  -1.216  0.00  0.00    -0.153 OA
ATOM     20  O   UNL     1      -2.103   5.093  -1.811  0.00  0.00    -0.153 OA
ATOM     21  C   UNL     1       0.117   6.150  -0.678  0.00  0.00    +0.202 C 
ENDBRANCH  17  18
ENDBRANCH  12  17
ENDBRANCH   6   7
BRANCH   4  22
ATOM     22  N   UNL     1       1.408   6.724 -13.414  0.00  0.00    -0.257 N 
ATOM     23  C   UNL     1       0.502   7.729 -13.472  0.00  0.00    +0.357 A 
ATOM     24  O   UNL     1      -0.139   7.965 -12.405  0.00  0.00    -0.244 OA
ATOM     25  N   UNL     1       0.460   8.584 -14.523  0.00  0.00    -0.153 NA
ATOM     26  C   UNL     1       1.299   8.426 -15.576  0.00  0.00    +0.285 A 
ATOM     27  O   UNL     1       1.810   9.442 -16.136  0.00  0.00    -0.265 OA
ATOM     28  C   UNL     1       1.857   7.160 -15.703  0.00  0.00    +0.082 A 
ATOM     29  C   UNL     1       1.906   6.317 -14.606  0.00  0.00    +0.089 A 
ENDBRANCH   4  22
BRANCH   2  30
ATOM     30  C   UNL     1       5.461   6.274 -10.566  0.00  0.00    +0.022 C 
ATOM     31  C   UNL     1       6.133   7.638 -10.669  0.00  0.00    +0.004 C 
ATOM     32  C   UNL     1       5.985   5.382 -11.677  0.00  0.00    +0.004 C 
ATOM     33  C   UNL     1       5.765   5.590  -9.260  0.00  0.00    +0.004 C 
ENDBRANCH   2  30
BRANCH   1  35
ATOM     34  C   UNL     1       2.800   7.636  -7.740  0.00  0.00    +0.252 C 
ATOM     35  O   UNL     1       3.556   6.649  -8.438  0.00  0.00    -0.472 OA
ENDBRANCH   1  35
TORSDOF 6
ENDMDL
MODEL 4
REMARK VINA RESULT:      -8.8      2.385      4.130
REMARK  Name = 
REMARK  6 active torsions:
REMARK  status: ('A' for Active; 'I' for Inactive)
REMARK    1  A    between atoms: O_2  and  C_3
REMARK    2  A    between atoms: C_4  and  C_5
REMARK    3  A    between atoms: C_10  and  N_11
REMARK    4  A    between atoms: N_11  and  S_12
REMARK    5  A    between atoms: C_21  and  N_22
REMARK    6  A    between atoms: C_31  and  C_32
REMARK                            x       y       z     vdW  Elec       q    Type
REMARK                         _______ _______ _______ _____ _____    ______ ____
ROOT
ATOM      1  C   UNL     1       3.014   6.273  -4.582  0.00  0.00    +0.135 A 
ATOM      2  C   UNL     1       2.989   6.805  -3.300  0.00  0.00    +0.013 A 
ATOM      3  C   UNL     1       1.736   6.890  -2.719  0.00  0.00    +0.016 A 
ATOM      4  C   UNL     1       0.594   6.459  -3.382  0.00  0.00    +0.068 A 
ATOM      5  C   UNL     1       0.671   6.340  -4.764  0.00  0.00    +0.021 A 
ATOM      6  C   UNL     1       1.893   6.256  -5.399  0.00  0.00    +0.035 A 
ENDROOT
BRANCH   6   7
ATOM      7  C   UNL     1       2.033   6.347  -6.857  0.00  0.00    +0.003 A 
ATOM      8  C   UNL     1       2.443   5.287  -7.630  0.00  0.00    +0.000 A 
ATOM      9  C   UNL     1       3.042   5.520  -8.861  0.00  0.00    +0.000 A 
ATOM     10  C   UNL     1       3.374   6.802  -9.282  0.00  0.00    +0.001 A 
ATOM     11  C   UNL     1       4.581   7.027  -9.933  0.00  0.00    +0.018 A 
ATOM     12  C   UNL     1       5.357   5.953 -10.351  0.00  0.00    +0.091 A 
ATOM     13  C   UNL     1       4.701   4.728 -10.382  0.00  0.00    +0.018 A 
ATOM     14  C   UNL     1       2.684   7.833  -8.657  0.00  0.00    +0.000 A 
ATOM     15  C   UNL     1       3.551   4.492  -9.640  0.00  0.00    +0.001 A 
ATOM     16  C   UNL     1       1.975   7.584  -7.489  0.00  0.00    +0.000 A 
BRANCH  12  17
ATOM     17  N   UNL     1       6.762   6.054 -10.517  0.00  0.00    -0.101 NA
BRANCH  17  18
ATOM     18  S   UNL     1       7.428   5.959 -12.098  0.00  0.00    +0.075 S 
ATOM     19  O   UNL     1       8.852   6.445 -12.046  0.00  0.00    -0.153 OA
ATOM     20  O   UNL     1       7.490   4.529 -12.585  0.00  0.00    -0.153 OA
ATOM     21  C   UNL     1       6.538   6.980 -13.228  0.00  0.00    +0.202 C 
ENDBRANCH  17  18
ENDBRANCH  12  17
ENDBRANCH   6   7
BRANCH   4  22
ATOM     22  N   UNL     1      -0.618   6.204  -2.673  0.00  0.00    -0.257 N 
ATOM     23  C   UNL     1      -0.636   5.426  -1.563  0.00  0.00    +0.357 A 
ATOM     24  O   UNL     1       0.283   4.559  -1.475  0.00  0.00    -0.244 OA
ATOM     25  N   UNL     1      -1.432   5.720  -0.507  0.00  0.00    -0.153 NA
ATOM     26  C   UNL     1      -2.274   6.782  -0.550  0.00  0.00    +0.285 A 
ATOM     27  O   UNL     1      -2.442   7.498   0.482  0.00  0.00    -0.265 OA
ATOM     28  C   UNL     1      -2.571   7.249  -1.825  0.00  0.00    +0.082 A 
ATOM     29  C   UNL     1      -1.728   6.951  -2.880  0.00  0.00    +0.089 A 
ENDBRANCH   4  22
BRANCH   2  30
ATOM     30  C   UNL     1       4.193   7.465  -2.710  0.00  0.00    +0.022 C 
ATOM     31  C   UNL     1       4.899   6.500  -1.765  0.00  0.00    +0.004 C 
ATOM     32  C   UNL     1       3.714   8.667  -1.917  0.00  0.00    +0.004 C 
ATOM     33  C   UNL     1       5.111   7.975  -3.787  0.00  0.00    +0.004 C 
ENDBRANCH   2  30
BRANCH   1  35
ATOM     34  C   UNL     1       4.588   4.493  -4.752  0.00  0.00    +0.252 C 
ATOM     35  O   UNL     1       4.223   5.832  -5.082  0.00  0.00    -0.472 OA
ENDBRANCH   1  35
TORSDOF 6
ENDMDL
MODEL 5
REMARK VINA RESULT:      -8.5      3.489      9.059
REMARK  Name = 
REMARK  6 active torsions:
REMARK  status: ('A' for Active; 'I' for Inactive)
REMARK    1  A    between atoms: O_2  and  C_3
REMARK    2  A    between atoms: C_4  and  C_5
REMARK    3  A    between atoms: C_10  and  N_11
REMARK    4  A    between atoms: N_11  and  S_12
REMARK    5  A    between atoms: C_21  and  N_22
REMARK    6  A    between atoms: C_31  and  C_32
REMARK                            x       y       z     vdW  Elec       q    Type
REMARK                         _______ _______ _______ _____ _____    ______ ____
ROOT
ATOM      1  C   UNL     1       2.253   5.695 -10.100  0.00  0.00    +0.135 A 
ATOM      2  C   UNL     1       2.045   5.770 -11.471  0.00  0.00    +0.013 A 
ATOM      3  C   UNL     1       3.142   6.166 -12.215  0.00  0.00    +0.016 A 
ATOM      4  C   UNL     1       4.362   6.454 -11.617  0.00  0.00    +0.068 A 
ATOM      5  C   UNL     1       4.350   6.745 -10.259  0.00  0.00    +0.021 A 
ATOM      6  C   UNL     1       3.280   6.379  -9.468  0.00  0.00    +0.035 A 
ENDROOT
BRANCH   6   7
ATOM      7  C   UNL     1       3.122   6.849  -8.087  0.00  0.00    +0.003 A 
ATOM      8  C   UNL     1       3.568   6.131  -7.003  0.00  0.00    +0.000 A 
ATOM      9  C   UNL     1       2.980   6.320  -5.759  0.00  0.00    +0.000 A 
ATOM     10  C   UNL     1       1.852   7.115  -5.596  0.00  0.00    +0.001 A 
ATOM     11  C   UNL     1       0.830   6.704  -4.749  0.00  0.00    +0.018 A 
ATOM     12  C   UNL     1       1.021   5.615  -3.907  0.00  0.00    +0.091 A 
ATOM     13  C   UNL     1       2.344   5.225  -3.737  0.00  0.00    +0.018 A 
ATOM     14  C   UNL     1       1.628   8.047  -6.601  0.00  0.00    +0.000 A 
ATOM     15  C   UNL     1       3.332   5.561  -4.654  0.00  0.00    +0.001 A 
ATOM     16  C   UNL     1       2.307   7.941  -7.809  0.00  0.00    +0.000 A 
BRANCH  12  17
ATOM     17  N   UNL     1      -0.059   4.824  -3.437  0.00  0.00    -0.101 NA
BRANCH  17  18
ATOM     18  S   UNL     1      -1.600   5.553  -3.225  0.00  0.00    +0.075 S 
ATOM     19  O   UNL     1      -2.428   4.667  -2.332  0.00  0.00    -0.153 OA
ATOM     20  O   UNL     1      -1.489   6.881  -2.511  0.00  0.00    -0.153 OA
ATOM     21  C   UNL     1      -2.442   5.726  -4.765  0.00  0.00    +0.202 C 
ENDBRANCH  17  18
ENDBRANCH  12  17
ENDBRANCH   6   7
BRANCH   4  22
ATOM     22  N   UNL     1       5.565   6.500 -12.384  0.00  0.00    -0.257 N 
ATOM     23  C   UNL     1       6.552   7.384 -12.096  0.00  0.00    +0.357 A 
ATOM     24  O   UNL     1       6.193   8.449 -11.511  0.00  0.00    -0.244 OA
ATOM     25  N   UNL     1       7.859   7.043 -12.203  0.00  0.00    -0.153 NA
ATOM     26  C   UNL     1       8.219   5.815 -12.650  0.00  0.00    +0.285 A 
ATOM     27  O   UNL     1       9.203   5.214 -12.124  0.00  0.00    -0.265 OA
ATOM     28  C   UNL     1       7.240   5.135 -13.364  0.00  0.00    +0.082 A 
ATOM     29  C   UNL     1       5.911   5.491 -13.218  0.00  0.00    +0.089 A 
ENDBRANCH   4  22
BRANCH   2  30
ATOM     30  C   UNL     1       0.671   5.677 -12.053  0.00  0.00    +0.022 C 
ATOM     31  C   UNL     1       0.104   4.283 -11.814  0.00  0.00    +0.004 C 
ATOM     32  C   UNL     1       0.792   5.910 -13.548  0.00  0.00    +0.004 C 
ATOM     33  C   UNL     1      -0.223   6.754 -11.501  0.00  0.00    +0.004 C 
ENDBRANCH   2  30
BRANCH   1  35
ATOM     34  C   UNL     1       1.826   3.776  -8.755  0.00  0.00    +0.252 C 
ATOM     35  O   UNL     1       1.345   4.983  -9.340  0.00  0.00    -0.472 OA
ENDBRANCH   1  35
TORSDOF 6
ENDMDL
MODEL 6
REMARK VINA RESULT:      -8.5      3.262      9.770
REMARK  Name = 
REMARK  6 active torsions:
REMARK  status: ('A' for Active; 'I' for Inactive)
REMARK    1  A    between atoms: O_2  and  C_3
REMARK    2  A    between atoms: C_4  and  C_5
REMARK    3  A    between atoms: C_10  and  N_11
REMARK    4  A    between atoms: N_11  and  S_12
REMARK    5  A    between atoms: C_21  and  N_22
REMARK    6  A    between atoms: C_31  and  C_32
REMARK                            x       y       z     vdW  Elec       q    Type
REMARK                         _______ _______ _______ _____ _____    ______ ____
ROOT
ATOM      1  C   UNL     1       3.632   6.220 -10.225  0.00  0.00    +0.135 A 
ATOM      2  C   UNL     1       4.579   6.268 -11.240  0.00  0.00    +0.013 A 
ATOM      3  C   UNL     1       4.098   6.011 -12.510  0.00  0.00    +0.016 A 
ATOM      4  C   UNL     1       2.755   5.737 -12.740  0.00  0.00    +0.068 A 
ATOM      5  C   UNL     1       2.000   5.314 -11.653  0.00  0.00    +0.021 A 
ATOM      6  C   UNL     1       2.433   5.538 -10.363  0.00  0.00    +0.035 A 
ENDROOT
BRANCH   6   7
ATOM      7  C   UNL     1       1.786   4.925  -9.196  0.00  0.00    +0.003 A 
ATOM      8  C   UNL     1       0.728   5.509  -8.543  0.00  0.00    +0.000 A 
ATOM      9  C   UNL     1       0.483   5.203  -7.210  0.00  0.00    +0.000 A 
ATOM     10  C   UNL     1       1.362   4.428  -6.464  0.00  0.00    +0.001 A 
ATOM     11  C   UNL     1       1.648   4.773  -5.149  0.00  0.00    +0.018 A 
ATOM     12  C   UNL     1       0.904   5.759  -4.512  0.00  0.00    +0.091 A 
ATOM     13  C   UNL     1      -0.293   6.092  -5.136  0.00  0.00    +0.018 A 
ATOM     14  C   UNL     1       2.214   3.616  -7.202  0.00  0.00    +0.000 A 
ATOM     15  C   UNL     1      -0.517   5.829  -6.482  0.00  0.00    +0.001 A 
ATOM     16  C   UNL     1       2.372   3.833  -8.565  0.00  0.00    +0.000 A 
BRANCH  12  17
ATOM     17  N   UNL     1       1.426   6.524  -3.438  0.00  0.00    -0.101 NA
BRANCH  17  18
ATOM     18  S   UNL     1       3.094   6.936  -3.437  0.00  0.00    +0.075 S 
ATOM     19  O   UNL     1       3.496   7.301  -4.841  0.00  0.00    -0.153 OA
ATOM     20  O   UNL     1       3.359   8.162  -2.592  0.00  0.00    -0.153 OA
ATOM     21  C   UNL     1       4.087   5.574  -2.915  0.00  0.00    +0.202 C 
ENDBRANCH  17  18
ENDBRANCH  12  17
ENDBRANCH   6   7
BRANCH   4  22
ATOM     22  N   UNL     1       2.196   5.836 -14.049  0.00  0.00    -0.257 N 
ATOM     23  C   UNL     1       1.160   5.053 -14.435  0.00  0.00    +0.357 A 
ATOM     24  O   UNL     1       1.048   3.942 -13.838  0.00  0.00    -0.244 OA
ATOM     25  N   UNL     1       0.170   5.530 -15.228  0.00  0.00    -0.153 NA
ATOM     26  C   UNL     1       0.214   6.801 -15.699  0.00  0.00    +0.285 A 
ATOM     27  O   UNL     1      -0.849   7.487 -15.769  0.00  0.00    -0.265 OA
ATOM     28  C   UNL     1       1.471   7.393 -15.686  0.00  0.00    +0.082 A 
ATOM     29  C   UNL     1       2.455   6.898 -14.850  0.00  0.00    +0.089 A 
ENDBRANCH   4  22
BRANCH   2  30
ATOM     30  C   UNL     1       6.041   6.337 -10.934  0.00  0.00    +0.022 C 
ATOM     31  C   UNL     1       6.521   7.780 -11.039  0.00  0.00    +0.004 C 
ATOM     32  C   UNL     1       6.765   5.501 -11.973  0.00  0.00    +0.004 C 
ATOM     33  C   UNL     1       6.340   5.738  -9.586  0.00  0.00    +0.004 C 
ENDBRANCH   2  30
BRANCH   1  35
ATOM     34  C   UNL     1       3.008   7.745  -8.505  0.00  0.00    +0.252 C 
ATOM     35  O   UNL     1       3.947   6.799  -9.011  0.00  0.00    -0.472 OA
ENDBRANCH   1  35
TORSDOF 6
ENDMDL
MODEL 7
REMARK VINA RESULT:      -8.5      3.248      9.019
REMARK  Name = 
REMARK  6 active torsions:
REMARK  status: ('A' for Active; 'I' for Inactive)
REMARK    1  A    between atoms: O_2  and  C_3
REMARK    2  A    between atoms: C_4  and  C_5
REMARK    3  A    between atoms: C_10  and  N_11
REMARK    4  A    between atoms: N_11  and  S_12
REMARK    5  A    between atoms: C_21  and  N_22
REMARK    6  A    between atoms: C_31  and  C_32
REMARK                            x       y       z     vdW  Elec       q    Type
REMARK                         _______ _______ _______ _____ _____    ______ ____
ROOT
ATOM      1  C   UNL     1       2.160   5.884 -10.026  0.00  0.00    +0.135 A 
ATOM      2  C   UNL     1       1.964   5.938 -11.400  0.00  0.00    +0.013 A 
ATOM      3  C   UNL     1       3.073   6.298 -12.143  0.00  0.00    +0.016 A 
ATOM      4  C   UNL     1       4.295   6.573 -11.541  0.00  0.00    +0.068 A 
ATOM      5  C   UNL     1       4.278   6.890 -10.188  0.00  0.00    +0.021 A 
ATOM      6  C   UNL     1       3.196   6.560  -9.400  0.00  0.00    +0.035 A 
ENDROOT
BRANCH   6   7
ATOM      7  C   UNL     1       3.037   7.059  -8.028  0.00  0.00    +0.003 A 
ATOM      8  C   UNL     1       4.085   7.148  -7.145  0.00  0.00    +0.000 A 
ATOM      9  C   UNL     1       3.842   7.122  -5.778  0.00  0.00    +0.000 A 
ATOM     10  C   UNL     1       2.577   6.866  -5.264  0.00  0.00    +0.001 A 
ATOM     11  C   UNL     1       2.432   6.046  -4.153  0.00  0.00    +0.018 A 
ATOM     12  C   UNL     1       3.551   5.654  -3.427  0.00  0.00    +0.091 A 
ATOM     13  C   UNL     1       4.703   6.389  -3.676  0.00  0.00    +0.018 A 
ATOM     14  C   UNL     1       1.521   7.096  -6.137  0.00  0.00    +0.000 A 
ATOM     15  C   UNL     1       4.869   7.120  -4.846  0.00  0.00    +0.001 A 
ATOM     16  C   UNL     1       1.766   7.249  -7.497  0.00  0.00    +0.000 A 
BRANCH  12  17
ATOM     17  N   UNL     1       3.576   4.459  -2.663  0.00  0.00    -0.101 NA
BRANCH  17  18
ATOM     18  S   UNL     1       3.048   4.500  -1.028  0.00  0.00    +0.075 S 
ATOM     19  O   UNL     1       3.265   3.138  -0.423  0.00  0.00    -0.153 OA
ATOM     20  O   UNL     1       3.875   5.462  -0.205  0.00  0.00    -0.153 OA
ATOM     21  C   UNL     1       1.329   4.884  -0.921  0.00  0.00    +0.202 C 
ENDBRANCH  17  18
ENDBRANCH  12  17
ENDBRANCH   6   7
BRANCH   4  22
ATOM     22  N   UNL     1       5.504   6.582 -12.299  0.00  0.00    -0.257 N 
ATOM     23  C   UNL     1       6.517   7.433 -12.003  0.00  0.00    +0.357 A 
ATOM     24  O   UNL     1       6.189   8.508 -11.420  0.00  0.00    -0.244 OA
ATOM     25  N   UNL     1       7.813   7.051 -12.101  0.00  0.00    -0.153 NA
ATOM     26  C   UNL     1       8.136   5.811 -12.546  0.00  0.00    +0.285 A 
ATOM     27  O   UNL     1       9.097   5.179 -12.014  0.00  0.00    -0.265 OA
ATOM     28  C   UNL     1       7.141   5.164 -13.268  0.00  0.00    +0.082 A 
ATOM     29  C   UNL     1       5.823   5.562 -13.131  0.00  0.00    +0.089 A 
ENDBRANCH   4  22
BRANCH   2  30
ATOM     30  C   UNL     1       0.593   5.862 -11.991  0.00  0.00    +0.022 C 
ATOM     31  C   UNL     1       0.110   4.416 -11.986  0.00  0.00    +0.004 C 
ATOM     32  C   UNL     1       0.687   6.343 -13.427  0.00  0.00    +0.004 C 
ATOM     33  C   UNL     1      -0.358   6.778 -11.271  0.00  0.00    +0.004 C 
ENDBRANCH   2  30
BRANCH   1  35
ATOM     34  C   UNL     1       1.657   3.956  -8.722  0.00  0.00    +0.252 C 
ATOM     35  O   UNL     1       1.232   5.206  -9.260  0.00  0.00    -0.472 OA
ENDBRANCH   1  35
TORSDOF 6
ENDMDL
MODEL 8
REMARK VINA RESULT:      -8.3      3.480      5.732
REMARK  Name = 
REMARK  6 active torsions:
REMARK  status: ('A' for Active; 'I' for Inactive)
REMARK    1  A    between atoms: O_2  and  C_3
REMARK    2  A    between atoms: C_4  and  C_5
REMARK    3  A    between atoms: C_10  and  N_11
REMARK    4  A    between atoms: N_11  and  S_12
REMARK    5  A    between atoms: C_21  and  N_22
REMARK    6  A    between atoms: C_31  and  C_32
REMARK                            x       y       z     vdW  Elec       q    Type
REMARK                         _______ _______ _______ _____ _____    ______ ____
ROOT
ATOM      1  C   UNL     1       2.033   6.274  -1.449  0.00  0.00    +0.135 A 
ATOM      2  C   UNL     1       2.491   7.347  -0.697  0.00  0.00    +0.013 A 
ATOM      3  C   UNL     1       1.549   7.939   0.125  0.00  0.00    +0.016 A 
ATOM      4  C   UNL     1       0.243   7.471   0.190  0.00  0.00    +0.068 A 
ATOM      5  C   UNL     1      -0.206   6.694  -0.870  0.00  0.00    +0.021 A 
ATOM      6  C   UNL     1       0.688   6.084  -1.726  0.00  0.00    +0.035 A 
ENDROOT
BRANCH   6   7
ATOM      7  C   UNL     1       0.269   5.438  -2.975  0.00  0.00    +0.003 A 
ATOM      8  C   UNL     1       1.160   4.855  -3.844  0.00  0.00    +0.000 A 
ATOM      9  C   UNL     1       0.831   4.724  -5.187  0.00  0.00    +0.000 A 
ATOM     10  C   UNL     1      -0.320   5.294  -5.718  0.00  0.00    +0.001 A 
ATOM     11  C   UNL     1      -0.278   5.911  -6.962  0.00  0.00    +0.018 A 
ATOM     12  C   UNL     1       0.847   5.777  -7.767  0.00  0.00    +0.091 A 
ATOM     13  C   UNL     1       1.715   4.755  -7.403  0.00  0.00    +0.018 A 
ATOM     14  C   UNL     1      -1.321   5.582  -4.799  0.00  0.00    +0.000 A 
ATOM     15  C   UNL     1       1.727   4.224  -6.120  0.00  0.00    +0.001 A 
ATOM     16  C   UNL     1      -1.033   5.592  -3.440  0.00  0.00    +0.000 A 
BRANCH  12  17
ATOM     17  N   UNL     1       1.197   6.745  -8.743  0.00  0.00    -0.101 NA
BRANCH  17  18
ATOM     18  S   UNL     1       0.842   6.434 -10.396  0.00  0.00    +0.075 S 
ATOM     19  O   UNL     1      -0.015   5.198 -10.475  0.00  0.00    -0.153 OA
ATOM     20  O   UNL     1       0.025   7.551 -11.005  0.00  0.00    -0.153 OA
ATOM     21  C   UNL     1       2.316   6.144 -11.321  0.00  0.00    +0.202 C 
ENDBRANCH  17  18
ENDBRANCH  12  17
ENDBRANCH   6   7
BRANCH   4  22
ATOM     22  N   UNL     1      -0.613   7.824   1.277  0.00  0.00    -0.257 N 
ATOM     23  C   UNL     1      -0.211   7.690   2.564  0.00  0.00    +0.357 A 
ATOM     24  O   UNL     1       0.675   6.812   2.783  0.00  0.00    -0.244 OA
ATOM     25  N   UNL     1      -0.551   8.600   3.509  0.00  0.00    -0.153 NA
ATOM     26  C   UNL     1      -1.349   9.652   3.200  0.00  0.00    +0.285 A 
ATOM     27  O   UNL     1      -1.118  10.792   3.706  0.00  0.00    -0.265 OA
ATOM     28  C   UNL     1      -2.105   9.502   2.044  0.00  0.00    +0.082 A 
ATOM     29  C   UNL     1      -1.721   8.580   1.087  0.00  0.00    +0.089 A 
ENDBRANCH   4  22
BRANCH   2  30
ATOM     30  C   UNL     1       3.828   7.964  -0.959  0.00  0.00    +0.022 C 
ATOM     31  C   UNL     1       4.884   7.294  -0.088  0.00  0.00    +0.004 C 
ATOM     32  C   UNL     1       3.736   9.431  -0.581  0.00  0.00    +0.004 C 
ATOM     33  C   UNL     1       4.175   7.898  -2.422  0.00  0.00    +0.004 C 
ENDBRANCH   2  30
BRANCH   1  35
ATOM     34  C   UNL     1       3.413   4.350  -1.185  0.00  0.00    +0.252 C 
ATOM     35  O   UNL     1       2.967   5.424  -2.010  0.00  0.00    -0.472 OA
ENDBRANCH   1  35
TORSDOF 6
ENDMDL
MODEL 9
REMARK VINA RESULT:      -7.8      1.772      2.624
REMARK  Name = 
REMARK  6 active torsions:
REMARK  status: ('A' for Active; 'I' for Inactive)
REMARK    1  A    between atoms: O_2  and  C_3
REMARK    2  A    between atoms: C_4  and  C_5
REMARK    3  A    between atoms: C_10  and  N_11
REMARK    4  A    between atoms: N_11  and  S_12
REMARK    5  A    between atoms: C_21  and  N_22
REMARK    6  A    between atoms: C_31  and  C_32
REMARK                            x       y       z     vdW  Elec       q    Type
REMARK                         _______ _______ _______ _____ _____    ______ ____
ROOT
ATOM      1  C   UNL     1      -0.554   6.771  -4.033  0.00  0.00    +0.135 A 
ATOM      2  C   UNL     1      -0.985   6.330  -2.789  0.00  0.00    +0.013 A 
ATOM      3  C   UNL     1       0.016   6.108  -1.861  0.00  0.00    +0.016 A 
ATOM      4  C   UNL     1       1.354   6.326  -2.165  0.00  0.00    +0.068 A 
ATOM      5  C   UNL     1       1.701   6.360  -3.509  0.00  0.00    +0.021 A 
ATOM      6  C   UNL     1       0.744   6.573  -4.480  0.00  0.00    +0.035 A 
ENDROOT
BRANCH   6   7
ATOM      7  C   UNL     1       1.021   6.403  -5.912  0.00  0.00    +0.003 A 
ATOM      8  C   UNL     1       1.475   5.221  -6.444  0.00  0.00    +0.000 A 
ATOM      9  C   UNL     1       2.191   5.228  -7.635  0.00  0.00    +0.000 A 
ATOM     10  C   UNL     1       2.590   6.413  -8.241  0.00  0.00    +0.001 A 
ATOM     11  C   UNL     1       3.857   6.511  -8.803  0.00  0.00    +0.018 A 
ATOM     12  C   UNL     1       4.643   5.375  -8.950  0.00  0.00    +0.091 A 
ATOM     13  C   UNL     1       3.965   4.168  -8.828  0.00  0.00    +0.018 A 
ATOM     14  C   UNL     1       1.870   7.543  -7.875  0.00  0.00    +0.000 A 
ATOM     15  C   UNL     1       2.745   4.075  -8.169  0.00  0.00    +0.001 A 
ATOM     16  C   UNL     1       1.050   7.509  -6.754  0.00  0.00    +0.000 A 
BRANCH  12  17
ATOM     17  N   UNL     1       6.059   5.436  -8.997  0.00  0.00    -0.101 NA
BRANCH  17  18
ATOM     18  S   UNL     1       6.832   5.835 -10.479  0.00  0.00    +0.075 S 
ATOM     19  O   UNL     1       8.199   5.203 -10.489  0.00  0.00    -0.153 OA
ATOM     20  O   UNL     1       6.092   5.252 -11.661  0.00  0.00    -0.153 OA
ATOM     21  C   UNL     1       7.030   7.580 -10.646  0.00  0.00    +0.202 C 
ENDBRANCH  17  18
ENDBRANCH  12  17
ENDBRANCH   6   7
BRANCH   4  22
ATOM     22  N   UNL     1       2.332   6.455  -1.134  0.00  0.00    -0.257 N 
ATOM     23  C   UNL     1       3.221   5.465  -0.876  0.00  0.00    +0.357 A 
ATOM     24  O   UNL     1       2.856   4.293  -1.188  0.00  0.00    -0.244 OA
ATOM     25  N   UNL     1       4.505   5.737  -0.539  0.00  0.00    -0.153 NA
ATOM     26  C   UNL     1       4.926   7.019  -0.403  0.00  0.00    +0.285 A 
ATOM     27  O   UNL     1       6.080   7.352  -0.809  0.00  0.00    -0.265 OA
ATOM     28  C   UNL     1       3.919   7.955  -0.205  0.00  0.00    +0.082 A 
ATOM     29  C   UNL     1       2.621   7.657  -0.580  0.00  0.00    +0.089 A 
ENDBRANCH   4  22
BRANCH   2  30
ATOM     30  C   UNL     1      -2.396   5.888  -2.569  0.00  0.00    +0.022 C 
ATOM     31  C   UNL     1      -3.306   7.107  -2.468  0.00  0.00    +0.004 C 
ATOM     32  C   UNL     1      -2.439   5.133  -1.254  0.00  0.00    +0.004 C 
ATOM     33  C   UNL     1      -2.840   4.939  -3.648  0.00  0.00    +0.004 C 
ENDBRANCH   2  30
BRANCH   1  35
ATOM     34  C   UNL     1      -1.814   8.705  -4.619  0.00  0.00    +0.252 C 
ATOM     35  O   UNL     1      -1.482   7.344  -4.881  0.00  0.00    -0.472 OA
ENDBRANCH   1  35
TORSDOF 6
ENDMDL
