MODEL 1
REMARK VINA RESULT:      -6.1      0.000      0.000
REMARK  Name = 
REMARK  11 active torsions:
REMARK  status: ('A' for Active; 'I' for Inactive)
REMARK    1  A    between atoms: P_2  and  C_5
REMARK    2  A    between atoms: C_5  and  N_6
REMARK    3  A    between atoms: N_6  and  C_7
REMARK    4  A    between atoms: N_6  and  C_20
REMARK    5  A    between atoms: C_7  and  C_8
REMARK    6  A    between atoms: C_8  and  N_9
REMARK    7  A    between atoms: N_9  and  C_10
REMARK    8  A    between atoms: N_9  and  C_15
REMARK    9  A    between atoms: C_10  and  P_11
REMARK   10  A    between atoms: C_15  and  P_16
REMARK   11  A    between atoms: C_20  and  P_21
REMARK                            x       y       z     vdW  Elec       q    Type
REMARK                         _______ _______ _______ _____ _____    ______ ____
ROOT
ATOM      1  C   UNL     1       4.140   5.508  -9.728  0.00  0.00    +0.090 C 
ENDROOT
BRANCH   1   2
ATOM      2  N   UNL     1       3.055   5.435  -8.800  0.00  0.00    -0.259 NA
BRANCH   2   3
ATOM      3  C   UNL     1       3.428   5.524  -7.424  0.00  0.00    +0.132 C 
BRANCH   3   4
ATOM      4  P   UNL     1       2.734   6.932  -6.552  0.00  0.00    +0.133 P 
ATOM      5  O   UNL     1       2.433   8.129  -7.723  0.00  0.00    -0.356 OA
ATOM      6  O   UNL     1       3.785   7.600  -5.426  0.00  0.00    -0.356 OA
ATOM      7  O   UNL     1       1.408   6.552  -5.946  0.00  0.00    -0.459 OA
ENDBRANCH   3   4
ENDBRANCH   2   3
BRANCH   2   8
ATOM      8  C   UNL     1       2.053   4.463  -9.103  0.00  0.00    +0.132 C 
BRANCH   8  10
ATOM      9  O   UNL     1       0.759   6.758  -9.935  0.00  0.00    -0.459 OA
ATOM     10  P   UNL     1       0.506   5.340  -9.508  0.00  0.00    +0.133 P 
ATOM     11  O   UNL     1      -0.273   4.535 -10.784  0.00  0.00    -0.356 OA
ATOM     12  O   UNL     1      -0.553   5.373  -8.201  0.00  0.00    -0.356 OA
ENDBRANCH   8  10
ENDBRANCH   2   8
ENDBRANCH   1   2
BRANCH   1  13
ATOM     13  C   UNL     1       4.092   6.682 -10.658  0.00  0.00    +0.090 C 
BRANCH  13  14
ATOM     14  N   UNL     1       4.152   6.159 -12.010  0.00  0.00    -0.259 NA
BRANCH  14  15
ATOM     15  C   UNL     1       2.839   5.889 -12.516  0.00  0.00    +0.132 C 
BRANCH  15  16
ATOM     16  P   UNL     1       2.766   5.621 -14.289  0.00  0.00    +0.133 P 
ATOM     17  O   UNL     1       4.040   6.329 -15.123  0.00  0.00    -0.356 OA
ATOM     18  O   UNL     1       1.265   6.094 -14.884  0.00  0.00    -0.356 OA
ATOM     19  O   UNL     1       2.876   4.122 -14.522  0.00  0.00    -0.459 OA
ENDBRANCH  15  16
ENDBRANCH  14  15
BRANCH  14  20
ATOM     20  C   UNL     1       5.086   5.080 -12.164  0.00  0.00    +0.132 C 
BRANCH  20  21
ATOM     21  P   UNL     1       6.726   5.826 -12.431  0.00  0.00    +0.133 P 
ATOM     22  O   UNL     1       6.491   7.317 -13.197  0.00  0.00    -0.356 OA
ATOM     23  O   UNL     1       7.572   4.843 -13.530  0.00  0.00    -0.356 OA
ATOM     24  O   UNL     1       7.500   5.957 -11.153  0.00  0.00    -0.459 OA
ENDBRANCH  20  21
ENDBRANCH  14  20
ENDBRANCH  13  14
ENDBRANCH   1  13
TORSDOF 11
ENDMDL
MODEL 2
REMARK VINA RESULT:      -6.1      0.185      7.101
REMARK  Name = 
REMARK  11 active torsions:
REMARK  status: ('A' for Active; 'I' for Inactive)
REMARK    1  A    between atoms: P_2  and  C_5
REMARK    2  A    between atoms: C_5  and  N_6
REMARK    3  A    between atoms: N_6  and  C_7
REMARK    4  A    between atoms: N_6  and  C_20
REMARK    5  A    between atoms: C_7  and  C_8
REMARK    6  A    between atoms: C_8  and  N_9
REMARK    7  A    between atoms: N_9  and  C_10
REMARK    8  A    between atoms: N_9  and  C_15
REMARK    9  A    between atoms: C_10  and  P_11
REMARK   10  A    between atoms: C_15  and  P_16
REMARK   11  A    between atoms: C_20  and  P_21
REMARK                            x       y       z     vdW  Elec       q    Type
REMARK                         _______ _______ _______ _____ _____    ______ ____
ROOT
ATOM      1  C   UNL     1       4.113   6.568 -10.633  0.00  0.00    +0.090 C 
ENDROOT
BRANCH   1   2
ATOM      2  N   UNL     1       4.068   6.110 -11.987  0.00  0.00    -0.259 NA
BRANCH   2   3
ATOM      3  C   UNL     1       2.758   5.986 -12.542  0.00  0.00    +0.132 C 
BRANCH   3   4
ATOM      4  P   UNL     1       2.721   5.722 -14.318  0.00  0.00    +0.133 P 
ATOM      5  O   UNL     1       2.726   4.037 -14.558  0.00  0.00    -0.356 OA
ATOM      6  O   UNL     1       4.068   6.334 -15.110  0.00  0.00    -0.356 OA
ATOM      7  O   UNL     1       1.430   6.253 -14.885  0.00  0.00    -0.459 OA
ENDBRANCH   3   4
ENDBRANCH   2   3
BRANCH   2   8
ATOM      8  C   UNL     1       4.972   5.052 -12.306  0.00  0.00    +0.132 C 
BRANCH   8  10
ATOM      9  O   UNL     1       6.587   7.181 -13.005  0.00  0.00    -0.459 OA
ATOM     10  P   UNL     1       6.639   5.762 -12.514  0.00  0.00    +0.133 P 
ATOM     11  O   UNL     1       7.442   5.748 -11.018  0.00  0.00    -0.356 OA
ATOM     12  O   UNL     1       7.565   4.872 -13.601  0.00  0.00    -0.356 OA
ENDBRANCH   8  10
ENDBRANCH   2   8
ENDBRANCH   1   2
BRANCH   1  13
ATOM     13  C   UNL     1       4.171   5.480  -9.605  0.00  0.00    +0.090 C 
BRANCH  13  14
ATOM     14  N   UNL     1       2.923   5.523  -8.866  0.00  0.00    -0.259 NA
BRANCH  14  15
ATOM     15  C   UNL     1       3.163   5.558  -7.454  0.00  0.00    +0.132 C 
BRANCH  15  16
ATOM     16  P   UNL     1       2.608   7.060  -6.642  0.00  0.00    +0.133 P 
ATOM     17  O   UNL     1       2.269   8.309  -7.712  0.00  0.00    -0.356 OA
ATOM     18  O   UNL     1       3.706   7.512  -5.449  0.00  0.00    -0.356 OA
ATOM     19  O   UNL     1       1.302   6.731  -5.933  0.00  0.00    -0.459 OA
ENDBRANCH  15  16
ENDBRANCH  14  15
BRANCH  14  20
ATOM     20  C   UNL     1       1.975   4.533  -9.288  0.00  0.00    +0.132 C 
BRANCH  20  21
ATOM     21  P   UNL     1       0.399   5.394  -9.592  0.00  0.00    +0.133 P 
ATOM     22  O   UNL     1      -0.320   4.680 -10.948  0.00  0.00    -0.356 OA
ATOM     23  O   UNL     1       0.757   6.999 -10.019  0.00  0.00    -0.356 OA
ATOM     24  O   UNL     1      -0.499   5.367  -8.391  0.00  0.00    -0.459 OA
ENDBRANCH  20  21
ENDBRANCH  14  20
ENDBRANCH  13  14
ENDBRANCH   1  13
TORSDOF 11
ENDMDL
MODEL 3
REMARK VINA RESULT:      -6.0      4.299      7.097
REMARK  Name = 
REMARK  11 active torsions:
REMARK  status: ('A' for Active; 'I' for Inactive)
REMARK    1  A    between atoms: P_2  and  C_5
REMARK    2  A    between atoms: C_5  and  N_6
REMARK    3  A    between atoms: N_6  and  C_7
REMARK    4  A    between atoms: N_6  and  C_20
REMARK    5  A    between atoms: C_7  and  C_8
REMARK    6  A    between atoms: C_8  and  N_9
REMARK    7  A    between atoms: N_9  and  C_10
REMARK    8  A    between atoms: N_9  and  C_15
REMARK    9  A    between atoms: C_10  and  P_11
REMARK   10  A    between atoms: C_15  and  P_16
REMARK   11  A    between atoms: C_20  and  P_21
REMARK                            x       y       z     vdW  Elec       q    Type
REMARK                         _______ _______ _______ _____ _____    ______ ____
ROOT
ATOM      1  C   UNL     1       0.384   5.046  -4.682  0.00  0.00    +0.090 C 
ENDROOT
BRANCH   1   2
ATOM      2  N   UNL     1       0.140   5.763  -3.469  0.00  0.00    -0.259 NA
BRANCH   2   3
ATOM      3  C   UNL     1      -1.011   6.609  -3.487  0.00  0.00    +0.132 C 
BRANCH   3   4
ATOM      4  P   UNL     1      -2.287   6.159  -2.307  0.00  0.00    +0.133 P 
ATOM      5  O   UNL     1      -3.743   6.818  -2.892  0.00  0.00    -0.356 OA
ATOM      6  O   UNL     1      -2.037   6.804  -0.778  0.00  0.00    -0.356 OA
ATOM      7  O   UNL     1      -2.451   4.662  -2.280  0.00  0.00    -0.459 OA
ENDBRANCH   3   4
ENDBRANCH   2   3
BRANCH   2   8
ATOM      8  C   UNL     1       1.297   6.313  -2.838  0.00  0.00    +0.132 C 
BRANCH   8  10
ATOM      9  O   UNL     1       0.742   4.158  -1.200  0.00  0.00    -0.459 OA
ATOM     10  P   UNL     1       1.618   5.374  -1.308  0.00  0.00    +0.133 P 
ATOM     11  O   UNL     1       3.237   4.863  -1.297  0.00  0.00    -0.356 OA
ATOM     12  O   UNL     1       1.369   6.315   0.065  0.00  0.00    -0.356 OA
ENDBRANCH   8  10
ENDBRANCH   2   8
ENDBRANCH   1   2
BRANCH   1  13
ATOM     13  C   UNL     1       0.264   5.866  -5.930  0.00  0.00    +0.090 C 
BRANCH  13  14
ATOM     14  N   UNL     1       1.504   5.710  -6.665  0.00  0.00    -0.259 NA
BRANCH  14  15
ATOM     15  C   UNL     1       1.251   5.427  -8.047  0.00  0.00    +0.132 C 
BRANCH  15  16
ATOM     16  P   UNL     1       1.771   6.719  -9.179  0.00  0.00    +0.133 P 
ATOM     17  O   UNL     1       0.587   7.146 -10.291  0.00  0.00    -0.356 OA
ATOM     18  O   UNL     1       3.224   6.295  -9.914  0.00  0.00    -0.356 OA
ATOM     19  O   UNL     1       2.049   7.961  -8.345  0.00  0.00    -0.459 OA
ENDBRANCH  15  16
ENDBRANCH  14  15
BRANCH  14  20
ATOM     20  C   UNL     1       2.435   4.820  -6.033  0.00  0.00    +0.132 C 
BRANCH  20  21
ATOM     21  P   UNL     1       4.009   5.722  -5.864  0.00  0.00    +0.133 P 
ATOM     22  O   UNL     1       4.791   5.130  -4.484  0.00  0.00    -0.356 OA
ATOM     23  O   UNL     1       3.644   7.352  -5.554  0.00  0.00    -0.356 OA
ATOM     24  O   UNL     1       4.859   5.607  -7.094  0.00  0.00    -0.459 OA
ENDBRANCH  20  21
ENDBRANCH  14  20
ENDBRANCH  13  14
ENDBRANCH   1  13
TORSDOF 11
ENDMDL
MODEL 4
REMARK VINA RESULT:      -6.0      4.291      9.591
REMARK  Name = 
REMARK  11 active torsions:
REMARK  status: ('A' for Active; 'I' for Inactive)
REMARK    1  A    between atoms: P_2  and  C_5
REMARK    2  A    between atoms: C_5  and  N_6
REMARK    3  A    between atoms: N_6  and  C_7
REMARK    4  A    between atoms: N_6  and  C_20
REMARK    5  A    between atoms: C_7  and  C_8
REMARK    6  A    between atoms: C_8  and  N_9
REMARK    7  A    between atoms: N_9  and  C_10
REMARK    8  A    between atoms: N_9  and  C_15
REMARK    9  A    between atoms: C_10  and  P_11
REMARK   10  A    between atoms: C_15  and  P_16
REMARK   11  A    between atoms: C_20  and  P_21
REMARK                            x       y       z     vdW  Elec       q    Type
REMARK                         _______ _______ _______ _____ _____    ______ ____
ROOT
ATOM      1  C   UNL     1       0.403   5.763  -5.780  0.00  0.00    +0.090 C 
ENDROOT
BRANCH   1   2
ATOM      2  N   UNL     1       1.629   5.546  -6.484  0.00  0.00    -0.259 NA
BRANCH   2   3
ATOM      3  C   UNL     1       1.495   5.378  -7.896  0.00  0.00    +0.132 C 
BRANCH   3   4
ATOM      4  P   UNL     1       1.936   6.823  -8.866  0.00  0.00    +0.133 P 
ATOM      5  O   UNL     1       1.973   8.139  -7.787  0.00  0.00    -0.356 OA
ATOM      6  O   UNL     1       0.810   7.196 -10.054  0.00  0.00    -0.356 OA
ATOM      7  O   UNL     1       3.326   6.659  -9.422  0.00  0.00    -0.459 OA
ENDBRANCH   3   4
ENDBRANCH   2   3
BRANCH   2   8
ATOM      8  C   UNL     1       2.555   4.666  -5.846  0.00  0.00    +0.132 C 
BRANCH   8  10
ATOM      9  O   UNL     1       4.992   5.443  -6.890  0.00  0.00    -0.459 OA
ATOM     10  P   UNL     1       4.143   5.543  -5.654  0.00  0.00    +0.133 P 
ATOM     11  O   UNL     1       3.841   7.186  -5.351  0.00  0.00    -0.356 OA
ATOM     12  O   UNL     1       5.036   4.940  -4.362  0.00  0.00    -0.356 OA
ENDBRANCH   8  10
ENDBRANCH   2   8
ENDBRANCH   1   2
BRANCH   1  13
ATOM     13  C   UNL     1       0.470   6.814  -4.715  0.00  0.00    +0.090 C 
BRANCH  13  14
ATOM     14  N   UNL     1      -0.237   6.296  -3.559  0.00  0.00    -0.259 NA
BRANCH  14  15
ATOM     15  C   UNL     1       0.485   5.215  -2.956  0.00  0.00    +0.132 C 
BRANCH  15  16
ATOM     16  P   UNL     1       1.599   5.708  -1.638  0.00  0.00    +0.133 P 
ATOM     17  O   UNL     1       2.952   6.539  -2.185  0.00  0.00    -0.356 OA
ATOM     18  O   UNL     1       2.001   4.376  -0.691  0.00  0.00    -0.356 OA
ATOM     19  O   UNL     1       0.834   6.668  -0.739  0.00  0.00    -0.459 OA
ENDBRANCH  15  16
ENDBRANCH  14  15
BRANCH  14  20
ATOM     20  C   UNL     1      -1.622   6.023  -3.812  0.00  0.00    +0.132 C 
BRANCH  20  21
ATOM     21  P   UNL     1      -2.536   6.434  -2.290  0.00  0.00    +0.133 P 
ATOM     22  O   UNL     1      -2.377   5.126  -1.228  0.00  0.00    -0.356 OA
ATOM     23  O   UNL     1      -4.185   6.541  -2.686  0.00  0.00    -0.356 OA
ATOM     24  O   UNL     1      -2.066   7.722  -1.682  0.00  0.00    -0.459 OA
ENDBRANCH  20  21
ENDBRANCH  14  20
ENDBRANCH  13  14
ENDBRANCH   1  13
TORSDOF 11
ENDMDL
MODEL 5
REMARK VINA RESULT:      -5.9      4.356      9.268
REMARK  Name = 
REMARK  11 active torsions:
REMARK  status: ('A' for Active; 'I' for Inactive)
REMARK    1  A    between atoms: P_2  and  C_5
REMARK    2  A    between atoms: C_5  and  N_6
REMARK    3  A    between atoms: N_6  and  C_7
REMARK    4  A    between atoms: N_6  and  C_20
REMARK    5  A    between atoms: C_7  and  C_8
REMARK    6  A    between atoms: C_8  and  N_9
REMARK    7  A    between atoms: N_9  and  C_10
REMARK    8  A    between atoms: N_9  and  C_15
REMARK    9  A    between atoms: C_10  and  P_11
REMARK   10  A    between atoms: C_15  and  P_16
REMARK   11  A    between atoms: C_20  and  P_21
REMARK                            x       y       z     vdW  Elec       q    Type
REMARK                         _______ _______ _______ _____ _____    ______ ____
ROOT
ATOM      1  C   UNL     1       0.462   6.071  -5.647  0.00  0.00    +0.090 C 
ENDROOT
BRANCH   1   2
ATOM      2  N   UNL     1       1.576   5.718  -6.471  0.00  0.00    -0.259 NA
BRANCH   2   3
ATOM      3  C   UNL     1       1.267   5.510  -7.850  0.00  0.00    +0.132 C 
BRANCH   3   4
ATOM      4  P   UNL     1       1.853   6.803  -8.950  0.00  0.00    +0.133 P 
ATOM      5  O   UNL     1       2.124   8.177  -7.984  0.00  0.00    -0.356 OA
ATOM      6  O   UNL     1       0.731   7.240 -10.120  0.00  0.00    -0.356 OA
ATOM      7  O   UNL     1       3.178   6.403  -9.545  0.00  0.00    -0.459 OA
ENDBRANCH   3   4
ENDBRANCH   2   3
BRANCH   2   8
ATOM      8  C   UNL     1       2.490   4.782  -5.899  0.00  0.00    +0.132 C 
BRANCH   8  10
ATOM      9  O   UNL     1       4.891   4.990  -4.549  0.00  0.00    -0.459 OA
ATOM     10  P   UNL     1       4.092   5.618  -5.655  0.00  0.00    +0.133 P 
ATOM     11  O   UNL     1       4.999   5.516  -7.087  0.00  0.00    -0.356 OA
ATOM     12  O   UNL     1       3.896   7.249  -5.290  0.00  0.00    -0.356 OA
ENDBRANCH   8  10
ENDBRANCH   2   8
ENDBRANCH   1   2
BRANCH   1  13
ATOM     13  C   UNL     1       0.138   5.079  -4.572  0.00  0.00    +0.090 C 
BRANCH  13  14
ATOM     14  N   UNL     1      -0.052   5.827  -3.344  0.00  0.00    -0.259 NA
BRANCH  14  15
ATOM     15  C   UNL     1      -1.201   6.679  -3.433  0.00  0.00    +0.132 C 
BRANCH  15  16
ATOM     16  P   UNL     1      -2.458   6.364  -2.192  0.00  0.00    +0.133 P 
ATOM     17  O   UNL     1      -4.018   6.681  -2.727  0.00  0.00    -0.356 OA
ATOM     18  O   UNL     1      -2.086   7.182  -0.769  0.00  0.00    -0.356 OA
ATOM     19  O   UNL     1      -2.406   4.878  -1.867  0.00  0.00    -0.459 OA
ENDBRANCH  15  16
ENDBRANCH  14  15
BRANCH  14  20
ATOM     20  C   UNL     1       1.140   6.478  -2.880  0.00  0.00    +0.132 C 
BRANCH  20  21
ATOM     21  P   UNL     1       1.771   5.504  -1.476  0.00  0.00    +0.133 P 
ATOM     22  O   UNL     1       0.737   4.179  -1.268  0.00  0.00    -0.356 OA
ATOM     23  O   UNL     1       1.629   6.456  -0.076  0.00  0.00    -0.356 OA
ATOM     24  O   UNL     1       3.198   5.087  -1.675  0.00  0.00    -0.459 OA
ENDBRANCH  20  21
ENDBRANCH  14  20
ENDBRANCH  13  14
ENDBRANCH   1  13
TORSDOF 11
ENDMDL
MODEL 6
REMARK VINA RESULT:      -5.9      0.944      3.181
REMARK  Name = 
REMARK  11 active torsions:
REMARK  status: ('A' for Active; 'I' for Inactive)
REMARK    1  A    between atoms: P_2  and  C_5
REMARK    2  A    between atoms: C_5  and  N_6
REMARK    3  A    between atoms: N_6  and  C_7
REMARK    4  A    between atoms: N_6  and  C_20
REMARK    5  A    between atoms: C_7  and  C_8
REMARK    6  A    between atoms: C_8  and  N_9
REMARK    7  A    between atoms: N_9  and  C_10
REMARK    8  A    between atoms: N_9  and  C_15
REMARK    9  A    between atoms: C_10  and  P_11
REMARK   10  A    between atoms: C_15  and  P_16
REMARK   11  A    between atoms: C_20  and  P_21
REMARK                            x       y       z     vdW  Elec       q    Type
REMARK                         _______ _______ _______ _____ _____    ______ ____
ROOT
ATOM      1  C   UNL     1       4.251   6.124  -9.548  0.00  0.00    +0.090 C 
ENDROOT
BRANCH   1   2
ATOM      2  N   UNL     1       3.069   5.737  -8.842  0.00  0.00    -0.259 NA
BRANCH   2   3
ATOM      3  C   UNL     1       3.213   5.642  -7.425  0.00  0.00    +0.132 C 
BRANCH   3   4
ATOM      4  P   UNL     1       2.586   7.057  -6.514  0.00  0.00    +0.133 P 
ATOM      5  O   UNL     1       1.247   6.504  -5.620  0.00  0.00    -0.356 OA
ATOM      6  O   UNL     1       2.035   8.295  -7.505  0.00  0.00    -0.356 OA
ATOM      7  O   UNL     1       3.622   7.527  -5.527  0.00  0.00    -0.459 OA
ENDBRANCH   3   4
ENDBRANCH   2   3
BRANCH   2   8
ATOM      8  C   UNL     1       2.304   4.696  -9.452  0.00  0.00    +0.132 C 
BRANCH   8  10
ATOM      9  O   UNL     1       0.746   6.742 -10.463  0.00  0.00    -0.459 OA
ATOM     10  P   UNL     1       0.660   5.362  -9.874  0.00  0.00    +0.133 P 
ATOM     11  O   UNL     1      -0.078   4.345 -11.016  0.00  0.00    -0.356 OA
ATOM     12  O   UNL     1      -0.348   5.436  -8.528  0.00  0.00    -0.356 OA
ENDBRANCH   8  10
ENDBRANCH   2   8
ENDBRANCH   1   2
BRANCH   1  13
ATOM     13  C   UNL     1       4.813   5.073 -10.454  0.00  0.00    +0.090 C 
BRANCH  13  14
ATOM     14  N   UNL     1       5.042   5.698 -11.743  0.00  0.00    -0.259 NA
BRANCH  14  15
ATOM     15  C   UNL     1       6.202   6.540 -11.708  0.00  0.00    +0.132 C 
BRANCH  15  16
ATOM     16  P   UNL     1       7.511   6.050 -12.833  0.00  0.00    +0.133 P 
ATOM     17  O   UNL     1       9.051   6.367 -12.243  0.00  0.00    -0.356 OA
ATOM     18  O   UNL     1       7.251   6.726 -14.352  0.00  0.00    -0.356 OA
ATOM     19  O   UNL     1       7.415   4.541 -13.004  0.00  0.00    -0.459 OA
ENDBRANCH  15  16
ENDBRANCH  14  15
BRANCH  14  20
ATOM     20  C   UNL     1       3.871   6.317 -12.295  0.00  0.00    +0.132 C 
BRANCH  20  21
ATOM     21  P   UNL     1       3.427   5.382 -13.794  0.00  0.00    +0.133 P 
ATOM     22  O   UNL     1       3.795   6.354 -15.130  0.00  0.00    -0.356 OA
ATOM     23  O   UNL     1       1.741   5.171 -13.795  0.00  0.00    -0.356 OA
ATOM     24  O   UNL     1       4.115   4.050 -13.852  0.00  0.00    -0.459 OA
ENDBRANCH  20  21
ENDBRANCH  14  20
ENDBRANCH  13  14
ENDBRANCH   1  13
TORSDOF 11
ENDMDL
MODEL 7
REMARK VINA RESULT:      -5.9      2.488      4.569
REMARK  Name = 
REMARK  11 active torsions:
REMARK  status: ('A' for Active; 'I' for Inactive)
REMARK    1  A    between atoms: P_2  and  C_5
REMARK    2  A    between atoms: C_5  and  N_6
REMARK    3  A    between atoms: N_6  and  C_7
REMARK    4  A    between atoms: N_6  and  C_20
REMARK    5  A    between atoms: C_7  and  C_8
REMARK    6  A    between atoms: C_8  and  N_9
REMARK    7  A    between atoms: N_9  and  C_10
REMARK    8  A    between atoms: N_9  and  C_15
REMARK    9  A    between atoms: C_10  and  P_11
REMARK   10  A    between atoms: C_15  and  P_16
REMARK   11  A    between atoms: C_20  and  P_21
REMARK                            x       y       z     vdW  Elec       q    Type
REMARK                         _______ _______ _______ _____ _____    ______ ____
ROOT
ATOM      1  C   UNL     1       3.164   4.852  -7.409  0.00  0.00    +0.090 C 
ENDROOT
BRANCH   1   2
ATOM      2  N   UNL     1       2.439   4.945  -6.180  0.00  0.00    -0.259 NA
BRANCH   2   3
ATOM      3  C   UNL     1       3.227   4.793  -4.999  0.00  0.00    +0.132 C 
BRANCH   3   4
ATOM      4  P   UNL     1       3.645   6.333  -4.176  0.00  0.00    +0.133 P 
ATOM      5  O   UNL     1       2.286   6.772  -3.249  0.00  0.00    -0.356 OA
ATOM      6  O   UNL     1       3.941   7.597  -5.240  0.00  0.00    -0.356 OA
ATOM      7  O   UNL     1       4.786   6.106  -3.220  0.00  0.00    -0.459 OA
ENDBRANCH   3   4
ENDBRANCH   2   3
BRANCH   2   8
ATOM      8  C   UNL     1       1.174   4.283  -6.163  0.00  0.00    +0.132 C 
BRANCH   8  10
ATOM      9  O   UNL     1       0.392   6.929  -6.021  0.00  0.00    -0.459 OA
ATOM     10  P   UNL     1      -0.122   5.527  -5.851  0.00  0.00    +0.133 P 
ATOM     11  O   UNL     1      -1.396   5.294  -6.949  0.00  0.00    -0.356 OA
ATOM     12  O   UNL     1      -0.755   5.393  -4.297  0.00  0.00    -0.356 OA
ENDBRANCH   8  10
ENDBRANCH   2   8
ENDBRANCH   1   2
BRANCH   1  13
ATOM     13  C   UNL     1       2.316   4.613  -8.620  0.00  0.00    +0.090 C 
BRANCH  13  14
ATOM     14  N   UNL     1       2.439   5.784  -9.467  0.00  0.00    -0.259 NA
BRANCH  14  15
ATOM     15  C   UNL     1       3.629   6.520  -9.156  0.00  0.00    +0.132 C 
BRANCH  15  16
ATOM     16  P   UNL     1       4.953   6.334 -10.354  0.00  0.00    +0.133 P 
ATOM     17  O   UNL     1       5.469   7.791 -11.009  0.00  0.00    -0.356 OA
ATOM     18  O   UNL     1       4.514   5.217 -11.533  0.00  0.00    -0.356 OA
ATOM     19  O   UNL     1       6.147   5.745  -9.616  0.00  0.00    -0.459 OA
ENDBRANCH  15  16
ENDBRANCH  14  15
BRANCH  14  20
ATOM     20  C   UNL     1       1.244   6.576  -9.525  0.00  0.00    +0.132 C 
BRANCH  20  21
ATOM     21  P   UNL     1       0.514   6.324 -11.175  0.00  0.00    +0.133 P 
ATOM     22  O   UNL     1       1.708   6.681 -12.322  0.00  0.00    -0.356 OA
ATOM     23  O   UNL     1      -0.717   7.477 -11.381  0.00  0.00    -0.356 OA
ATOM     24  O   UNL     1      -0.040   4.941 -11.340  0.00  0.00    -0.459 OA
ENDBRANCH  20  21
ENDBRANCH  14  20
ENDBRANCH  13  14
ENDBRANCH   1  13
TORSDOF 11
ENDMDL
MODEL 8
REMARK VINA RESULT:      -5.8      4.326      6.765
REMARK  Name = 
REMARK  11 active torsions:
REMARK  status: ('A' for Active; 'I' for Inactive)
REMARK    1  A    between atoms: P_2  and  C_5
REMARK    2  A    between atoms: C_5  and  N_6
REMARK    3  A    between atoms: N_6  and  C_7
REMARK    4  A    between atoms: N_6  and  C_20
REMARK    5  A    between atoms: C_7  and  C_8
REMARK    6  A    between atoms: C_8  and  N_9
REMARK    7  A    between atoms: N_9  and  C_10
REMARK    8  A    between atoms: N_9  and  C_15
REMARK    9  A    between atoms: C_10  and  P_11
REMARK   10  A    between atoms: C_15  and  P_16
REMARK   11  A    between atoms: C_20  and  P_21
REMARK                            x       y       z     vdW  Elec       q    Type
REMARK                         _______ _______ _______ _____ _____    ______ ____
ROOT
ATOM      1  C   UNL     1       0.441   6.544  -4.640  0.00  0.00    +0.090 C 
ENDROOT
BRANCH   1   2
ATOM      2  N   UNL     1      -0.254   5.993  -3.518  0.00  0.00    -0.259 NA
BRANCH   2   3
ATOM      3  C   UNL     1       0.489   5.045  -2.751  0.00  0.00    +0.132 C 
BRANCH   3   4
ATOM      4  P   UNL     1       1.603   5.770  -1.544  0.00  0.00    +0.133 P 
ATOM      5  O   UNL     1       0.648   6.737  -0.520  0.00  0.00    -0.356 OA
ATOM      6  O   UNL     1       2.761   6.775  -2.227  0.00  0.00    -0.356 OA
ATOM      7  O   UNL     1       2.212   4.684  -0.696  0.00  0.00    -0.459 OA
ENDBRANCH   3   4
ENDBRANCH   2   3
BRANCH   2   8
ATOM      8  C   UNL     1      -1.623   5.657  -3.749  0.00  0.00    +0.132 C 
BRANCH   8  10
ATOM      9  O   UNL     1      -4.067   6.402  -2.697  0.00  0.00    -0.459 OA
ATOM     10  P   UNL     1      -2.611   6.275  -2.346  0.00  0.00    +0.133 P 
ATOM     11  O   UNL     1      -2.473   5.191  -1.046  0.00  0.00    -0.356 OA
ATOM     12  O   UNL     1      -2.073   7.778  -1.818  0.00  0.00    -0.356 OA
ENDBRANCH   8  10
ENDBRANCH   2   8
ENDBRANCH   1   2
BRANCH   1  13
ATOM     13  C   UNL     1       0.331   5.742  -5.900  0.00  0.00    +0.090 C 
BRANCH  13  14
ATOM     14  N   UNL     1       1.656   5.687  -6.488  0.00  0.00    -0.259 NA
BRANCH  14  15
ATOM     15  C   UNL     1       1.583   5.483  -7.905  0.00  0.00    +0.132 C 
BRANCH  15  16
ATOM     16  P   UNL     1       2.063   6.906  -8.887  0.00  0.00    +0.133 P 
ATOM     17  O   UNL     1       3.480   6.669  -9.755  0.00  0.00    -0.356 OA
ATOM     18  O   UNL     1       2.122   8.283  -7.921  0.00  0.00    -0.356 OA
ATOM     19  O   UNL     1       0.961   7.137  -9.911  0.00  0.00    -0.459 OA
ENDBRANCH  15  16
ENDBRANCH  14  15
BRANCH  14  20
ATOM     20  C   UNL     1       2.549   4.798  -5.801  0.00  0.00    +0.132 C 
BRANCH  20  21
ATOM     21  P   UNL     1       4.136   5.672  -5.614  0.00  0.00    +0.133 P 
ATOM     22  O   UNL     1       5.029   5.418  -7.030  0.00  0.00    -0.356 OA
ATOM     23  O   UNL     1       4.998   4.923  -4.356  0.00  0.00    -0.356 OA
ATOM     24  O   UNL     1       3.945   7.129  -5.314  0.00  0.00    -0.459 OA
ENDBRANCH  20  21
ENDBRANCH  14  20
ENDBRANCH  13  14
ENDBRANCH   1  13
TORSDOF 11
ENDMDL
MODEL 9
REMARK VINA RESULT:      -5.8      4.173      8.944
REMARK  Name = 
REMARK  11 active torsions:
REMARK  status: ('A' for Active; 'I' for Inactive)
REMARK    1  A    between atoms: P_2  and  C_5
REMARK    2  A    between atoms: C_5  and  N_6
REMARK    3  A    between atoms: N_6  and  C_7
REMARK    4  A    between atoms: N_6  and  C_20
REMARK    5  A    between atoms: C_7  and  C_8
REMARK    6  A    between atoms: C_8  and  N_9
REMARK    7  A    between atoms: N_9  and  C_10
REMARK    8  A    between atoms: N_9  and  C_15
REMARK    9  A    between atoms: C_10  and  P_11
REMARK   10  A    between atoms: C_15  and  P_16
REMARK   11  A    between atoms: C_20  and  P_21
REMARK                            x       y       z     vdW  Elec       q    Type
REMARK                         _______ _______ _______ _____ _____    ______ ____
ROOT
ATOM      1  C   UNL     1       0.558   5.929  -5.679  0.00  0.00    +0.090 C 
ENDROOT
BRANCH   1   2
ATOM      2  N   UNL     1       1.649   5.646  -6.559  0.00  0.00    -0.259 NA
BRANCH   2   3
ATOM      3  C   UNL     1       1.301   5.531  -7.939  0.00  0.00    +0.132 C 
BRANCH   3   4
ATOM      4  P   UNL     1       1.824   6.913  -8.959  0.00  0.00    +0.133 P 
ATOM      5  O   UNL     1       3.261   6.429  -9.733  0.00  0.00    -0.356 OA
ATOM      6  O   UNL     1       2.185   8.293  -8.074  0.00  0.00    -0.356 OA
ATOM      7  O   UNL     1       0.799   7.170 -10.032  0.00  0.00    -0.459 OA
ENDBRANCH   3   4
ENDBRANCH   2   3
BRANCH   2   8
ATOM      8  C   UNL     1       2.588   4.682  -6.080  0.00  0.00    +0.132 C 
BRANCH   8  10
ATOM      9  O   UNL     1       5.070   5.505  -6.972  0.00  0.00    -0.459 OA
ATOM     10  P   UNL     1       4.173   5.528  -5.766  0.00  0.00    +0.133 P 
ATOM     11  O   UNL     1       3.869   7.149  -5.364  0.00  0.00    -0.356 OA
ATOM     12  O   UNL     1       5.010   4.830  -4.484  0.00  0.00    -0.356 OA
ENDBRANCH   8  10
ENDBRANCH   2   8
ENDBRANCH   1   2
BRANCH   1  13
ATOM     13  C   UNL     1       0.412   4.976  -4.533  0.00  0.00    +0.090 C 
BRANCH  13  14
ATOM     14  N   UNL     1       0.203   5.773  -3.339  0.00  0.00    -0.259 NA
BRANCH  14  15
ATOM     15  C   UNL     1      -0.915   6.655  -3.498  0.00  0.00    +0.132 C 
BRANCH  15  16
ATOM     16  P   UNL     1      -2.514   5.882  -3.240  0.00  0.00    +0.133 P 
ATOM     17  O   UNL     1      -2.531   4.797  -1.958  0.00  0.00    -0.356 OA
ATOM     18  O   UNL     1      -3.062   5.193  -4.675  0.00  0.00    -0.356 OA
ATOM     19  O   UNL     1      -3.496   6.989  -2.884  0.00  0.00    -0.459 OA
ENDBRANCH  15  16
ENDBRANCH  14  15
BRANCH  14  20
ATOM     20  C   UNL     1       1.398   6.403  -2.856  0.00  0.00    +0.132 C 
BRANCH  20  21
ATOM     21  P   UNL     1       1.874   5.547  -1.321  0.00  0.00    +0.133 P 
ATOM     22  O   UNL     1       3.397   4.851  -1.574  0.00  0.00    -0.356 OA
ATOM     23  O   UNL     1       0.787   4.263  -1.082  0.00  0.00    -0.356 OA
ATOM     24  O   UNL     1       1.857   6.466  -0.135  0.00  0.00    -0.459 OA
ENDBRANCH  20  21
ENDBRANCH  14  20
ENDBRANCH  13  14
ENDBRANCH   1  13
TORSDOF 11
ENDMDL
