MODEL 1
REMARK VINA RESULT:      -6.0      0.000      0.000
REMARK  Name = 
REMARK  5 active torsions:
REMARK  status: ('A' for Active; 'I' for Inactive)
REMARK    1  A    between atoms: N_8  and  C_9
REMARK    2  A    between atoms: C_9  and  O_10
REMARK    3  A    between atoms: O_10  and  C_11
REMARK    4  A    between atoms: C_11  and  C_12
REMARK    5  A    between atoms: C_11  and  C_14
REMARK                            x       y       z     vdW  Elec       q    Type
REMARK                         _______ _______ _______ _____ _____    ______ ____
ROOT
ATOM      1  N   UNL     1      -2.586   6.066  -6.444  0.00  0.00    -0.086 NA
ATOM      2  C   UNL     1      -2.007   5.688  -5.190  0.00  0.00    +0.261 A 
ATOM      3  N   UNL     1      -2.745   5.636  -4.054  0.00  0.00    -0.171 NA
ATOM      4  C   UNL     1      -2.104   5.431  -2.878  0.00  0.00    +0.302 A 
ATOM      5  O   UNL     1      -2.661   4.840  -1.903  0.00  0.00    -0.263 OA
ATOM      6  C   UNL     1      -0.717   5.481  -2.825  0.00  0.00    +0.175 A 
ATOM      7  N   UNL     1       0.066   5.971  -1.842  0.00  0.00    -0.217 NA
ATOM      8  C   UNL     1       1.279   6.229  -2.376  0.00  0.00    +0.182 A 
ATOM      9  N   UNL     1       1.267   6.026  -3.696  0.00  0.00    -0.268 N 
ATOM     10  C   UNL     1       0.028   5.554  -3.980  0.00  0.00    +0.172 A 
ATOM     11  N   UNL     1      -0.668   5.563  -5.141  0.00  0.00    -0.192 NA
ENDROOT
BRANCH   9  12
ATOM     12  C   UNL     1       2.421   5.703  -4.512  0.00  0.00    +0.258 C 
BRANCH  12  13
ATOM     13  O   UNL     1       2.958   6.852  -5.064  0.00  0.00    -0.329 OA
BRANCH  13  14
ATOM     14  C   UNL     1       3.113   6.760  -6.456  0.00  0.00    +0.183 C 
BRANCH  14  15
ATOM     15  C   UNL     1       1.853   7.294  -7.128  0.00  0.00    +0.214 C 
ATOM     16  O   UNL     1       2.148   8.388  -7.924  0.00  0.00    -0.218 OA
ENDBRANCH  14  15
BRANCH  14  17
ATOM     17  C   UNL     1       3.130   5.267  -6.767  0.00  0.00    +0.214 C 
ATOM     18  O   UNL     1       3.349   5.024  -8.110  0.00  0.00    -0.218 OA
ENDBRANCH  14  17
ENDBRANCH  13  14
ENDBRANCH  12  13
ENDBRANCH   9  12
TORSDOF 5
ENDMDL
MODEL 2
REMARK VINA RESULT:      -6.0      2.452      5.778
REMARK  Name = 
REMARK  5 active torsions:
REMARK  status: ('A' for Active; 'I' for Inactive)
REMARK    1  A    between atoms: N_8  and  C_9
REMARK    2  A    between atoms: C_9  and  O_10
REMARK    3  A    between atoms: O_10  and  C_11
REMARK    4  A    between atoms: C_11  and  C_12
REMARK    5  A    between atoms: C_11  and  C_14
REMARK                            x       y       z     vdW  Elec       q    Type
REMARK                         _______ _______ _______ _____ _____    ______ ____
ROOT
ATOM      1  N   UNL     1       3.971   7.515  -5.085  0.00  0.00    -0.086 NA
ATOM      2  C   UNL     1       2.926   6.555  -5.278  0.00  0.00    +0.261 A 
ATOM      3  N   UNL     1       3.114   5.442  -6.028  0.00  0.00    -0.171 NA
ATOM      4  C   UNL     1       2.042   4.661  -6.304  0.00  0.00    +0.302 A 
ATOM      5  O   UNL     1       2.150   3.411  -6.486  0.00  0.00    -0.263 OA
ATOM      6  C   UNL     1       0.762   5.106  -5.998  0.00  0.00    +0.175 A 
ATOM      7  N   UNL     1      -0.377   4.922  -6.695  0.00  0.00    -0.217 NA
ATOM      8  C   UNL     1      -1.257   5.867  -6.296  0.00  0.00    +0.182 A 
ATOM      9  N   UNL     1      -0.680   6.720  -5.446  0.00  0.00    -0.268 N 
ATOM     10  C   UNL     1       0.575   6.247  -5.251  0.00  0.00    +0.172 A 
ATOM     11  N   UNL     1       1.697   6.884  -4.840  0.00  0.00    -0.192 NA
ENDROOT
BRANCH   9  12
ATOM     12  C   UNL     1      -1.371   7.512  -4.445  0.00  0.00    +0.258 C 
BRANCH  12  13
ATOM     13  O   UNL     1      -1.327   6.878  -3.216  0.00  0.00    -0.329 OA
BRANCH  13  14
ATOM     14  C   UNL     1      -2.430   7.192  -2.408  0.00  0.00    +0.183 C 
BRANCH  14  15
ATOM     15  C   UNL     1      -2.013   7.095  -0.945  0.00  0.00    +0.214 C 
ATOM     16  O   UNL     1      -1.586   8.325  -0.473  0.00  0.00    -0.218 OA
ENDBRANCH  14  15
BRANCH  14  17
ATOM     17  C   UNL     1      -3.426   6.056  -2.616  0.00  0.00    +0.214 C 
ATOM     18  O   UNL     1      -2.807   4.820  -2.600  0.00  0.00    -0.218 OA
ENDBRANCH  14  17
ENDBRANCH  13  14
ENDBRANCH  12  13
ENDBRANCH   9  12
TORSDOF 5
ENDMDL
MODEL 3
REMARK VINA RESULT:      -5.9      1.628      3.125
REMARK  Name = 
REMARK  5 active torsions:
REMARK  status: ('A' for Active; 'I' for Inactive)
REMARK    1  A    between atoms: N_8  and  C_9
REMARK    2  A    between atoms: C_9  and  O_10
REMARK    3  A    between atoms: O_10  and  C_11
REMARK    4  A    between atoms: C_11  and  C_12
REMARK    5  A    between atoms: C_11  and  C_14
REMARK                            x       y       z     vdW  Elec       q    Type
REMARK                         _______ _______ _______ _____ _____    ______ ____
ROOT
ATOM      1  N   UNL     1       0.428   4.643  -1.420  0.00  0.00    -0.086 NA
ATOM      2  C   UNL     1      -0.484   5.164  -2.395  0.00  0.00    +0.261 A 
ATOM      3  N   UNL     1      -1.825   5.059  -2.239  0.00  0.00    -0.171 NA
ATOM      4  C   UNL     1      -2.625   5.424  -3.270  0.00  0.00    +0.302 A 
ATOM      5  O   UNL     1      -3.793   5.883  -3.085  0.00  0.00    -0.263 OA
ATOM      6  C   UNL     1      -2.072   5.700  -4.514  0.00  0.00    +0.175 A 
ATOM      7  N   UNL     1      -2.574   5.420  -5.734  0.00  0.00    -0.217 NA
ATOM      8  C   UNL     1      -1.549   5.445  -6.613  0.00  0.00    +0.182 A 
ATOM      9  N   UNL     1      -0.387   5.620  -5.979  0.00  0.00    -0.268 N 
ATOM     10  C   UNL     1      -0.707   5.786  -4.672  0.00  0.00    +0.172 A 
ATOM     11  N   UNL     1       0.038   5.599  -3.557  0.00  0.00    -0.192 NA
ENDROOT
BRANCH   9  12
ATOM     12  C   UNL     1       0.814   6.193  -6.558  0.00  0.00    +0.258 C 
BRANCH  12  13
ATOM     13  O   UNL     1       1.252   5.422  -7.619  0.00  0.00    -0.329 OA
BRANCH  13  14
ATOM     14  C   UNL     1       2.401   4.679  -7.309  0.00  0.00    +0.183 C 
BRANCH  14  15
ATOM     15  C   UNL     1       3.592   5.627  -7.221  0.00  0.00    +0.214 C 
ATOM     16  O   UNL     1       4.297   5.421  -6.047  0.00  0.00    -0.218 OA
ENDBRANCH  14  15
BRANCH  14  17
ATOM     17  C   UNL     1       2.670   3.811  -8.534  0.00  0.00    +0.214 C 
ATOM     18  O   UNL     1       3.935   4.023  -9.047  0.00  0.00    -0.218 OA
ENDBRANCH  14  17
ENDBRANCH  13  14
ENDBRANCH  12  13
ENDBRANCH   9  12
TORSDOF 5
ENDMDL
MODEL 4
REMARK VINA RESULT:      -5.8      2.989      5.919
REMARK  Name = 
REMARK  5 active torsions:
REMARK  status: ('A' for Active; 'I' for Inactive)
REMARK    1  A    between atoms: N_8  and  C_9
REMARK    2  A    between atoms: C_9  and  O_10
REMARK    3  A    between atoms: O_10  and  C_11
REMARK    4  A    between atoms: C_11  and  C_12
REMARK    5  A    between atoms: C_11  and  C_14
REMARK                            x       y       z     vdW  Elec       q    Type
REMARK                         _______ _______ _______ _____ _____    ______ ____
ROOT
ATOM      1  N   UNL     1       0.343   6.355 -11.008  0.00  0.00    -0.086 NA
ATOM      2  C   UNL     1       1.123   5.886  -9.901  0.00  0.00    +0.261 A 
ATOM      3  N   UNL     1       2.158   5.030 -10.075  0.00  0.00    -0.171 NA
ATOM      4  C   UNL     1       2.748   4.499  -8.976  0.00  0.00    +0.302 A 
ATOM      5  O   UNL     1       3.974   4.171  -8.964  0.00  0.00    -0.263 OA
ATOM      6  C   UNL     1       2.171   4.674  -7.726  0.00  0.00    +0.175 A 
ATOM      7  N   UNL     1       2.115   3.800  -6.700  0.00  0.00    -0.217 NA
ATOM      8  C   UNL     1       1.111   4.190  -5.885  0.00  0.00    +0.182 A 
ATOM      9  N   UNL     1       0.446   5.221  -6.414  0.00  0.00    -0.268 N 
ATOM     10  C   UNL     1       1.106   5.531  -7.557  0.00  0.00    +0.172 A 
ATOM     11  N   UNL     1       0.680   6.182  -8.666  0.00  0.00    -0.192 NA
ENDROOT
BRANCH   9  12
ATOM     12  C   UNL     1      -0.313   6.207  -5.670  0.00  0.00    +0.258 C 
BRANCH  12  13
ATOM     13  O   UNL     1      -1.664   5.911  -5.716  0.00  0.00    -0.329 OA
BRANCH  13  14
ATOM     14  C   UNL     1      -2.341   6.292  -4.548  0.00  0.00    +0.183 C 
BRANCH  14  15
ATOM     15  C   UNL     1      -1.945   7.722  -4.194  0.00  0.00    +0.214 C 
ATOM     16  O   UNL     1      -2.143   7.965  -2.845  0.00  0.00    -0.218 OA
ENDBRANCH  14  15
BRANCH  14  17
ATOM     17  C   UNL     1      -1.754   5.429  -3.436  0.00  0.00    +0.214 C 
ATOM     18  O   UNL     1      -2.728   4.692  -2.789  0.00  0.00    -0.218 OA
ENDBRANCH  14  17
ENDBRANCH  13  14
ENDBRANCH  12  13
ENDBRANCH   9  12
TORSDOF 5
ENDMDL
MODEL 5
REMARK VINA RESULT:      -5.7      2.641      5.778
REMARK  Name = 
REMARK  5 active torsions:
REMARK  status: ('A' for Active; 'I' for Inactive)
REMARK    1  A    between atoms: N_8  and  C_9
REMARK    2  A    between atoms: C_9  and  O_10
REMARK    3  A    between atoms: O_10  and  C_11
REMARK    4  A    between atoms: C_11  and  C_12
REMARK    5  A    between atoms: C_11  and  C_14
REMARK                            x       y       z     vdW  Elec       q    Type
REMARK                         _______ _______ _______ _____ _____    ______ ____
ROOT
ATOM      1  N   UNL     1       2.801   7.509  -0.552  0.00  0.00    -0.086 NA
ATOM      2  C   UNL     1       3.153   7.225  -1.910  0.00  0.00    +0.261 A 
ATOM      3  N   UNL     1       4.214   7.820  -2.508  0.00  0.00    -0.171 NA
ATOM      4  C   UNL     1       4.394   7.632  -3.838  0.00  0.00    +0.302 A 
ATOM      5  O   UNL     1       5.546   7.647  -4.369  0.00  0.00    -0.263 OA
ATOM      6  C   UNL     1       3.404   7.017  -4.593  0.00  0.00    +0.175 A 
ATOM      7  N   UNL     1       3.020   7.294  -5.855  0.00  0.00    -0.217 NA
ATOM      8  C   UNL     1       1.777   6.791  -6.025  0.00  0.00    +0.182 A 
ATOM      9  N   UNL     1       1.307   6.298  -4.876  0.00  0.00    -0.268 N 
ATOM     10  C   UNL     1       2.318   6.430  -3.983  0.00  0.00    +0.172 A 
ATOM     11  N   UNL     1       2.290   6.485  -2.630  0.00  0.00    -0.192 NA
ENDROOT
BRANCH   9  12
ATOM     12  C   UNL     1       0.296   5.265  -4.751  0.00  0.00    +0.258 C 
BRANCH  12  13
ATOM     13  O   UNL     1      -0.714   5.680  -3.903  0.00  0.00    -0.329 OA
BRANCH  13  14
ATOM     14  C   UNL     1      -1.939   5.851  -4.566  0.00  0.00    +0.183 C 
BRANCH  14  15
ATOM     15  C   UNL     1      -2.240   7.342  -4.669  0.00  0.00    +0.214 C 
ATOM     16  O   UNL     1      -2.048   7.967  -3.447  0.00  0.00    -0.218 OA
ENDBRANCH  14  15
BRANCH  14  17
ATOM     17  C   UNL     1      -2.997   5.294  -3.619  0.00  0.00    +0.214 C 
ATOM     18  O   UNL     1      -2.434   4.745  -2.483  0.00  0.00    -0.218 OA
ENDBRANCH  14  17
ENDBRANCH  13  14
ENDBRANCH  12  13
ENDBRANCH   9  12
TORSDOF 5
ENDMDL
MODEL 6
REMARK VINA RESULT:      -5.7      3.509      5.670
REMARK  Name = 
REMARK  5 active torsions:
REMARK  status: ('A' for Active; 'I' for Inactive)
REMARK    1  A    between atoms: N_8  and  C_9
REMARK    2  A    between atoms: C_9  and  O_10
REMARK    3  A    between atoms: O_10  and  C_11
REMARK    4  A    between atoms: C_11  and  C_12
REMARK    5  A    between atoms: C_11  and  C_14
REMARK                            x       y       z     vdW  Elec       q    Type
REMARK                         _______ _______ _______ _____ _____    ______ ____
ROOT
ATOM      1  N   UNL     1       5.143   7.816  -3.876  0.00  0.00    -0.086 NA
ATOM      2  C   UNL     1       4.278   7.391  -2.816  0.00  0.00    +0.261 A 
ATOM      3  N   UNL     1       4.765   7.016  -1.609  0.00  0.00    -0.171 NA
ATOM      4  C   UNL     1       3.911   6.472  -0.709  0.00  0.00    +0.302 A 
ATOM      5  O   UNL     1       4.084   6.594   0.542  0.00  0.00    -0.263 OA
ATOM      6  C   UNL     1       2.623   6.125  -1.096  0.00  0.00    +0.175 A 
ATOM      7  N   UNL     1       1.888   5.064  -0.705  0.00  0.00    -0.217 NA
ATOM      8  C   UNL     1       0.924   4.871  -1.631  0.00  0.00    +0.182 A 
ATOM      9  N   UNL     1       1.085   5.705  -2.662  0.00  0.00    -0.268 N 
ATOM     10  C   UNL     1       2.138   6.492  -2.331  0.00  0.00    +0.172 A 
ATOM     11  N   UNL     1       2.980   7.205  -3.117  0.00  0.00    -0.192 NA
ENDROOT
BRANCH   9  12
ATOM     12  C   UNL     1       0.036   6.154  -3.557  0.00  0.00    +0.258 C 
BRANCH  12  13
ATOM     13  O   UNL     1      -1.088   6.519  -2.837  0.00  0.00    -0.329 OA
BRANCH  13  14
ATOM     14  C   UNL     1      -2.227   6.649  -3.645  0.00  0.00    +0.183 C 
BRANCH  14  15
ATOM     15  C   UNL     1      -3.245   5.590  -3.237  0.00  0.00    +0.214 C 
ATOM     16  O   UNL     1      -2.727   4.766  -2.251  0.00  0.00    -0.218 OA
ENDBRANCH  14  15
BRANCH  14  17
ATOM     17  C   UNL     1      -1.780   6.254  -5.049  0.00  0.00    +0.214 C 
ATOM     18  O   UNL     1      -2.711   5.448  -5.677  0.00  0.00    -0.218 OA
ENDBRANCH  14  17
ENDBRANCH  13  14
ENDBRANCH  12  13
ENDBRANCH   9  12
TORSDOF 5
ENDMDL
MODEL 7
REMARK VINA RESULT:      -5.6      2.413      4.138
REMARK  Name = 
REMARK  5 active torsions:
REMARK  status: ('A' for Active; 'I' for Inactive)
REMARK    1  A    between atoms: N_8  and  C_9
REMARK    2  A    between atoms: C_9  and  O_10
REMARK    3  A    between atoms: O_10  and  C_11
REMARK    4  A    between atoms: C_11  and  C_12
REMARK    5  A    between atoms: C_11  and  C_14
REMARK                            x       y       z     vdW  Elec       q    Type
REMARK                         _______ _______ _______ _____ _____    ______ ____
ROOT
ATOM      1  N   UNL     1      -2.406   5.058  -1.845  0.00  0.00    -0.086 NA
ATOM      2  C   UNL     1      -1.880   5.426  -3.126  0.00  0.00    +0.261 A 
ATOM      3  N   UNL     1      -2.682   5.559  -4.210  0.00  0.00    -0.171 NA
ATOM      4  C   UNL     1      -2.103   5.747  -5.421  0.00  0.00    +0.302 A 
ATOM      5  O   UNL     1      -2.676   6.401  -6.345  0.00  0.00    -0.263 OA
ATOM      6  C   UNL     1      -0.730   5.601  -5.564  0.00  0.00    +0.175 A 
ATOM      7  N   UNL     1      -0.048   5.082  -6.605  0.00  0.00    -0.217 NA
ATOM      8  C   UNL     1       1.175   4.725  -6.156  0.00  0.00    +0.182 A 
ATOM      9  N   UNL     1       1.260   4.895  -4.833  0.00  0.00    -0.268 N 
ATOM     10  C   UNL     1       0.079   5.446  -4.461  0.00  0.00    +0.172 A 
ATOM     11  N   UNL     1      -0.542   5.457  -3.257  0.00  0.00    -0.192 NA
ENDROOT
BRANCH   9  12
ATOM     12  C   UNL     1       2.484   5.116  -4.087  0.00  0.00    +0.258 C 
BRANCH  12  13
ATOM     13  O   UNL     1       2.628   6.457  -3.783  0.00  0.00    -0.329 OA
BRANCH  13  14
ATOM     14  C   UNL     1       3.337   6.668  -2.591  0.00  0.00    +0.183 C 
BRANCH  14  15
ATOM     15  C   UNL     1       2.372   6.554  -1.416  0.00  0.00    +0.214 C 
ATOM     16  O   UNL     1       2.838   5.641  -0.485  0.00  0.00    -0.218 OA
ENDBRANCH  14  15
BRANCH  14  17
ATOM     17  C   UNL     1       3.761   8.133  -2.621  0.00  0.00    +0.214 C 
ATOM     18  O   UNL     1       4.058   8.608  -1.358  0.00  0.00    -0.218 OA
ENDBRANCH  14  17
ENDBRANCH  13  14
ENDBRANCH  12  13
ENDBRANCH   9  12
TORSDOF 5
ENDMDL
MODEL 8
REMARK VINA RESULT:      -5.6      3.055      5.555
REMARK  Name = 
REMARK  5 active torsions:
REMARK  status: ('A' for Active; 'I' for Inactive)
REMARK    1  A    between atoms: N_8  and  C_9
REMARK    2  A    between atoms: C_9  and  O_10
REMARK    3  A    between atoms: O_10  and  C_11
REMARK    4  A    between atoms: C_11  and  C_12
REMARK    5  A    between atoms: C_11  and  C_14
REMARK                            x       y       z     vdW  Elec       q    Type
REMARK                         _______ _______ _______ _____ _____    ______ ____
ROOT
ATOM      1  N   UNL     1       2.439   8.077   0.393  0.00  0.00    -0.086 NA
ATOM      2  C   UNL     1       2.772   6.921  -0.384  0.00  0.00    +0.261 A 
ATOM      3  N   UNL     1       3.847   6.152  -0.087  0.00  0.00    -0.171 NA
ATOM      4  C   UNL     1       4.200   5.172  -0.955  0.00  0.00    +0.302 A 
ATOM      5  O   UNL     1       4.772   4.107  -0.570  0.00  0.00    -0.263 OA
ATOM      6  C   UNL     1       3.597   5.102  -2.204  0.00  0.00    +0.175 A 
ATOM      7  N   UNL     1       4.152   4.756  -3.383  0.00  0.00    -0.217 NA
ATOM      8  C   UNL     1       3.363   5.244  -4.365  0.00  0.00    +0.182 A 
ATOM      9  N   UNL     1       2.379   5.989  -3.854  0.00  0.00    -0.268 N 
ATOM     10  C   UNL     1       2.516   5.898  -2.508  0.00  0.00    +0.172 A 
ATOM     11  N   UNL     1       2.088   6.727  -1.526  0.00  0.00    -0.192 NA
ENDROOT
BRANCH   9  12
ATOM     12  C   UNL     1       1.098   6.243  -4.484  0.00  0.00    +0.258 C 
BRANCH  12  13
ATOM     13  O   UNL     1       0.201   5.237  -4.175  0.00  0.00    -0.329 OA
BRANCH  13  14
ATOM     14  C   UNL     1      -1.132   5.673  -4.206  0.00  0.00    +0.183 C 
BRANCH  14  15
ATOM     15  C   UNL     1      -1.156   7.159  -4.550  0.00  0.00    +0.214 C 
ATOM     16  O   UNL     1      -2.459   7.614  -4.667  0.00  0.00    -0.218 OA
ENDBRANCH  14  15
BRANCH  14  17
ATOM     17  C   UNL     1      -1.624   5.589  -2.765  0.00  0.00    +0.214 C 
ATOM     18  O   UNL     1      -2.699   4.730  -2.638  0.00  0.00    -0.218 OA
ENDBRANCH  14  17
ENDBRANCH  13  14
ENDBRANCH  12  13
ENDBRANCH   9  12
TORSDOF 5
ENDMDL
MODEL 9
REMARK VINA RESULT:      -5.6      4.055      5.944
REMARK  Name = 
REMARK  5 active torsions:
REMARK  status: ('A' for Active; 'I' for Inactive)
REMARK    1  A    between atoms: N_8  and  C_9
REMARK    2  A    between atoms: C_9  and  O_10
REMARK    3  A    between atoms: O_10  and  C_11
REMARK    4  A    between atoms: C_11  and  C_12
REMARK    5  A    between atoms: C_11  and  C_14
REMARK                            x       y       z     vdW  Elec       q    Type
REMARK                         _______ _______ _______ _____ _____    ______ ____
ROOT
ATOM      1  N   UNL     1       4.794   6.136  -4.008  0.00  0.00    -0.086 NA
ATOM      2  C   UNL     1       3.904   5.696  -5.042  0.00  0.00    +0.261 A 
ATOM      3  N   UNL     1       2.838   4.905  -4.771  0.00  0.00    -0.171 NA
ATOM      4  C   UNL     1       2.135   4.392  -5.810  0.00  0.00    +0.302 A 
ATOM      5  O   UNL     1       0.895   4.136  -5.721  0.00  0.00    -0.263 OA
ATOM      6  C   UNL     1       2.622   4.513  -7.105  0.00  0.00    +0.175 A 
ATOM      7  N   UNL     1       2.547   3.621  -8.113  0.00  0.00    -0.217 NA
ATOM      8  C   UNL     1       3.506   3.937  -9.011  0.00  0.00    +0.182 A 
ATOM      9  N   UNL     1       4.267   4.936  -8.556  0.00  0.00    -0.268 N 
ATOM     10  C   UNL     1       3.718   5.302  -7.373  0.00  0.00    +0.172 A 
ATOM     11  N   UNL     1       4.266   5.945  -6.313  0.00  0.00    -0.192 NA
ENDROOT
BRANCH   9  12
ATOM     12  C   UNL     1       5.022   5.863  -9.377  0.00  0.00    +0.258 C 
BRANCH  12  13
ATOM     13  O   UNL     1       6.380   5.684  -9.181  0.00  0.00    -0.329 OA
BRANCH  13  14
ATOM     14  C   UNL     1       7.111   5.754 -10.377  0.00  0.00    +0.183 C 
BRANCH  14  15
ATOM     15  C   UNL     1       7.667   7.165 -10.533  0.00  0.00    +0.214 C 
ATOM     16  O   UNL     1       6.763   7.977 -11.198  0.00  0.00    -0.218 OA
ENDBRANCH  14  15
BRANCH  14  17
ATOM     17  C   UNL     1       6.083   5.604 -11.494  0.00  0.00    +0.214 C 
ATOM     18  O   UNL     1       6.617   4.977 -12.603  0.00  0.00    -0.218 OA
ENDBRANCH  14  17
ENDBRANCH  13  14
ENDBRANCH  12  13
ENDBRANCH   9  12
TORSDOF 5
ENDMDL
