MODEL 1
REMARK VINA RESULT:      -9.3      0.000      0.000
REMARK  Name = 
REMARK  8 active torsions:
REMARK  status: ('A' for Active; 'I' for Inactive)
REMARK    1  A    between atoms: C_2  and  C_3
REMARK    2  A    between atoms: C_2  and  C_9
REMARK    3  A    between atoms: C_2  and  C_15
REMARK    4  A    between atoms: N_18  and  C_19
REMARK    5  A    between atoms: C_19  and  C_20
REMARK    6  A    between atoms: C_20  and  O_21
REMARK    7  A    between atoms: O_21  and  C_22
REMARK    8  A    between atoms: C_22  and  C_23
REMARK                            x       y       z     vdW  Elec       q    Type
REMARK                         _______ _______ _______ _____ _____    ______ ____
ROOT
ATOM      1  C   UNL     1       1.595   5.503  -7.210  0.00  0.00    +0.050 C 
ATOM      2  C   UNL     1       0.101   5.402  -7.315  0.00  0.00    +0.064 C 
ATOM      3  C   UNL     1      -0.491   6.105  -6.100  0.00  0.00    +0.109 C 
ATOM      4  N   UNL     1       0.493   6.015  -5.028  0.00  0.00    +0.299 N 
ATOM      5  C   UNL     1       1.074   4.697  -4.966  0.00  0.00    +0.109 C 
ATOM      6  C   UNL     1       1.515   7.018  -5.296  0.00  0.00    +0.109 C 
ATOM      7  C   UNL     1       2.030   4.526  -6.140  0.00  0.00    +0.064 C 
ATOM      8  C   UNL     1       1.933   6.898  -6.751  0.00  0.00    +0.064 C 
ENDROOT
BRANCH   1  10
ATOM      9  O   UNL     1       2.434   3.751  -8.533  0.00  0.00    -0.217 OA
ATOM     10  C   UNL     1       2.266   5.129  -8.496  0.00  0.00    +0.164 C 
BRANCH  10  11
ATOM     11  C   UNL     1       3.595   5.810  -8.603  0.00  0.00    +0.009 A 
ATOM     12  C   UNL     1       3.819   6.754  -9.599  0.00  0.00    -0.002 A 
ATOM     13  C   UNL     1       4.976   6.741 -10.370  0.00  0.00    -0.000 A 
ATOM     14  C   UNL     1       6.035   5.926  -9.992  0.00  0.00    -0.000 A 
ATOM     15  C   UNL     1       5.950   5.357  -8.727  0.00  0.00    -0.000 A 
ATOM     16  C   UNL     1       4.744   5.272  -8.040  0.00  0.00    -0.002 A 
ENDBRANCH  10  11
BRANCH  10  17
ATOM     17  C   UNL     1       1.493   5.521  -9.698  0.00  0.00    +0.009 A 
ATOM     18  C   UNL     1       0.981   6.776  -9.908  0.00  0.00    -0.002 A 
ATOM     19  C   UNL     1       0.121   7.029 -10.964  0.00  0.00    -0.000 A 
ATOM     20  C   UNL     1      -0.490   5.988 -11.643  0.00  0.00    -0.000 A 
ATOM     21  C   UNL     1       0.085   4.732 -11.501  0.00  0.00    -0.000 A 
ATOM     22  C   UNL     1       0.979   4.497 -10.481  0.00  0.00    -0.002 A 
ENDBRANCH  10  17
ENDBRANCH   1  10
BRANCH   4  23
ATOM     23  C   UNL     1      -0.185   6.244  -3.772  0.00  0.00    +0.141 C 
BRANCH  23  24
ATOM     24  C   UNL     1       0.601   5.475  -2.720  0.00  0.00    +0.203 C 
BRANCH  24  25
ATOM     25  O   UNL     1       1.395   6.306  -1.951  0.00  0.00    -0.343 OA
BRANCH  25  26
ATOM     26  C   UNL     1       2.503   5.573  -1.524  0.00  0.00    +0.169 C 
BRANCH  26  27
ATOM     27  C   UNL     1       3.683   6.021  -2.319  0.00  0.00    +0.007 A 
ATOM     28  C   UNL     1       4.327   5.130  -3.166  0.00  0.00    -0.002 A 
ATOM     29  C   UNL     1       4.966   5.579  -4.299  0.00  0.00    -0.000 A 
ATOM     30  C   UNL     1       5.011   6.929  -4.604  0.00  0.00    -0.000 A 
ATOM     31  C   UNL     1       4.735   7.803  -3.577  0.00  0.00    -0.000 A 
ATOM     32  C   UNL     1       3.982   7.352  -2.503  0.00  0.00    -0.002 A 
ENDBRANCH  26  27
ENDBRANCH  25  26
ENDBRANCH  24  25
ENDBRANCH  23  24
ENDBRANCH   4  23
TORSDOF 8
ENDMDL
MODEL 2
REMARK VINA RESULT:      -9.2      2.036      7.526
REMARK  Name = 
REMARK  8 active torsions:
REMARK  status: ('A' for Active; 'I' for Inactive)
REMARK    1  A    between atoms: C_2  and  C_3
REMARK    2  A    between atoms: C_2  and  C_9
REMARK    3  A    between atoms: C_2  and  C_15
REMARK    4  A    between atoms: N_18  and  C_19
REMARK    5  A    between atoms: C_19  and  C_20
REMARK    6  A    between atoms: C_20  and  O_21
REMARK    7  A    between atoms: O_21  and  C_22
REMARK    8  A    between atoms: C_22  and  C_23
REMARK                            x       y       z     vdW  Elec       q    Type
REMARK                         _______ _______ _______ _____ _____    ______ ____
ROOT
ATOM      1  C   UNL     1       3.155   5.599  -8.024  0.00  0.00    +0.050 C 
ATOM      2  C   UNL     1       4.636   5.399  -7.882  0.00  0.00    +0.064 C 
ATOM      3  C   UNL     1       5.300   6.015  -9.107  0.00  0.00    +0.109 C 
ATOM      4  N   UNL     1       4.333   5.955 -10.198  0.00  0.00    +0.299 N 
ATOM      5  C   UNL     1       3.663   4.679 -10.226  0.00  0.00    +0.109 C 
ATOM      6  C   UNL     1       3.378   7.034  -9.987  0.00  0.00    +0.109 C 
ATOM      7  C   UNL     1       2.674   4.616  -9.069  0.00  0.00    +0.064 C 
ATOM      8  C   UNL     1       2.924   6.996  -8.539  0.00  0.00    +0.064 C 
ENDROOT
BRANCH   1  10
ATOM      9  O   UNL     1       2.309   3.944  -6.585  0.00  0.00    -0.217 OA
ATOM     10  C   UNL     1       2.434   5.318  -6.741  0.00  0.00    +0.164 C 
BRANCH  10  11
ATOM     11  C   UNL     1       1.080   5.957  -6.759  0.00  0.00    +0.009 A 
ATOM     12  C   UNL     1       0.746   6.917  -5.810  0.00  0.00    -0.002 A 
ATOM     13  C   UNL     1      -0.467   6.884  -5.134  0.00  0.00    -0.000 A 
ATOM     14  C   UNL     1      -1.467   6.024  -5.573  0.00  0.00    -0.000 A 
ATOM     15  C   UNL     1      -1.262   5.428  -6.811  0.00  0.00    -0.000 A 
ATOM     16  C   UNL     1      -0.003   5.367  -7.397  0.00  0.00    -0.002 A 
ENDBRANCH  10  11
BRANCH  10  17
ATOM     17  C   UNL     1       3.134   5.846  -5.546  0.00  0.00    +0.009 A 
ATOM     18  C   UNL     1       3.708   7.090  -5.478  0.00  0.00    -0.002 A 
ATOM     19  C   UNL     1       4.497   7.454  -4.398  0.00  0.00    -0.000 A 
ATOM     20  C   UNL     1       4.983   6.497  -3.524  0.00  0.00    -0.000 A 
ATOM     21  C   UNL     1       4.341   5.266  -3.531  0.00  0.00    -0.000 A 
ATOM     22  C   UNL     1       3.516   4.926  -4.580  0.00  0.00    -0.002 A 
ENDBRANCH  10  17
ENDBRANCH   1  10
BRANCH   4  23
ATOM     23  C   UNL     1       5.050   6.091 -11.445  0.00  0.00    +0.141 C 
BRANCH  23  24
ATOM     24  C   UNL     1       4.292   5.253 -12.464  0.00  0.00    +0.203 C 
BRANCH  24  25
ATOM     25  O   UNL     1       3.549   6.033 -13.331  0.00  0.00    -0.343 OA
BRANCH  25  26
ATOM     26  C   UNL     1       2.497   5.256 -13.819  0.00  0.00    +0.169 C 
BRANCH  26  27
ATOM     27  C   UNL     1       1.256   5.656 -13.095  0.00  0.00    +0.007 A 
ATOM     28  C   UNL     1       0.580   4.730 -12.312  0.00  0.00    -0.002 A 
ATOM     29  C   UNL     1      -0.143   5.136 -11.215  0.00  0.00    -0.000 A 
ATOM     30  C   UNL     1      -0.242   6.478 -10.883  0.00  0.00    -0.000 A 
ATOM     31  C   UNL     1       0.078   7.382 -11.870  0.00  0.00    -0.000 A 
ATOM     32  C   UNL     1       0.911   6.975 -12.902  0.00  0.00    -0.002 A 
ENDBRANCH  26  27
ENDBRANCH  25  26
ENDBRANCH  24  25
ENDBRANCH  23  24
ENDBRANCH   4  23
TORSDOF 8
ENDMDL
MODEL 3
REMARK VINA RESULT:      -8.9      1.627      4.707
REMARK  Name = 
REMARK  8 active torsions:
REMARK  status: ('A' for Active; 'I' for Inactive)
REMARK    1  A    between atoms: C_2  and  C_3
REMARK    2  A    between atoms: C_2  and  C_9
REMARK    3  A    between atoms: C_2  and  C_15
REMARK    4  A    between atoms: N_18  and  C_19
REMARK    5  A    between atoms: C_19  and  C_20
REMARK    6  A    between atoms: C_20  and  O_21
REMARK    7  A    between atoms: O_21  and  C_22
REMARK    8  A    between atoms: C_22  and  C_23
REMARK                            x       y       z     vdW  Elec       q    Type
REMARK                         _______ _______ _______ _____ _____    ______ ____
ROOT
ATOM      1  C   UNL     1       2.387   6.354  -6.709  0.00  0.00    +0.050 C 
ATOM      2  C   UNL     1       3.516   6.933  -5.907  0.00  0.00    +0.064 C 
ATOM      3  C   UNL     1       3.562   6.189  -4.579  0.00  0.00    +0.109 C 
ATOM      4  N   UNL     1       2.209   5.722  -4.299  0.00  0.00    +0.299 N 
ATOM      5  C   UNL     1       1.237   6.745  -4.592  0.00  0.00    +0.109 C 
ATOM      6  C   UNL     1       1.981   4.542  -5.124  0.00  0.00    +0.109 C 
ATOM      7  C   UNL     1       1.101   6.877  -6.104  0.00  0.00    +0.064 C 
ATOM      8  C   UNL     1       2.420   4.857  -6.542  0.00  0.00    +0.064 C 
ENDROOT
BRANCH   1  10
ATOM      9  O   UNL     1       2.412   8.175  -8.196  0.00  0.00    -0.217 OA
ATOM     10  C   UNL     1       2.447   6.788  -8.142  0.00  0.00    +0.164 C 
BRANCH  10  11
ATOM     11  C   UNL     1       1.292   6.216  -8.904  0.00  0.00    +0.009 A 
ATOM     12  C   UNL     1       1.270   4.865  -9.231  0.00  0.00    -0.002 A 
ATOM     13  C   UNL     1       0.934   4.428 -10.507  0.00  0.00    -0.000 A 
ATOM     14  C   UNL     1       0.381   5.328 -11.409  0.00  0.00    -0.000 A 
ATOM     15  C   UNL     1      -0.020   6.552 -10.887  0.00  0.00    -0.000 A 
ATOM     16  C   UNL     1       0.443   7.013  -9.660  0.00  0.00    -0.002 A 
ENDBRANCH  10  11
BRANCH  10  17
ATOM     17  C   UNL     1       3.676   6.341  -8.839  0.00  0.00    +0.009 A 
ATOM     18  C   UNL     1       4.640   5.550  -8.268  0.00  0.00    -0.002 A 
ATOM     19  C   UNL     1       5.844   5.314  -8.912  0.00  0.00    -0.000 A 
ATOM     20  C   UNL     1       6.239   6.099  -9.983  0.00  0.00    -0.000 A 
ATOM     21  C   UNL     1       5.242   6.829 -10.617  0.00  0.00    -0.000 A 
ATOM     22  C   UNL     1       4.028   7.019  -9.998  0.00  0.00    -0.002 A 
ENDBRANCH  10  17
ENDBRANCH   1  10
BRANCH   4  23
ATOM     23  C   UNL     1       2.114   5.431  -2.887  0.00  0.00    +0.141 C 
BRANCH  23  24
ATOM     24  C   UNL     1       0.795   6.029  -2.419  0.00  0.00    +0.203 C 
BRANCH  24  25
ATOM     25  O   UNL     1      -0.097   5.059  -1.999  0.00  0.00    -0.343 OA
BRANCH  25  26
ATOM     26  C   UNL     1      -1.247   5.699  -1.537  0.00  0.00    +0.169 C 
BRANCH  26  27
ATOM     27  C   UNL     1      -2.038   6.136  -2.724  0.00  0.00    +0.007 A 
ATOM     28  C   UNL     1      -2.147   7.486  -3.026  0.00  0.00    -0.002 A 
ATOM     29  C   UNL     1      -2.311   7.901  -4.327  0.00  0.00    -0.000 A 
ATOM     30  C   UNL     1      -2.403   6.984  -5.361  0.00  0.00    -0.000 A 
ATOM     31  C   UNL     1      -2.698   5.686  -5.010  0.00  0.00    -0.000 A 
ATOM     32  C   UNL     1      -2.408   5.263  -3.722  0.00  0.00    -0.002 A 
ENDBRANCH  26  27
ENDBRANCH  25  26
ENDBRANCH  24  25
ENDBRANCH  23  24
ENDBRANCH   4  23
TORSDOF 8
ENDMDL
MODEL 4
REMARK VINA RESULT:      -8.7      1.031      3.340
REMARK  Name = 
REMARK  8 active torsions:
REMARK  status: ('A' for Active; 'I' for Inactive)
REMARK    1  A    between atoms: C_2  and  C_3
REMARK    2  A    between atoms: C_2  and  C_9
REMARK    3  A    between atoms: C_2  and  C_15
REMARK    4  A    between atoms: N_18  and  C_19
REMARK    5  A    between atoms: C_19  and  C_20
REMARK    6  A    between atoms: C_20  and  O_21
REMARK    7  A    between atoms: O_21  and  C_22
REMARK    8  A    between atoms: C_22  and  C_23
REMARK                            x       y       z     vdW  Elec       q    Type
REMARK                         _______ _______ _______ _____ _____    ______ ____
ROOT
ATOM      1  C   UNL     1       1.229   6.150  -7.217  0.00  0.00    +0.050 C 
ATOM      2  C   UNL     1       1.985   4.957  -6.709  0.00  0.00    +0.064 C 
ATOM      3  C   UNL     1       1.210   4.394  -5.525  0.00  0.00    +0.109 C 
ATOM      4  N   UNL     1       0.473   5.502  -4.926  0.00  0.00    +0.299 N 
ATOM      5  C   UNL     1       1.295   6.682  -4.835  0.00  0.00    +0.109 C 
ATOM      6  C   UNL     1      -0.693   5.748  -5.764  0.00  0.00    +0.109 C 
ATOM      7  C   UNL     1       1.462   7.274  -6.229  0.00  0.00    +0.064 C 
ATOM      8  C   UNL     1      -0.238   5.805  -7.212  0.00  0.00    +0.064 C 
ENDROOT
BRANCH   1  10
ATOM      9  O   UNL     1       1.804   7.975  -8.582  0.00  0.00    -0.217 OA
ATOM     10  C   UNL     1       1.726   6.589  -8.560  0.00  0.00    +0.164 C 
BRANCH  10  11
ATOM     11  C   UNL     1       0.799   6.111  -9.635  0.00  0.00    +0.009 A 
ATOM     12  C   UNL     1       0.834   4.784 -10.049  0.00  0.00    -0.002 A 
ATOM     13  C   UNL     1       0.836   4.439 -11.395  0.00  0.00    -0.000 A 
ATOM     14  C   UNL     1       0.560   5.414 -12.347  0.00  0.00    -0.000 A 
ATOM     15  C   UNL     1       0.064   6.618 -11.863  0.00  0.00    -0.000 A 
ATOM     16  C   UNL     1       0.197   6.985 -10.529  0.00  0.00    -0.002 A 
ENDBRANCH  10  11
BRANCH  10  17
ATOM     17  C   UNL     1       3.068   6.057  -8.892  0.00  0.00    +0.009 A 
ATOM     18  C   UNL     1       3.845   5.332  -8.024  0.00  0.00    -0.002 A 
ATOM     19  C   UNL     1       5.157   5.015  -8.334  0.00  0.00    -0.000 A 
ATOM     20  C   UNL     1       5.819   5.669  -9.361  0.00  0.00    -0.000 A 
ATOM     21  C   UNL     1       5.024   6.327 -10.290  0.00  0.00    -0.000 A 
ATOM     22  C   UNL     1       3.705   6.595 -10.002  0.00  0.00    -0.002 A 
ENDBRANCH  10  17
ENDBRANCH   1  10
BRANCH   4  23
ATOM     23  C   UNL     1       0.111   5.127  -3.578  0.00  0.00    +0.141 C 
BRANCH  23  24
ATOM     24  C   UNL     1       0.959   5.991  -2.656  0.00  0.00    +0.203 C 
BRANCH  24  25
ATOM     25  O   UNL     1       1.845   5.239  -1.906  0.00  0.00    -0.343 OA
BRANCH  25  26
ATOM     26  C   UNL     1       2.782   6.108  -1.345  0.00  0.00    +0.169 C 
BRANCH  26  27
ATOM     27  C   UNL     1       3.884   6.296  -2.333  0.00  0.00    +0.007 A 
ATOM     28  C   UNL     1       4.300   5.229  -3.118  0.00  0.00    -0.002 A 
ATOM     29  C   UNL     1       4.822   5.446  -4.372  0.00  0.00    -0.000 A 
ATOM     30  C   UNL     1       4.975   6.731  -4.868  0.00  0.00    -0.000 A 
ATOM     31  C   UNL     1       4.943   7.755  -3.949  0.00  0.00    -0.000 A 
ATOM     32  C   UNL     1       4.302   7.543  -2.738  0.00  0.00    -0.002 A 
ENDBRANCH  26  27
ENDBRANCH  25  26
ENDBRANCH  24  25
ENDBRANCH  23  24
ENDBRANCH   4  23
TORSDOF 8
ENDMDL
MODEL 5
REMARK VINA RESULT:      -8.6      2.240      7.274
REMARK  Name = 
REMARK  8 active torsions:
REMARK  status: ('A' for Active; 'I' for Inactive)
REMARK    1  A    between atoms: C_2  and  C_3
REMARK    2  A    between atoms: C_2  and  C_9
REMARK    3  A    between atoms: C_2  and  C_15
REMARK    4  A    between atoms: N_18  and  C_19
REMARK    5  A    between atoms: C_19  and  C_20
REMARK    6  A    between atoms: C_20  and  O_21
REMARK    7  A    between atoms: O_21  and  C_22
REMARK    8  A    between atoms: C_22  and  C_23
REMARK                            x       y       z     vdW  Elec       q    Type
REMARK                         _______ _______ _______ _____ _____    ______ ____
ROOT
ATOM      1  C   UNL     1       1.465   5.446  -8.171  0.00  0.00    +0.050 C 
ATOM      2  C   UNL     1       2.682   4.664  -8.573  0.00  0.00    +0.064 C 
ATOM      3  C   UNL     1       3.101   5.149  -9.955  0.00  0.00    +0.109 C 
ATOM      4  N   UNL     1       1.900   5.637 -10.624  0.00  0.00    +0.299 N 
ATOM      5  C   UNL     1       0.789   4.745 -10.409  0.00  0.00    +0.109 C 
ATOM      6  C   UNL     1       1.613   6.959 -10.083  0.00  0.00    +0.109 C 
ATOM      7  C   UNL     1       0.303   4.899  -8.974  0.00  0.00    +0.064 C 
ATOM      8  C   UNL     1       1.687   6.882  -8.568  0.00  0.00    +0.064 C 
ENDROOT
BRANCH   1  10
ATOM      9  O   UNL     1       0.938   3.933  -6.451  0.00  0.00    -0.217 OA
ATOM     10  C   UNL     1       1.156   5.279  -6.715  0.00  0.00    +0.164 C 
BRANCH  10  11
ATOM     11  C   UNL     1      -0.057   6.076  -6.350  0.00  0.00    +0.009 A 
ATOM     12  C   UNL     1       0.011   7.032  -5.342  0.00  0.00    -0.002 A 
ATOM     13  C   UNL     1      -0.960   7.120  -4.352  0.00  0.00    -0.000 A 
ATOM     14  C   UNL     1      -2.142   6.404  -4.494  0.00  0.00    -0.000 A 
ATOM     15  C   UNL     1      -2.367   5.836  -5.742  0.00  0.00    -0.000 A 
ATOM     16  C   UNL     1      -1.340   5.646  -6.659  0.00  0.00    -0.002 A 
ENDBRANCH  10  11
BRANCH  10  17
ATOM     17  C   UNL     1       2.249   5.740  -5.827  0.00  0.00    +0.009 A 
ATOM     18  C   UNL     1       2.938   6.914  -6.001  0.00  0.00    -0.002 A 
ATOM     19  C   UNL     1       4.061   7.201  -5.241  0.00  0.00    -0.000 A 
ATOM     20  C   UNL     1       4.700   6.207  -4.520  0.00  0.00    -0.000 A 
ATOM     21  C   UNL     1       3.967   5.055  -4.267  0.00  0.00    -0.000 A 
ATOM     22  C   UNL     1       2.822   4.796  -4.986  0.00  0.00    -0.002 A 
ENDBRANCH  10  17
ENDBRANCH   1  10
BRANCH   4  23
ATOM     23  C   UNL     1       2.157   5.669 -12.046  0.00  0.00    +0.141 C 
BRANCH  23  24
ATOM     24  C   UNL     1       3.642   5.380 -12.214  0.00  0.00    +0.203 C 
BRANCH  24  25
ATOM     25  O   UNL     1       4.206   6.127 -13.233  0.00  0.00    -0.343 OA
BRANCH  25  26
ATOM     26  C   UNL     1       5.405   5.516 -13.604  0.00  0.00    +0.169 C 
BRANCH  26  27
ATOM     27  C   UNL     1       6.486   6.056 -12.730  0.00  0.00    +0.007 A 
ATOM     28  C   UNL     1       6.436   7.375 -12.300  0.00  0.00    -0.002 A 
ATOM     29  C   UNL     1       6.997   7.740 -11.098  0.00  0.00    -0.000 A 
ATOM     30  C   UNL     1       7.653   6.812 -10.306  0.00  0.00    -0.000 A 
ATOM     31  C   UNL     1       8.039   5.642 -10.919  0.00  0.00    -0.000 A 
ATOM     32  C   UNL     1       7.370   5.237 -12.064  0.00  0.00    -0.002 A 
ENDBRANCH  26  27
ENDBRANCH  25  26
ENDBRANCH  24  25
ENDBRANCH  23  24
ENDBRANCH   4  23
TORSDOF 8
ENDMDL
MODEL 6
REMARK VINA RESULT:      -8.4      2.299      7.443
REMARK  Name = 
REMARK  8 active torsions:
REMARK  status: ('A' for Active; 'I' for Inactive)
REMARK    1  A    between atoms: C_2  and  C_3
REMARK    2  A    between atoms: C_2  and  C_9
REMARK    3  A    between atoms: C_2  and  C_15
REMARK    4  A    between atoms: N_18  and  C_19
REMARK    5  A    between atoms: C_19  and  C_20
REMARK    6  A    between atoms: C_20  and  O_21
REMARK    7  A    between atoms: O_21  and  C_22
REMARK    8  A    between atoms: C_22  and  C_23
REMARK                            x       y       z     vdW  Elec       q    Type
REMARK                         _______ _______ _______ _____ _____    ______ ____
ROOT
ATOM      1  C   UNL     1       2.164   5.660  -6.533  0.00  0.00    +0.050 C 
ATOM      2  C   UNL     1       3.528   5.222  -6.085  0.00  0.00    +0.064 C 
ATOM      3  C   UNL     1       4.519   5.639  -7.164  0.00  0.00    +0.109 C 
ATOM      4  N   UNL     1       3.792   5.675  -8.428  0.00  0.00    +0.299 N 
ATOM      5  C   UNL     1       2.925   4.531  -8.559  0.00  0.00    +0.109 C 
ATOM      6  C   UNL     1       3.022   6.911  -8.447  0.00  0.00    +0.109 C 
ATOM      7  C   UNL     1       1.732   4.708  -7.628  0.00  0.00    +0.064 C 
ATOM      8  C   UNL     1       2.292   7.041  -7.122  0.00  0.00    +0.064 C 
ENDROOT
BRANCH   1  10
ATOM      9  O   UNL     1       0.844   4.255  -5.188  0.00  0.00    -0.217 OA
ATOM     10  C   UNL     1       1.165   5.586  -5.419  0.00  0.00    +0.164 C 
BRANCH  10  11
ATOM     11  C   UNL     1      -0.067   6.356  -5.778  0.00  0.00    +0.009 A 
ATOM     12  C   UNL     1      -0.345   7.565  -5.150  0.00  0.00    -0.002 A 
ATOM     13  C   UNL     1      -1.612   7.858  -4.658  0.00  0.00    -0.000 A 
ATOM     14  C   UNL     1      -2.681   7.040  -5.003  0.00  0.00    -0.000 A 
ATOM     15  C   UNL     1      -2.445   6.119  -6.016  0.00  0.00    -0.000 A 
ATOM     16  C   UNL     1      -1.157   5.754  -6.392  0.00  0.00    -0.002 A 
ENDBRANCH  10  11
BRANCH  10  17
ATOM     17  C   UNL     1       1.663   6.157  -4.145  0.00  0.00    +0.009 A 
ATOM     18  C   UNL     1       2.717   7.031  -4.054  0.00  0.00    -0.002 A 
ATOM     19  C   UNL     1       3.243   7.389  -2.823  0.00  0.00    -0.000 A 
ATOM     20  C   UNL     1       2.944   6.657  -1.686  0.00  0.00    -0.000 A 
ATOM     21  C   UNL     1       1.823   5.840  -1.752  0.00  0.00    -0.000 A 
ATOM     22  C   UNL     1       1.270   5.527  -2.973  0.00  0.00    -0.002 A 
ENDBRANCH  10  17
ENDBRANCH   1  10
BRANCH   4  23
ATOM     23  C   UNL     1       4.754   5.610  -9.504  0.00  0.00    +0.141 C 
BRANCH  23  24
ATOM     24  C   UNL     1       6.094   5.292  -8.855  0.00  0.00    +0.203 C 
BRANCH  24  25
ATOM     25  O   UNL     1       7.089   6.163  -9.261  0.00  0.00    -0.343 OA
BRANCH  25  26
ATOM     26  C   UNL     1       7.929   5.481 -10.142  0.00  0.00    +0.169 C 
BRANCH  26  27
ATOM     27  C   UNL     1       7.740   6.065 -11.501  0.00  0.00    +0.007 A 
ATOM     28  C   UNL     1       7.918   5.272 -12.627  0.00  0.00    -0.002 A 
ATOM     29  C   UNL     1       7.219   5.531 -13.783  0.00  0.00    -0.000 A 
ATOM     30  C   UNL     1       6.347   6.605 -13.863  0.00  0.00    -0.000 A 
ATOM     31  C   UNL     1       6.490   7.587 -12.909  0.00  0.00    -0.000 A 
ATOM     32  C   UNL     1       7.092   7.262 -11.703  0.00  0.00    -0.002 A 
ENDBRANCH  26  27
ENDBRANCH  25  26
ENDBRANCH  24  25
ENDBRANCH  23  24
ENDBRANCH   4  23
TORSDOF 8
ENDMDL
MODEL 7
REMARK VINA RESULT:      -8.0      1.888      3.107
REMARK  Name = 
REMARK  8 active torsions:
REMARK  status: ('A' for Active; 'I' for Inactive)
REMARK    1  A    between atoms: C_2  and  C_3
REMARK    2  A    between atoms: C_2  and  C_9
REMARK    3  A    between atoms: C_2  and  C_15
REMARK    4  A    between atoms: N_18  and  C_19
REMARK    5  A    between atoms: C_19  and  C_20
REMARK    6  A    between atoms: C_20  and  O_21
REMARK    7  A    between atoms: O_21  and  C_22
REMARK    8  A    between atoms: C_22  and  C_23
REMARK                            x       y       z     vdW  Elec       q    Type
REMARK                         _______ _______ _______ _____ _____    ______ ____
ROOT
ATOM      1  C   UNL     1       2.212   5.566  -7.197  0.00  0.00    +0.050 C 
ATOM      2  C   UNL     1       0.712   5.517  -7.148  0.00  0.00    +0.064 C 
ATOM      3  C   UNL     1       0.273   6.219  -5.870  0.00  0.00    +0.109 C 
ATOM      4  N   UNL     1       1.358   6.079  -4.906  0.00  0.00    +0.299 N 
ATOM      5  C   UNL     1       1.895   4.742  -4.921  0.00  0.00    +0.109 C 
ATOM      6  C   UNL     1       2.382   7.051  -5.265  0.00  0.00    +0.109 C 
ATOM      7  C   UNL     1       2.720   4.557  -6.189  0.00  0.00    +0.064 C 
ATOM      8  C   UNL     1       2.644   6.941  -6.757  0.00  0.00    +0.064 C 
ENDROOT
BRANCH   1  10
ATOM      9  O   UNL     1       2.941   3.817  -8.588  0.00  0.00    -0.217 OA
ATOM     10  C   UNL     1       2.735   5.190  -8.549  0.00  0.00    +0.164 C 
BRANCH  10  11
ATOM     11  C   UNL     1       4.018   5.910  -8.826  0.00  0.00    +0.009 A 
ATOM     12  C   UNL     1       4.094   6.830  -9.865  0.00  0.00    -0.002 A 
ATOM     13  C   UNL     1       5.155   6.831 -10.763  0.00  0.00    -0.000 A 
ATOM     14  C   UNL     1       6.278   6.060 -10.489  0.00  0.00    -0.000 A 
ATOM     15  C   UNL     1       6.357   5.528  -9.208  0.00  0.00    -0.000 A 
ATOM     16  C   UNL     1       5.242   5.425  -8.385  0.00  0.00    -0.002 A 
ENDBRANCH  10  11
BRANCH  10  17
ATOM     17  C   UNL     1       1.809   5.537  -9.653  0.00  0.00    +0.009 A 
ATOM     18  C   UNL     1       1.233   6.772  -9.815  0.00  0.00    -0.002 A 
ATOM     19  C   UNL     1       0.244   6.980 -10.763  0.00  0.00    -0.000 A 
ATOM     20  C   UNL     1      -0.408   5.909 -11.350  0.00  0.00    -0.000 A 
ATOM     21  C   UNL     1       0.223   4.675 -11.263  0.00  0.00    -0.000 A 
ATOM     22  C   UNL     1       1.241   4.485 -10.357  0.00  0.00    -0.002 A 
ENDBRANCH  10  17
ENDBRANCH   1  10
BRANCH   4  23
ATOM     23  C   UNL     1       0.820   6.311  -3.584  0.00  0.00    +0.141 C 
BRANCH  23  24
ATOM     24  C   UNL     1      -0.555   5.659  -3.567  0.00  0.00    +0.203 C 
BRANCH  24  25
ATOM     25  O   UNL     1      -0.836   5.068  -2.348  0.00  0.00    -0.343 OA
BRANCH  25  26
ATOM     26  C   UNL     1       0.200   5.381  -1.467  0.00  0.00    +0.169 C 
BRANCH  26  27
ATOM     27  C   UNL     1      -0.364   6.229  -0.378  0.00  0.00    +0.007 A 
ATOM     28  C   UNL     1       0.453   7.128   0.295  0.00  0.00    -0.002 A 
ATOM     29  C   UNL     1      -0.069   8.285   0.826  0.00  0.00    -0.000 A 
ATOM     30  C   UNL     1      -1.423   8.564   0.734  0.00  0.00    -0.000 A 
ATOM     31  C   UNL     1      -2.252   7.506   0.440  0.00  0.00    -0.000 A 
ATOM     32  C   UNL     1      -1.719   6.402  -0.208  0.00  0.00    -0.002 A 
ENDBRANCH  26  27
ENDBRANCH  25  26
ENDBRANCH  24  25
ENDBRANCH  23  24
ENDBRANCH   4  23
TORSDOF 8
ENDMDL
MODEL 8
REMARK VINA RESULT:      -7.9      1.757      6.885
REMARK  Name = 
REMARK  8 active torsions:
REMARK  status: ('A' for Active; 'I' for Inactive)
REMARK    1  A    between atoms: C_2  and  C_3
REMARK    2  A    between atoms: C_2  and  C_9
REMARK    3  A    between atoms: C_2  and  C_15
REMARK    4  A    between atoms: N_18  and  C_19
REMARK    5  A    between atoms: C_19  and  C_20
REMARK    6  A    between atoms: C_20  and  O_21
REMARK    7  A    between atoms: O_21  and  C_22
REMARK    8  A    between atoms: C_22  and  C_23
REMARK                            x       y       z     vdW  Elec       q    Type
REMARK                         _______ _______ _______ _____ _____    ______ ____
ROOT
ATOM      1  C   UNL     1       1.208   5.616  -6.380  0.00  0.00    +0.050 C 
ATOM      2  C   UNL     1       1.927   6.809  -6.942  0.00  0.00    +0.064 C 
ATOM      3  C   UNL     1       1.545   6.923  -8.412  0.00  0.00    +0.109 C 
ATOM      4  N   UNL     1       1.220   5.579  -8.878  0.00  0.00    +0.299 N 
ATOM      5  C   UNL     1       2.172   4.616  -8.387  0.00  0.00    +0.109 C 
ATOM      6  C   UNL     1      -0.121   5.270  -8.400  0.00  0.00    +0.109 C 
ATOM      7  C   UNL     1       1.919   4.386  -6.902  0.00  0.00    +0.064 C 
ATOM      8  C   UNL     1      -0.197   5.624  -6.925  0.00  0.00    +0.064 C 
ENDROOT
BRANCH   1  10
ATOM      9  O   UNL     1       0.968   4.310  -4.441  0.00  0.00    -0.217 OA
ATOM     10  C   UNL     1       1.258   5.594  -4.883  0.00  0.00    +0.164 C 
BRANCH  10  11
ATOM     11  C   UNL     1       0.270   6.566  -4.319  0.00  0.00    +0.009 A 
ATOM     12  C   UNL     1      -0.375   6.291  -3.118  0.00  0.00    -0.002 A 
ATOM     13  C   UNL     1      -1.746   6.466  -2.968  0.00  0.00    -0.000 A 
ATOM     14  C   UNL     1      -2.455   7.149  -3.949  0.00  0.00    -0.000 A 
ATOM     15  C   UNL     1      -1.695   7.820  -4.899  0.00  0.00    -0.000 A 
ATOM     16  C   UNL     1      -0.353   7.524  -5.109  0.00  0.00    -0.002 A 
ENDBRANCH  10  11
BRANCH  10  17
ATOM     17  C   UNL     1       2.582   5.971  -4.335  0.00  0.00    +0.009 A 
ATOM     18  C   UNL     1       2.995   7.266  -4.142  0.00  0.00    -0.002 A 
ATOM     19  C   UNL     1       4.304   7.553  -3.793  0.00  0.00    -0.000 A 
ATOM     20  C   UNL     1       5.298   6.598  -3.930  0.00  0.00    -0.000 A 
ATOM     21  C   UNL     1       4.880   5.278  -4.034  0.00  0.00    -0.000 A 
ATOM     22  C   UNL     1       3.567   4.994  -4.330  0.00  0.00    -0.002 A 
ENDBRANCH  10  17
ENDBRANCH   1  10
BRANCH   4  23
ATOM     23  C   UNL     1       1.304   5.570 -10.321  0.00  0.00    +0.141 C 
BRANCH  23  24
ATOM     24  C   UNL     1       2.220   6.726 -10.699  0.00  0.00    +0.203 C 
BRANCH  24  25
ATOM     25  O   UNL     1       2.991   6.437 -11.810  0.00  0.00    -0.343 OA
BRANCH  25  26
ATOM     26  C   UNL     1       3.954   5.498 -11.437  0.00  0.00    +0.169 C 
BRANCH  26  27
ATOM     27  C   UNL     1       5.070   6.226 -10.767  0.00  0.00    +0.007 A 
ATOM     28  C   UNL     1       5.746   5.635  -9.708  0.00  0.00    -0.002 A 
ATOM     29  C   UNL     1       7.066   5.936  -9.467  0.00  0.00    -0.000 A 
ATOM     30  C   UNL     1       7.743   6.856 -10.250  0.00  0.00    -0.000 A 
ATOM     31  C   UNL     1       6.971   7.707 -11.008  0.00  0.00    -0.000 A 
ATOM     32  C   UNL     1       5.681   7.320 -11.338  0.00  0.00    -0.002 A 
ENDBRANCH  26  27
ENDBRANCH  25  26
ENDBRANCH  24  25
ENDBRANCH  23  24
ENDBRANCH   4  23
TORSDOF 8
ENDMDL
MODEL 9
REMARK VINA RESULT:      -7.8      2.003      3.842
REMARK  Name = 
REMARK  8 active torsions:
REMARK  status: ('A' for Active; 'I' for Inactive)
REMARK    1  A    between atoms: C_2  and  C_3
REMARK    2  A    between atoms: C_2  and  C_9
REMARK    3  A    between atoms: C_2  and  C_15
REMARK    4  A    between atoms: N_18  and  C_19
REMARK    5  A    between atoms: C_19  and  C_20
REMARK    6  A    between atoms: C_20  and  O_21
REMARK    7  A    between atoms: O_21  and  C_22
REMARK    8  A    between atoms: C_22  and  C_23
REMARK                            x       y       z     vdW  Elec       q    Type
REMARK                         _______ _______ _______ _____ _____    ______ ____
ROOT
ATOM      1  C   UNL     1       3.219   5.871  -8.675  0.00  0.00    +0.050 C 
ATOM      2  C   UNL     1       2.107   4.890  -8.439  0.00  0.00    +0.064 C 
ATOM      3  C   UNL     1       1.217   5.464  -7.345  0.00  0.00    +0.109 C 
ATOM      4  N   UNL     1       2.054   6.320  -6.512  0.00  0.00    +0.299 N 
ATOM      5  C   UNL     1       3.326   5.697  -6.243  0.00  0.00    +0.109 C 
ATOM      6  C   UNL     1       2.235   7.575  -7.229  0.00  0.00    +0.109 C 
ATOM      7  C   UNL     1       4.175   5.745  -7.507  0.00  0.00    +0.064 C 
ATOM      8  C   UNL     1       2.626   7.256  -8.661  0.00  0.00    +0.064 C 
ENDROOT
BRANCH   1  10
ATOM      9  O   UNL     1       4.261   4.207  -9.969  0.00  0.00    -0.217 OA
ATOM     10  C   UNL     1       3.969   5.565  -9.936  0.00  0.00    +0.164 C 
BRANCH  10  11
ATOM     11  C   UNL     1       5.234   6.363  -9.991  0.00  0.00    +0.009 A 
ATOM     12  C   UNL     1       5.272   7.566 -10.688  0.00  0.00    -0.002 A 
ATOM     13  C   UNL     1       6.313   7.873 -11.557  0.00  0.00    -0.000 A 
ATOM     14  C   UNL     1       7.454   7.081 -11.558  0.00  0.00    -0.000 A 
ATOM     15  C   UNL     1       7.570   6.173 -10.512  0.00  0.00    -0.000 A 
ATOM     16  C   UNL     1       6.475   5.791  -9.746  0.00  0.00    -0.002 A 
ENDBRANCH  10  11
BRANCH  10  17
ATOM     17  C   UNL     1       3.208   5.892 -11.165  0.00  0.00    +0.009 A 
ATOM     18  C   UNL     1       1.897   6.297 -11.174  0.00  0.00    -0.002 A 
ATOM     19  C   UNL     1       1.196   6.417 -12.362  0.00  0.00    -0.000 A 
ATOM     20  C   UNL     1       1.677   5.847 -13.529  0.00  0.00    -0.000 A 
ATOM     21  C   UNL     1       3.027   5.521 -13.549  0.00  0.00    -0.000 A 
ATOM     22  C   UNL     1       3.735   5.453 -12.371  0.00  0.00    -0.002 A 
ENDBRANCH  10  17
ENDBRANCH   1  10
BRANCH   4  23
ATOM     23  C   UNL     1       1.389   6.504  -5.242  0.00  0.00    +0.141 C 
BRANCH  23  24
ATOM     24  C   UNL     1       1.945   5.433  -4.314  0.00  0.00    +0.203 C 
BRANCH  24  25
ATOM     25  O   UNL     1       1.039   5.073  -3.332  0.00  0.00    -0.343 OA
BRANCH  25  26
ATOM     26  C   UNL     1       0.463   6.239  -2.827  0.00  0.00    +0.169 C 
BRANCH  26  27
ATOM     27  C   UNL     1      -0.969   5.951  -2.525  0.00  0.00    +0.007 A 
ATOM     28  C   UNL     1      -1.606   6.617  -1.487  0.00  0.00    -0.002 A 
ATOM     29  C   UNL     1      -2.960   6.856  -1.536  0.00  0.00    -0.000 A 
ATOM     30  C   UNL     1      -3.724   6.412  -2.602  0.00  0.00    -0.000 A 
ATOM     31  C   UNL     1      -3.170   5.430  -3.391  0.00  0.00    -0.000 A 
ATOM     32  C   UNL     1      -1.790   5.294  -3.414  0.00  0.00    -0.002 A 
ENDBRANCH  26  27
ENDBRANCH  25  26
ENDBRANCH  24  25
ENDBRANCH  23  24
ENDBRANCH   4  23
TORSDOF 8
ENDMDL
