MODEL 1
REMARK VINA RESULT:      -8.9      0.000      0.000
REMARK  Name = 
REMARK  5 active torsions:
REMARK  status: ('A' for Active; 'I' for Inactive)
REMARK    1  A    between atoms: C_2  and  C_24
REMARK    2  A    between atoms: N_3  and  C_4
REMARK    3  A    between atoms: C_4  and  C_5
REMARK    4  A    between atoms: N_7  and  C_8
REMARK    5  A    between atoms: C_11  and  N_12
REMARK                            x       y       z     vdW  Elec       q    Type
REMARK                         _______ _______ _______ _____ _____    ______ ____
ROOT
ATOM      1  C   UNL     1       2.008   5.140  -9.878  0.00  0.00    +0.212 C 
ATOM      2  O   UNL     1       2.059   6.579  -9.299  0.00  0.00    -0.434 OA
ATOM      3  C   UNL     1       1.686   6.455  -7.994  0.00  0.00    +0.409 C 
ATOM      4  O   UNL     1       1.745   7.414  -7.165  0.00  0.00    -0.226 OA
ATOM      5  N   UNL     1       0.714   5.433  -7.927  0.00  0.00    -0.221 N 
ATOM      6  C   UNL     1       0.501   4.881  -9.235  0.00  0.00    +0.147 C 
ENDROOT
BRANCH   5   7
ATOM      7  C   UNL     1      -0.229   5.298  -6.879  0.00  0.00    +0.057 A 
ATOM      8  C   UNL     1       0.116   5.079  -5.559  0.00  0.00    +0.016 A 
ATOM      9  C   UNL     1      -0.624   5.695  -4.570  0.00  0.00    +0.016 A 
ATOM     10  C   UNL     1      -1.842   6.274  -4.905  0.00  0.00    +0.054 A 
ATOM     11  C   UNL     1      -2.402   5.853  -6.101  0.00  0.00    +0.016 A 
ATOM     12  C   UNL     1      -1.597   5.357  -7.120  0.00  0.00    +0.016 A 
BRANCH  10  13
ATOM     13  N   UNL     1      -2.638   6.786  -3.831  0.00  0.00    -0.254 N 
ATOM     14  C   UNL     1      -3.078   5.866  -2.822  0.00  0.00    +0.260 C 
ATOM     15  O   UNL     1      -2.940   4.613  -2.974  0.00  0.00    -0.272 OA
ATOM     16  C   UNL     1      -3.271   6.476  -1.467  0.00  0.00    +0.228 C 
ATOM     17  O   UNL     1      -2.102   7.081  -1.065  0.00  0.00    -0.343 OA
ATOM     18  C   UNL     1      -1.359   7.663  -2.061  0.00  0.00    +0.165 C 
ATOM     19  C   UNL     1      -2.169   8.059  -3.281  0.00  0.00    +0.130 C 
ENDBRANCH  10  13
ENDBRANCH   5   7
BRANCH   1  20
ATOM     20  C   UNL     1       2.769   4.482  -8.554  0.00  0.00    +0.161 C 
BRANCH  20  23
ATOM     21  O   UNL     1       5.056   5.709  -7.658  0.00  0.00    -0.268 OA
ATOM     22  C   UNL     1       5.215   5.098  -8.641  0.00  0.00    +0.271 C 
ATOM     23  N   UNL     1       4.126   4.259  -9.051  0.00  0.00    -0.197 NA
BRANCH  22  24
ATOM     24  C   UNL     1       6.158   5.668  -9.615  0.00  0.00    +0.085 A 
ATOM     25  S   UNL     1       7.803   5.239  -9.867  0.00  0.00    -0.071 S 
ATOM     26  C   UNL     1       8.115   6.146 -11.289  0.00  0.00    +0.087 A 
ATOM     27 CL   UNL     1       9.444   6.120 -12.426  0.00  0.00    -0.075 Cl
ATOM     28  C   UNL     1       6.940   6.885 -11.375  0.00  0.00    +0.019 A 
ATOM     29  C   UNL     1       5.874   6.204 -10.866  0.00  0.00    +0.012 A 
ENDBRANCH  22  24
ENDBRANCH  20  23
ENDBRANCH   1  20
TORSDOF 5
ENDMDL
MODEL 2
REMARK VINA RESULT:      -8.9      1.853      2.223
REMARK  Name = 
REMARK  5 active torsions:
REMARK  status: ('A' for Active; 'I' for Inactive)
REMARK    1  A    between atoms: C_2  and  C_24
REMARK    2  A    between atoms: N_3  and  C_4
REMARK    3  A    between atoms: C_4  and  C_5
REMARK    4  A    between atoms: N_7  and  C_8
REMARK    5  A    between atoms: C_11  and  N_12
REMARK                            x       y       z     vdW  Elec       q    Type
REMARK                         _______ _______ _______ _____ _____    ______ ____
ROOT
ATOM      1  C   UNL     1       2.408   5.433 -10.591  0.00  0.00    +0.212 C 
ATOM      2  O   UNL     1       2.065   6.875 -10.132  0.00  0.00    -0.434 OA
ATOM      3  C   UNL     1       1.892   6.791  -8.783  0.00  0.00    +0.409 C 
ATOM      4  O   UNL     1       1.735   7.810  -8.042  0.00  0.00    -0.226 OA
ATOM      5  N   UNL     1       1.306   5.537  -8.507  0.00  0.00    -0.221 N 
ATOM      6  C   UNL     1       1.138   4.803  -9.730  0.00  0.00    +0.147 C 
ENDROOT
BRANCH   5   7
ATOM      7  C   UNL     1       0.572   5.241  -7.333  0.00  0.00    +0.057 A 
ATOM      8  C   UNL     1       1.141   4.731  -6.181  0.00  0.00    +0.016 A 
ATOM      9  C   UNL     1       0.668   5.168  -4.960  0.00  0.00    +0.016 A 
ATOM     10  C   UNL     1      -0.527   5.873  -4.916  0.00  0.00    +0.054 A 
ATOM     11  C   UNL     1      -1.345   5.745  -6.027  0.00  0.00    +0.016 A 
ATOM     12  C   UNL     1      -0.804   5.428  -7.268  0.00  0.00    +0.016 A 
BRANCH  10  13
ATOM     13  N   UNL     1      -1.048   6.194  -3.622  0.00  0.00    -0.254 N 
ATOM     14  C   UNL     1      -1.735   7.445  -3.465  0.00  0.00    +0.260 C 
ATOM     15  O   UNL     1      -1.711   8.324  -4.380  0.00  0.00    -0.272 OA
ATOM     16  C   UNL     1      -2.795   7.441  -2.407  0.00  0.00    +0.228 C 
ATOM     17  O   UNL     1      -3.706   6.444  -2.671  0.00  0.00    -0.343 OA
ATOM     18  C   UNL     1      -3.192   5.303  -3.235  0.00  0.00    +0.165 C 
ATOM     19  C   UNL     1      -1.719   5.084  -2.945  0.00  0.00    +0.130 C 
ENDBRANCH  10  13
ENDBRANCH   5   7
BRANCH   1  20
ATOM     20  C   UNL     1       3.475   5.191  -9.340  0.00  0.00    +0.161 C 
BRANCH  20  23
ATOM     21  O   UNL     1       5.660   6.755  -9.905  0.00  0.00    -0.268 OA
ATOM     22  C   UNL     1       5.680   5.721 -10.450  0.00  0.00    +0.271 C 
ATOM     23  N   UNL     1       4.688   4.769 -10.040  0.00  0.00    -0.197 NA
BRANCH  22  24
ATOM     24  C   UNL     1       6.242   5.713 -11.808  0.00  0.00    +0.085 A 
ATOM     25  S   UNL     1       5.401   5.854 -13.301  0.00  0.00    -0.071 S 
ATOM     26  C   UNL     1       6.739   6.005 -14.362  0.00  0.00    +0.087 A 
ATOM     27 CL   UNL     1       6.850   6.467 -16.046  0.00  0.00    -0.075 Cl
ATOM     28  C   UNL     1       7.785   5.747 -13.483  0.00  0.00    +0.019 A 
ATOM     29  C   UNL     1       7.495   6.157 -12.216  0.00  0.00    +0.012 A 
ENDBRANCH  22  24
ENDBRANCH  20  23
ENDBRANCH   1  20
TORSDOF 5
ENDMDL
MODEL 3
REMARK VINA RESULT:      -8.8      4.408      9.952
REMARK  Name = 
REMARK  5 active torsions:
REMARK  status: ('A' for Active; 'I' for Inactive)
REMARK    1  A    between atoms: C_2  and  C_24
REMARK    2  A    between atoms: N_3  and  C_4
REMARK    3  A    between atoms: C_4  and  C_5
REMARK    4  A    between atoms: N_7  and  C_8
REMARK    5  A    between atoms: C_11  and  N_12
REMARK                            x       y       z     vdW  Elec       q    Type
REMARK                         _______ _______ _______ _____ _____    ______ ____
ROOT
ATOM      1  C   UNL     1       1.283   4.559  -5.631  0.00  0.00    +0.212 C 
ATOM      2  O   UNL     1       2.233   5.732  -5.271  0.00  0.00    -0.434 OA
ATOM      3  C   UNL     1       2.459   6.385  -6.446  0.00  0.00    +0.409 C 
ATOM      4  O   UNL     1       3.085   7.487  -6.515  0.00  0.00    -0.226 OA
ATOM      5  N   UNL     1       2.485   5.416  -7.472  0.00  0.00    -0.221 N 
ATOM      6  C   UNL     1       2.235   4.116  -6.915  0.00  0.00    +0.147 C 
ENDROOT
BRANCH   5   7
ATOM      7  C   UNL     1       3.116   5.599  -8.726  0.00  0.00    +0.057 A 
ATOM      8  C   UNL     1       3.169   6.811  -9.389  0.00  0.00    +0.016 A 
ATOM      9  C   UNL     1       4.319   7.138 -10.079  0.00  0.00    +0.016 A 
ATOM     10  C   UNL     1       5.260   6.146 -10.324  0.00  0.00    +0.054 A 
ATOM     11  C   UNL     1       4.807   4.842 -10.211  0.00  0.00    +0.016 A 
ATOM     12  C   UNL     1       3.719   4.542  -9.398  0.00  0.00    +0.016 A 
BRANCH  10  13
ATOM     13  N   UNL     1       6.374   6.495 -11.153  0.00  0.00    -0.254 N 
ATOM     14  C   UNL     1       7.655   5.931 -10.831  0.00  0.00    +0.260 C 
ATOM     15  O   UNL     1       7.840   5.309  -9.741  0.00  0.00    -0.272 OA
ATOM     16  C   UNL     1       8.562   5.742 -12.008  0.00  0.00    +0.228 C 
ATOM     17  O   UNL     1       7.936   4.959 -12.951  0.00  0.00    -0.343 OA
ATOM     18  C   UNL     1       6.578   5.129 -13.058  0.00  0.00    +0.165 C 
ATOM     19  C   UNL     1       6.088   6.485 -12.588  0.00  0.00    +0.130 C 
ENDBRANCH  10  13
ENDBRANCH   5   7
BRANCH   1  20
ATOM     20  C   UNL     1       0.313   5.516  -6.583  0.00  0.00    +0.161 C 
BRANCH  20  23
ATOM     21  O   UNL     1      -0.551   7.692  -5.147  0.00  0.00    -0.268 OA
ATOM     22  C   UNL     1      -1.164   6.722  -4.928  0.00  0.00    +0.271 C 
ATOM     23  N   UNL     1      -0.914   5.604  -5.792  0.00  0.00    -0.197 NA
BRANCH  22  24
ATOM     24  C   UNL     1      -1.617   6.539  -3.542  0.00  0.00    +0.085 A 
ATOM     25  S   UNL     1      -0.665   6.167  -2.159  0.00  0.00    -0.071 S 
ATOM     26  C   UNL     1      -1.853   6.367  -0.939  0.00  0.00    +0.087 A 
ATOM     27 CL   UNL     1      -1.735   6.463   0.804  0.00  0.00    -0.075 Cl
ATOM     28  C   UNL     1      -2.988   6.538  -1.723  0.00  0.00    +0.019 A 
ATOM     29  C   UNL     1      -2.699   7.142  -2.910  0.00  0.00    +0.012 A 
ENDBRANCH  22  24
ENDBRANCH  20  23
ENDBRANCH   1  20
TORSDOF 5
ENDMDL
MODEL 4
REMARK VINA RESULT:      -8.7      4.882      9.843
REMARK  Name = 
REMARK  5 active torsions:
REMARK  status: ('A' for Active; 'I' for Inactive)
REMARK    1  A    between atoms: C_2  and  C_24
REMARK    2  A    between atoms: N_3  and  C_4
REMARK    3  A    between atoms: C_4  and  C_5
REMARK    4  A    between atoms: N_7  and  C_8
REMARK    5  A    between atoms: C_11  and  N_12
REMARK                            x       y       z     vdW  Elec       q    Type
REMARK                         _______ _______ _______ _____ _____    ______ ____
ROOT
ATOM      1  C   UNL     1       0.256   5.881  -4.634  0.00  0.00    +0.212 C 
ATOM      2  O   UNL     1       0.275   4.608  -5.521  0.00  0.00    -0.434 OA
ATOM      3  C   UNL     1       1.554   4.510  -5.982  0.00  0.00    +0.409 C 
ATOM      4  O   UNL     1       1.979   3.506  -6.632  0.00  0.00    -0.226 OA
ATOM      5  N   UNL     1       2.034   5.821  -6.185  0.00  0.00    -0.221 N 
ATOM      6  C   UNL     1       1.024   6.769  -5.805  0.00  0.00    +0.147 C 
ENDROOT
BRANCH   5   7
ATOM      7  C   UNL     1       3.105   6.154  -7.048  0.00  0.00    +0.057 A 
ATOM      8  C   UNL     1       4.392   5.673  -6.894  0.00  0.00    +0.016 A 
ATOM      9  C   UNL     1       5.121   5.358  -8.024  0.00  0.00    +0.016 A 
ATOM     10  C   UNL     1       4.661   5.790  -9.261  0.00  0.00    +0.054 A 
ATOM     11  C   UNL     1       3.738   6.823  -9.236  0.00  0.00    +0.016 A 
ATOM     12  C   UNL     1       2.934   7.023  -8.120  0.00  0.00    +0.016 A 
BRANCH  10  13
ATOM     13  N   UNL     1       5.509   5.556 -10.391  0.00  0.00    -0.254 N 
ATOM     14  C   UNL     1       4.904   5.529 -11.692  0.00  0.00    +0.260 C 
ATOM     15  O   UNL     1       3.643   5.513 -11.827  0.00  0.00    -0.272 OA
ATOM     16  C   UNL     1       5.808   5.965 -12.805  0.00  0.00    +0.228 C 
ATOM     17  O   UNL     1       6.285   7.229 -12.541  0.00  0.00    -0.343 OA
ATOM     18  C   UNL     1       6.516   7.515 -11.219  0.00  0.00    +0.165 C 
ATOM     19  C   UNL     1       6.774   6.291 -10.361  0.00  0.00    +0.130 C 
ENDBRANCH  10  13
ENDBRANCH   5   7
BRANCH   1  20
ATOM     20  C   UNL     1       1.688   5.491  -3.884  0.00  0.00    +0.161 C 
BRANCH  20  23
ATOM     21  O   UNL     1       0.516   4.415  -1.646  0.00  0.00    -0.268 OA
ATOM     22  C   UNL     1       0.744   5.557  -1.544  0.00  0.00    +0.271 C 
ATOM     23  N   UNL     1       1.546   6.139  -2.581  0.00  0.00    -0.197 NA
BRANCH  22  24
ATOM     24  C   UNL     1      -0.236   6.351  -0.790  0.00  0.00    +0.085 A 
ATOM     25  S   UNL     1       0.035   7.314   0.608  0.00  0.00    -0.071 S 
ATOM     26  C   UNL     1      -1.493   8.083   0.719  0.00  0.00    +0.087 A 
ATOM     27 CL   UNL     1      -2.054   9.439   1.672  0.00  0.00    -0.075 Cl
ATOM     28  C   UNL     1      -2.195   7.386  -0.258  0.00  0.00    +0.019 A 
ATOM     29  C   UNL     1      -1.380   6.977  -1.272  0.00  0.00    +0.012 A 
ENDBRANCH  22  24
ENDBRANCH  20  23
ENDBRANCH   1  20
TORSDOF 5
ENDMDL
MODEL 5
REMARK VINA RESULT:      -8.6      3.733      4.369
REMARK  Name = 
REMARK  5 active torsions:
REMARK  status: ('A' for Active; 'I' for Inactive)
REMARK    1  A    between atoms: C_2  and  C_24
REMARK    2  A    between atoms: N_3  and  C_4
REMARK    3  A    between atoms: C_4  and  C_5
REMARK    4  A    between atoms: N_7  and  C_8
REMARK    5  A    between atoms: C_11  and  N_12
REMARK                            x       y       z     vdW  Elec       q    Type
REMARK                         _______ _______ _______ _____ _____    ______ ____
ROOT
ATOM      1  C   UNL     1       1.576   6.064 -10.161  0.00  0.00    +0.212 C 
ATOM      2  O   UNL     1       1.121   7.213  -9.223  0.00  0.00    -0.434 OA
ATOM      3  C   UNL     1       2.040   7.239  -8.216  0.00  0.00    +0.409 C 
ATOM      4  O   UNL     1       2.068   8.148  -7.330  0.00  0.00    -0.226 OA
ATOM      5  N   UNL     1       2.438   5.908  -7.970  0.00  0.00    -0.221 N 
ATOM      6  C   UNL     1       1.765   5.026  -8.881  0.00  0.00    +0.147 C 
ENDROOT
BRANCH   5   7
ATOM      7  C   UNL     1       3.010   5.458  -6.755  0.00  0.00    +0.057 A 
ATOM      8  C   UNL     1       4.355   5.564  -6.455  0.00  0.00    +0.016 A 
ATOM      9  C   UNL     1       4.722   5.862  -5.158  0.00  0.00    +0.016 A 
ATOM     10  C   UNL     1       3.769   5.768  -4.152  0.00  0.00    +0.054 A 
ATOM     11  C   UNL     1       2.646   5.013  -4.452  0.00  0.00    +0.016 A 
ATOM     12  C   UNL     1       2.241   4.847  -5.772  0.00  0.00    +0.016 A 
BRANCH  10  13
ATOM     13  N   UNL     1       4.220   5.958  -2.806  0.00  0.00    -0.254 N 
ATOM     14  C   UNL     1       3.925   7.210  -2.169  0.00  0.00    +0.260 C 
ATOM     15  O   UNL     1       3.460   8.187  -2.831  0.00  0.00    -0.272 OA
ATOM     16  C   UNL     1       3.777   7.127  -0.680  0.00  0.00    +0.228 C 
ATOM     17  O   UNL     1       2.804   6.207  -0.364  0.00  0.00    -0.343 OA
ATOM     18  C   UNL     1       2.722   5.119  -1.197  0.00  0.00    +0.165 C 
ATOM     19  C   UNL     1       4.013   4.805  -1.929  0.00  0.00    +0.130 C 
ENDBRANCH  10  13
ENDBRANCH   5   7
BRANCH   1  20
ATOM     20  C   UNL     1       3.171   6.533 -10.114  0.00  0.00    +0.161 C 
BRANCH  20  23
ATOM     21  O   UNL     1       5.715   5.503 -10.196  0.00  0.00    -0.268 OA
ATOM     22  C   UNL     1       5.157   5.437 -11.220  0.00  0.00    +0.271 C 
ATOM     23  N   UNL     1       3.758   5.755 -11.204  0.00  0.00    -0.197 NA
BRANCH  22  24
ATOM     24  C   UNL     1       5.979   5.639 -12.423  0.00  0.00    +0.085 A 
ATOM     25  S   UNL     1       5.448   6.001 -14.017  0.00  0.00    -0.071 S 
ATOM     26  C   UNL     1       6.965   6.319 -14.752  0.00  0.00    +0.087 A 
ATOM     27 CL   UNL     1       7.392   7.032 -16.291  0.00  0.00    -0.075 Cl
ATOM     28  C   UNL     1       7.823   5.936 -13.727  0.00  0.00    +0.019 A 
ATOM     29  C   UNL     1       7.271   6.146 -12.498  0.00  0.00    +0.012 A 
ENDBRANCH  22  24
ENDBRANCH  20  23
ENDBRANCH   1  20
TORSDOF 5
ENDMDL
MODEL 6
REMARK VINA RESULT:      -8.5      4.900      9.154
REMARK  Name = 
REMARK  5 active torsions:
REMARK  status: ('A' for Active; 'I' for Inactive)
REMARK    1  A    between atoms: C_2  and  C_24
REMARK    2  A    between atoms: N_3  and  C_4
REMARK    3  A    between atoms: C_4  and  C_5
REMARK    4  A    between atoms: N_7  and  C_8
REMARK    5  A    between atoms: C_11  and  N_12
REMARK                            x       y       z     vdW  Elec       q    Type
REMARK                         _______ _______ _______ _____ _____    ______ ____
ROOT
ATOM      1  C   UNL     1       0.488   5.818  -4.892  0.00  0.00    +0.212 C 
ATOM      2  O   UNL     1       0.518   4.529  -5.755  0.00  0.00    -0.434 OA
ATOM      3  C   UNL     1       1.791   4.448  -6.236  0.00  0.00    +0.409 C 
ATOM      4  O   UNL     1       2.226   3.440  -6.874  0.00  0.00    -0.226 OA
ATOM      5  N   UNL     1       2.241   5.765  -6.471  0.00  0.00    -0.221 N 
ATOM      6  C   UNL     1       1.219   6.699  -6.092  0.00  0.00    +0.147 C 
ENDROOT
BRANCH   5   7
ATOM      7  C   UNL     1       3.291   6.102  -7.359  0.00  0.00    +0.057 A 
ATOM      8  C   UNL     1       4.583   5.624  -7.236  0.00  0.00    +0.016 A 
ATOM      9  C   UNL     1       5.285   5.314  -8.383  0.00  0.00    +0.016 A 
ATOM     10  C   UNL     1       4.795   5.748  -9.609  0.00  0.00    +0.054 A 
ATOM     11  C   UNL     1       3.871   6.779  -9.559  0.00  0.00    +0.016 A 
ATOM     12  C   UNL     1       3.092   6.973  -8.424  0.00  0.00    +0.016 A 
BRANCH  10  13
ATOM     13  N   UNL     1       5.618   5.519 -10.758  0.00  0.00    -0.254 N 
ATOM     14  C   UNL     1       4.984   5.499 -12.045  0.00  0.00    +0.260 C 
ATOM     15  O   UNL     1       3.719   5.486 -12.152  0.00  0.00    -0.272 OA
ATOM     16  C   UNL     1       5.863   5.941 -13.176  0.00  0.00    +0.228 C 
ATOM     17  O   UNL     1       6.347   7.203 -12.917  0.00  0.00    -0.343 OA
ATOM     18  C   UNL     1       6.608   7.481 -11.598  0.00  0.00    +0.165 C 
ATOM     19  C   UNL     1       6.884   6.252 -10.753  0.00  0.00    +0.130 C 
ENDBRANCH  10  13
ENDBRANCH   5   7
BRANCH   1  20
ATOM     20  C   UNL     1       1.940   5.471  -4.160  0.00  0.00    +0.161 C 
BRANCH  20  23
ATOM     21  O   UNL     1       3.827   7.440  -3.841  0.00  0.00    -0.268 OA
ATOM     22  C   UNL     1       3.131   7.314  -2.912  0.00  0.00    +0.271 C 
ATOM     23  N   UNL     1       1.991   6.459  -3.082  0.00  0.00    -0.197 NA
BRANCH  22  24
ATOM     24  C   UNL     1       3.761   7.505  -1.597  0.00  0.00    +0.085 A 
ATOM     25  S   UNL     1       3.573   8.831  -0.519  0.00  0.00    -0.071 S 
ATOM     26  C   UNL     1       4.401   8.202   0.845  0.00  0.00    +0.087 A 
ATOM     27 CL   UNL     1       4.491   8.737   2.508  0.00  0.00    -0.075 Cl
ATOM     28  C   UNL     1       4.940   7.043   0.297  0.00  0.00    +0.019 A 
ATOM     29  C   UNL     1       4.145   6.529  -0.684  0.00  0.00    +0.012 A 
ENDBRANCH  22  24
ENDBRANCH  20  23
ENDBRANCH   1  20
TORSDOF 5
ENDMDL
MODEL 7
REMARK VINA RESULT:      -8.4      3.177      3.987
REMARK  Name = 
REMARK  5 active torsions:
REMARK  status: ('A' for Active; 'I' for Inactive)
REMARK    1  A    between atoms: C_2  and  C_24
REMARK    2  A    between atoms: N_3  and  C_4
REMARK    3  A    between atoms: C_4  and  C_5
REMARK    4  A    between atoms: N_7  and  C_8
REMARK    5  A    between atoms: C_11  and  N_12
REMARK                            x       y       z     vdW  Elec       q    Type
REMARK                         _______ _______ _______ _____ _____    ______ ____
ROOT
ATOM      1  C   UNL     1       1.070   5.144 -12.585  0.00  0.00    +0.212 C 
ATOM      2  O   UNL     1      -0.084   6.170 -12.442  0.00  0.00    -0.434 OA
ATOM      3  C   UNL     1       0.193   6.867 -11.304  0.00  0.00    +0.409 C 
ATOM      4  O   UNL     1      -0.467   7.890 -10.943  0.00  0.00    -0.226 OA
ATOM      5  N   UNL     1       0.790   5.971 -10.393  0.00  0.00    -0.221 N 
ATOM      6  C   UNL     1       0.917   4.676 -11.001  0.00  0.00    +0.147 C 
ENDROOT
BRANCH   5   7
ATOM      7  C   UNL     1       0.817   6.160  -8.990  0.00  0.00    +0.057 A 
ATOM      8  C   UNL     1      -0.111   5.611  -8.124  0.00  0.00    +0.016 A 
ATOM      9  C   UNL     1       0.320   5.155  -6.894  0.00  0.00    +0.016 A 
ATOM     10  C   UNL     1       1.589   5.510  -6.453  0.00  0.00    +0.054 A 
ATOM     11  C   UNL     1       2.166   6.599  -7.086  0.00  0.00    +0.016 A 
ATOM     12  C   UNL     1       1.790   6.944  -8.379  0.00  0.00    +0.016 A 
BRANCH  10  13
ATOM     13  N   UNL     1       1.947   5.127  -5.121  0.00  0.00    -0.254 N 
ATOM     14  C   UNL     1       3.337   4.917  -4.833  0.00  0.00    +0.260 C 
ATOM     15  O   UNL     1       4.199   4.876  -5.763  0.00  0.00    -0.272 OA
ATOM     16  C   UNL     1       3.725   5.201  -3.413  0.00  0.00    +0.228 C 
ATOM     17  O   UNL     1       3.375   6.492  -3.090  0.00  0.00    -0.343 OA
ATOM     18  C   UNL     1       2.222   6.958  -3.669  0.00  0.00    +0.165 C 
ATOM     19  C   UNL     1       1.248   5.866  -4.069  0.00  0.00    +0.130 C 
ENDBRANCH  10  13
ENDBRANCH   5   7
BRANCH   1  20
ATOM     20  C   UNL     1       2.238   6.269 -12.219  0.00  0.00    +0.161 C 
BRANCH  20  23
ATOM     21  O   UNL     1       4.287   5.619 -10.509  0.00  0.00    -0.268 OA
ATOM     22  C   UNL     1       4.555   5.453 -11.634  0.00  0.00    +0.271 C 
ATOM     23  N   UNL     1       3.472   5.565 -12.569  0.00  0.00    -0.197 NA
BRANCH  22  24
ATOM     24  C   UNL     1       5.941   5.750 -12.022  0.00  0.00    +0.085 A 
ATOM     25  S   UNL     1       7.322   5.862 -11.004  0.00  0.00    -0.071 S 
ATOM     26  C   UNL     1       8.544   5.980 -12.201  0.00  0.00    +0.087 A 
ATOM     27 CL   UNL     1      10.287   5.859 -12.110  0.00  0.00    -0.075 Cl
ATOM     28  C   UNL     1       7.762   6.110 -13.344  0.00  0.00    +0.019 A 
ATOM     29  C   UNL     1       6.575   5.450 -13.223  0.00  0.00    +0.012 A 
ENDBRANCH  22  24
ENDBRANCH  20  23
ENDBRANCH   1  20
TORSDOF 5
ENDMDL
MODEL 8
REMARK VINA RESULT:      -8.3      4.557      9.547
REMARK  Name = 
REMARK  5 active torsions:
REMARK  status: ('A' for Active; 'I' for Inactive)
REMARK    1  A    between atoms: C_2  and  C_24
REMARK    2  A    between atoms: N_3  and  C_4
REMARK    3  A    between atoms: C_4  and  C_5
REMARK    4  A    between atoms: N_7  and  C_8
REMARK    5  A    between atoms: C_11  and  N_12
REMARK                            x       y       z     vdW  Elec       q    Type
REMARK                         _______ _______ _______ _____ _____    ______ ____
ROOT
ATOM      1  C   UNL     1      -1.476   6.908  -4.320  0.00  0.00    +0.212 C 
ATOM      2  O   UNL     1      -2.045   6.450  -5.689  0.00  0.00    -0.434 OA
ATOM      3  C   UNL     1      -1.049   5.721  -6.267  0.00  0.00    +0.409 C 
ATOM      4  O   UNL     1      -1.207   5.066  -7.343  0.00  0.00    -0.226 OA
ATOM      5  N   UNL     1       0.178   6.308  -5.892  0.00  0.00    -0.221 N 
ATOM      6  C   UNL     1      -0.065   7.425  -5.024  0.00  0.00    +0.147 C 
ENDROOT
BRANCH   5   7
ATOM      7  C   UNL     1       1.390   6.149  -6.608  0.00  0.00    +0.057 A 
ATOM      8  C   UNL     1       2.085   4.956  -6.684  0.00  0.00    +0.016 A 
ATOM      9  C   UNL     1       2.702   4.624  -7.874  0.00  0.00    +0.016 A 
ATOM     10  C   UNL     1       2.846   5.601  -8.851  0.00  0.00    +0.054 A 
ATOM     11  C   UNL     1       2.724   6.911  -8.417  0.00  0.00    +0.016 A 
ATOM     12  C   UNL     1       1.983   7.211  -7.280  0.00  0.00    +0.016 A 
BRANCH  10  13
ATOM     13  N   UNL     1       3.605   5.252 -10.014  0.00  0.00    -0.254 N 
ATOM     14  C   UNL     1       3.085   5.636 -11.296  0.00  0.00    +0.260 C 
ATOM     15  O   UNL     1       1.905   6.090 -11.414  0.00  0.00    -0.272 OA
ATOM     16  C   UNL     1       4.130   5.884 -12.340  0.00  0.00    +0.228 C 
ATOM     17  O   UNL     1       5.010   6.843 -11.891  0.00  0.00    -0.343 OA
ATOM     18  C   UNL     1       5.271   6.827 -10.544  0.00  0.00    +0.165 C 
ATOM     19  C   UNL     1       5.045   5.477  -9.889  0.00  0.00    +0.130 C 
ENDBRANCH  10  13
ENDBRANCH   5   7
BRANCH   1  20
ATOM     20  C   UNL     1      -0.844   5.409  -3.978  0.00  0.00    +0.161 C 
BRANCH  20  23
ATOM     21  O   UNL     1      -2.274   5.037  -1.662  0.00  0.00    -0.268 OA
ATOM     22  C   UNL     1      -1.238   5.550  -1.488  0.00  0.00    +0.271 C 
ATOM     23  N   UNL     1      -0.348   5.583  -2.613  0.00  0.00    -0.197 NA
BRANCH  22  24
ATOM     24  C   UNL     1      -1.191   6.576  -0.437  0.00  0.00    +0.085 A 
ATOM     25  S   UNL     1       0.198   7.315   0.256  0.00  0.00    -0.071 S 
ATOM     26  C   UNL     1      -0.568   8.535   1.187  0.00  0.00    +0.087 A 
ATOM     27 CL   UNL     1       0.060   9.942   2.015  0.00  0.00    -0.075 Cl
ATOM     28  C   UNL     1      -1.899   8.163   1.037  0.00  0.00    +0.019 A 
ATOM     29  C   UNL     1      -2.127   7.569  -0.169  0.00  0.00    +0.012 A 
ENDBRANCH  22  24
ENDBRANCH  20  23
ENDBRANCH   1  20
TORSDOF 5
ENDMDL
MODEL 9
REMARK VINA RESULT:      -8.2      5.029      9.345
REMARK  Name = 
REMARK  5 active torsions:
REMARK  status: ('A' for Active; 'I' for Inactive)
REMARK    1  A    between atoms: C_2  and  C_24
REMARK    2  A    between atoms: N_3  and  C_4
REMARK    3  A    between atoms: C_4  and  C_5
REMARK    4  A    between atoms: N_7  and  C_8
REMARK    5  A    between atoms: C_11  and  N_12
REMARK                            x       y       z     vdW  Elec       q    Type
REMARK                         _______ _______ _______ _____ _____    ______ ____
ROOT
ATOM      1  C   UNL     1       3.530   6.286  -5.385  0.00  0.00    +0.212 C 
ATOM      2  O   UNL     1       3.338   7.610  -6.170  0.00  0.00    -0.434 OA
ATOM      3  C   UNL     1       2.554   7.285  -7.237  0.00  0.00    +0.409 C 
ATOM      4  O   UNL     1       2.073   8.152  -8.030  0.00  0.00    -0.226 OA
ATOM      5  N   UNL     1       2.907   5.980  -7.640  0.00  0.00    -0.221 N 
ATOM      6  C   UNL     1       3.926   5.464  -6.770  0.00  0.00    +0.147 C 
ENDROOT
BRANCH   5   7
ATOM      7  C   UNL     1       2.670   5.453  -8.933  0.00  0.00    +0.057 A 
ATOM      8  C   UNL     1       1.569   4.681  -9.257  0.00  0.00    +0.016 A 
ATOM      9  C   UNL     1       0.984   4.850 -10.496  0.00  0.00    +0.016 A 
ATOM     10  C   UNL     1       1.669   5.566 -11.469  0.00  0.00    +0.054 A 
ATOM     11  C   UNL     1       3.031   5.714 -11.264  0.00  0.00    +0.016 A 
ATOM     12  C   UNL     1       3.560   5.664  -9.979  0.00  0.00    +0.016 A 
BRANCH  10  13
ATOM     13  N   UNL     1       1.088   5.608 -12.778  0.00  0.00    -0.254 N 
ATOM     14  C   UNL     1       0.525   6.850 -13.224  0.00  0.00    +0.260 C 
ATOM     15  O   UNL     1       0.365   7.821 -12.423  0.00  0.00    -0.272 OA
ATOM     16  C   UNL     1       0.573   7.055 -14.707  0.00  0.00    +0.228 C 
ATOM     17  O   UNL     1       1.874   6.953 -15.144  0.00  0.00    -0.343 OA
ATOM     18  C   UNL     1       2.656   6.044 -14.477  0.00  0.00    +0.165 C 
ATOM     19  C   UNL     1       1.872   4.930 -13.811  0.00  0.00    +0.130 C 
ENDBRANCH  10  13
ENDBRANCH   5   7
BRANCH   1  20
ATOM     20  C   UNL     1       1.924   5.873  -5.508  0.00  0.00    +0.161 C 
BRANCH  20  23
ATOM     21  O   UNL     1      -0.572   5.395  -4.467  0.00  0.00    -0.268 OA
ATOM     22  C   UNL     1       0.278   5.356  -3.666  0.00  0.00    +0.271 C 
ATOM     23  N   UNL     1       1.623   5.382  -4.164  0.00  0.00    -0.197 NA
BRANCH  22  24
ATOM     24  C   UNL     1      -0.061   5.877  -2.334  0.00  0.00    +0.085 A 
ATOM     25  S   UNL     1      -1.621   6.042  -1.629  0.00  0.00    -0.071 S 
ATOM     26  C   UNL     1      -1.163   6.465  -0.032  0.00  0.00    +0.087 A 
ATOM     27 CL   UNL     1      -2.073   6.562   1.459  0.00  0.00    -0.075 Cl
ATOM     28  C   UNL     1       0.207   6.633  -0.202  0.00  0.00    +0.019 A 
ATOM     29  C   UNL     1       0.701   5.814  -1.173  0.00  0.00    +0.012 A 
ENDBRANCH  22  24
ENDBRANCH  20  23
ENDBRANCH   1  20
TORSDOF 5
ENDMDL
