MODEL 1
REMARK VINA RESULT:      -4.7      0.000      0.000
REMARK  Name = 
REMARK  5 active torsions:
REMARK  status: ('A' for Active; 'I' for Inactive)
REMARK    1  A    between atoms: C_2  and  C_4
REMARK    2  A    between atoms: C_4  and  C_5
REMARK    3  A    between atoms: C_5  and  C_7
REMARK    4  A    between atoms: C_5  and  C_11
REMARK    5  A    between atoms: C_7  and  C_8
REMARK                            x       y       z     vdW  Elec       q    Type
REMARK                         _______ _______ _______ _____ _____    ______ ____
ROOT
ATOM      1  C   UNL     1       0.598   5.451  -7.084  0.00  0.00    +0.240 C 
ATOM      2  O   UNL     1      -0.782   5.265  -7.263  0.00  0.00    -0.213 OA
ENDROOT
BRANCH   1   3
ATOM      3  C   UNL     1       1.119   4.379  -6.177  0.00  0.00    +0.393 C 
ATOM      4  O   UNL     1       1.204   4.739  -4.829  0.00  0.00    -0.243 OA
ATOM      5  O   UNL     1       2.088   3.700  -6.633  0.00  0.00    -0.243 OA
ENDBRANCH   1   3
BRANCH   1   6
ATOM      6  C   UNL     1       1.277   5.205  -8.428  0.00  0.00    +0.156 C 
BRANCH   6   8
ATOM      7  O   UNL     1       0.427   6.596 -10.095  0.00  0.00    -0.246 OA
ATOM      8  C   UNL     1       0.365   5.446  -9.566  0.00  0.00    +0.368 C 
ATOM      9  O   UNL     1       0.146   4.372 -10.435  0.00  0.00    -0.246 OA
ENDBRANCH   6   8
ENDBRANCH   1   6
BRANCH   1  10
ATOM     10  C   UNL     1       0.908   6.835  -6.552  0.00  0.00    +0.156 C 
BRANCH  10  11
ATOM     11  C   UNL     1       2.212   7.350  -7.068  0.00  0.00    +0.368 C 
ATOM     12  O   UNL     1       2.151   8.449  -7.930  0.00  0.00    -0.246 OA
ATOM     13  O   UNL     1       3.181   7.347  -6.249  0.00  0.00    -0.246 OA
ENDBRANCH  10  11
ENDBRANCH   1  10
TORSDOF 5
ENDMDL
MODEL 2
REMARK VINA RESULT:      -4.7      1.619      3.479
REMARK  Name = 
REMARK  5 active torsions:
REMARK  status: ('A' for Active; 'I' for Inactive)
REMARK    1  A    between atoms: C_2  and  C_4
REMARK    2  A    between atoms: C_4  and  C_5
REMARK    3  A    between atoms: C_5  and  C_7
REMARK    4  A    between atoms: C_5  and  C_11
REMARK    5  A    between atoms: C_7  and  C_8
REMARK                            x       y       z     vdW  Elec       q    Type
REMARK                         _______ _______ _______ _____ _____    ______ ____
ROOT
ATOM      1  C   UNL     1       0.434   5.491  -6.684  0.00  0.00    +0.240 C 
ATOM      2  O   UNL     1       0.866   5.314  -8.008  0.00  0.00    -0.213 OA
ENDROOT
BRANCH   1   3
ATOM      3  C   UNL     1       1.131   4.497  -5.808  0.00  0.00    +0.393 C 
ATOM      4  O   UNL     1       1.549   4.995  -4.570  0.00  0.00    -0.243 OA
ATOM      5  O   UNL     1       1.944   3.723  -6.397  0.00  0.00    -0.243 OA
ENDBRANCH   1   3
BRANCH   1   6
ATOM      6  C   UNL     1       0.929   6.857  -6.215  0.00  0.00    +0.156 C 
BRANCH   6   8
ATOM      7  O   UNL     1       1.956   8.247  -7.780  0.00  0.00    -0.246 OA
ATOM      8  C   UNL     1       2.129   7.300  -6.956  0.00  0.00    +0.368 C 
ATOM      9  O   UNL     1       3.338   7.299  -6.252  0.00  0.00    -0.246 OA
ENDBRANCH   6   8
ENDBRANCH   1   6
BRANCH   1  10
ATOM     10  C   UNL     1      -1.072   5.380  -6.571  0.00  0.00    +0.156 C 
BRANCH  10  11
ATOM     11  C   UNL     1      -1.600   6.143  -5.400  0.00  0.00    +0.368 C 
ATOM     12  O   UNL     1      -2.583   7.100  -5.673  0.00  0.00    -0.246 OA
ATOM     13  O   UNL     1      -1.754   5.488  -4.325  0.00  0.00    -0.246 OA
ENDBRANCH  10  11
ENDBRANCH   1  10
TORSDOF 5
ENDMDL
MODEL 3
REMARK VINA RESULT:      -4.5      2.008      3.281
REMARK  Name = 
REMARK  5 active torsions:
REMARK  status: ('A' for Active; 'I' for Inactive)
REMARK    1  A    between atoms: C_2  and  C_4
REMARK    2  A    between atoms: C_4  and  C_5
REMARK    3  A    between atoms: C_5  and  C_7
REMARK    4  A    between atoms: C_5  and  C_11
REMARK    5  A    between atoms: C_7  and  C_8
REMARK                            x       y       z     vdW  Elec       q    Type
REMARK                         _______ _______ _______ _____ _____    ______ ____
ROOT
ATOM      1  C   UNL     1       0.256   6.063  -6.019  0.00  0.00    +0.240 C 
ATOM      2  O   UNL     1       0.323   7.156  -5.139  0.00  0.00    -0.213 OA
ENDROOT
BRANCH   1   3
ATOM      3  C   UNL     1       0.793   4.849  -5.326  0.00  0.00    +0.393 C 
ATOM      4  O   UNL     1       1.527   5.109  -4.166  0.00  0.00    -0.243 OA
ATOM      5  O   UNL     1       1.258   3.946  -6.086  0.00  0.00    -0.243 OA
ENDBRANCH   1   3
BRANCH   1   6
ATOM      6  C   UNL     1      -1.218   5.762  -6.272  0.00  0.00    +0.156 C 
BRANCH   6   8
ATOM      7  O   UNL     1      -2.839   7.274  -5.545  0.00  0.00    -0.246 OA
ATOM      8  C   UNL     1      -2.089   6.308  -5.209  0.00  0.00    +0.368 C 
ATOM      9  O   UNL     1      -2.627   5.389  -4.302  0.00  0.00    -0.246 OA
ENDBRANCH   6   8
ENDBRANCH   1   6
BRANCH   1  10
ATOM     10  C   UNL     1       0.993   6.344  -7.311  0.00  0.00    +0.156 C 
BRANCH  10  11
ATOM     11  C   UNL     1       2.096   7.333  -7.119  0.00  0.00    +0.368 C 
ATOM     12  O   UNL     1       3.354   6.810  -6.802  0.00  0.00    -0.246 OA
ATOM     13  O   UNL     1       2.098   8.332  -7.901  0.00  0.00    -0.246 OA
ENDBRANCH  10  11
ENDBRANCH   1  10
TORSDOF 5
ENDMDL
MODEL 4
REMARK VINA RESULT:      -4.5      1.046      3.582
REMARK  Name = 
REMARK  5 active torsions:
REMARK  status: ('A' for Active; 'I' for Inactive)
REMARK    1  A    between atoms: C_2  and  C_4
REMARK    2  A    between atoms: C_4  and  C_5
REMARK    3  A    between atoms: C_5  and  C_7
REMARK    4  A    between atoms: C_5  and  C_11
REMARK    5  A    between atoms: C_7  and  C_8
REMARK                            x       y       z     vdW  Elec       q    Type
REMARK                         _______ _______ _______ _____ _____    ______ ____
ROOT
ATOM      1  C   UNL     1       1.711   5.058  -8.131  0.00  0.00    +0.240 C 
ATOM      2  O   UNL     1       2.165   3.965  -8.886  0.00  0.00    -0.213 OA
ENDROOT
BRANCH   1   3
ATOM      3  C   UNL     1       1.523   4.623  -6.711  0.00  0.00    +0.393 C 
ATOM      4  O   UNL     1       2.244   3.482  -6.345  0.00  0.00    -0.243 OA
ATOM      5  O   UNL     1       0.337   4.694  -6.269  0.00  0.00    -0.243 OA
ENDBRANCH   1   3
BRANCH   1   6
ATOM      6  C   UNL     1       2.835   6.090  -8.089  0.00  0.00    +0.156 C 
BRANCH   6   8
ATOM      7  O   UNL     1       3.201   7.418  -6.207  0.00  0.00    -0.246 OA
ATOM      8  C   UNL     1       2.492   7.254  -7.246  0.00  0.00    +0.368 C 
ATOM      9  O   UNL     1       2.086   8.415  -7.912  0.00  0.00    -0.246 OA
ENDBRANCH   6   8
ENDBRANCH   1   6
BRANCH   1  10
ATOM     10  C   UNL     1       0.442   5.646  -8.711  0.00  0.00    +0.156 C 
BRANCH  10  11
ATOM     11  C   UNL     1       0.527   5.799 -10.195  0.00  0.00    +0.368 C 
ATOM     12  O   UNL     1      -0.181   4.864 -10.958  0.00  0.00    -0.246 OA
ATOM     13  O   UNL     1       0.525   6.987 -10.639  0.00  0.00    -0.246 OA
ENDBRANCH  10  11
ENDBRANCH   1  10
TORSDOF 5
ENDMDL
MODEL 5
REMARK VINA RESULT:      -4.5      1.527      3.141
REMARK  Name = 
REMARK  5 active torsions:
REMARK  status: ('A' for Active; 'I' for Inactive)
REMARK    1  A    between atoms: C_2  and  C_4
REMARK    2  A    between atoms: C_4  and  C_5
REMARK    3  A    between atoms: C_5  and  C_7
REMARK    4  A    between atoms: C_5  and  C_11
REMARK    5  A    between atoms: C_7  and  C_8
REMARK                            x       y       z     vdW  Elec       q    Type
REMARK                         _______ _______ _______ _____ _____    ______ ____
ROOT
ATOM      1  C   UNL     1       0.683   5.443  -6.875  0.00  0.00    +0.240 C 
ATOM      2  O   UNL     1       1.352   4.459  -6.129  0.00  0.00    -0.213 OA
ENDROOT
BRANCH   1   3
ATOM      3  C   UNL     1       1.028   5.273  -8.322  0.00  0.00    +0.393 C 
ATOM      4  O   UNL     1      -0.049   5.411  -9.203  0.00  0.00    -0.243 OA
ATOM      5  O   UNL     1       1.843   4.338  -8.585  0.00  0.00    -0.243 OA
ENDBRANCH   1   3
BRANCH   1   6
ATOM      6  C   UNL     1      -0.813   5.158  -6.782  0.00  0.00    +0.156 C 
BRANCH   6   8
ATOM      7  O   UNL     1      -2.559   6.499  -6.014  0.00  0.00    -0.246 OA
ATOM      8  C   UNL     1      -1.464   5.938  -5.709  0.00  0.00    +0.368 C 
ATOM      9  O   UNL     1      -1.368   5.425  -4.411  0.00  0.00    -0.246 OA
ENDBRANCH   6   8
ENDBRANCH   1   6
BRANCH   1  10
ATOM     10  C   UNL     1       1.013   6.836  -6.380  0.00  0.00    +0.156 C 
BRANCH  10  11
ATOM     11  C   UNL     1       2.272   7.360  -6.989  0.00  0.00    +0.368 C 
ATOM     12  O   UNL     1       2.135   8.425  -7.885  0.00  0.00    -0.246 OA
ATOM     13  O   UNL     1       3.287   7.408  -6.229  0.00  0.00    -0.246 OA
ENDBRANCH  10  11
ENDBRANCH   1  10
TORSDOF 5
ENDMDL
MODEL 6
REMARK VINA RESULT:      -4.5      5.491      6.426
REMARK  Name = 
REMARK  5 active torsions:
REMARK  status: ('A' for Active; 'I' for Inactive)
REMARK    1  A    between atoms: C_2  and  C_4
REMARK    2  A    between atoms: C_4  and  C_5
REMARK    3  A    between atoms: C_5  and  C_7
REMARK    4  A    between atoms: C_5  and  C_11
REMARK    5  A    between atoms: C_7  and  C_8
REMARK                            x       y       z     vdW  Elec       q    Type
REMARK                         _______ _______ _______ _____ _____    ______ ____
ROOT
ATOM      1  C   UNL     1       5.758   6.354 -11.003  0.00  0.00    +0.240 C 
ATOM      2  O   UNL     1       5.105   7.549 -10.659  0.00  0.00    -0.213 OA
ENDROOT
BRANCH   1   3
ATOM      3  C   UNL     1       6.370   5.762  -9.771  0.00  0.00    +0.393 C 
ATOM      4  O   UNL     1       5.481   5.559  -8.712  0.00  0.00    -0.243 OA
ATOM      5  O   UNL     1       7.513   6.212  -9.457  0.00  0.00    -0.243 OA
ENDBRANCH   1   3
BRANCH   1   6
ATOM      6  C   UNL     1       4.691   5.353 -11.441  0.00  0.00    +0.156 C 
BRANCH   6   8
ATOM      7  O   UNL     1       2.958   6.119 -12.800  0.00  0.00    -0.246 OA
ATOM      8  C   UNL     1       3.367   5.988 -11.608  0.00  0.00    +0.368 C 
ATOM      9  O   UNL     1       2.397   5.681 -10.647  0.00  0.00    -0.246 OA
ENDBRANCH   6   8
ENDBRANCH   1   6
BRANCH   1  10
ATOM     10  C   UNL     1       6.788   6.576 -12.090  0.00  0.00    +0.156 C 
BRANCH  10  11
ATOM     11  C   UNL     1       6.939   5.375 -12.967  0.00  0.00    +0.368 C 
ATOM     12  O   UNL     1       6.700   5.567 -14.332  0.00  0.00    -0.246 OA
ATOM     13  O   UNL     1       7.890   4.586 -12.681  0.00  0.00    -0.246 OA
ENDBRANCH  10  11
ENDBRANCH   1  10
TORSDOF 5
ENDMDL
MODEL 7
REMARK VINA RESULT:      -4.3      2.106      3.018
REMARK  Name = 
REMARK  5 active torsions:
REMARK  status: ('A' for Active; 'I' for Inactive)
REMARK    1  A    between atoms: C_2  and  C_4
REMARK    2  A    between atoms: C_4  and  C_5
REMARK    3  A    between atoms: C_5  and  C_7
REMARK    4  A    between atoms: C_5  and  C_11
REMARK    5  A    between atoms: C_7  and  C_8
REMARK                            x       y       z     vdW  Elec       q    Type
REMARK                         _______ _______ _______ _____ _____    ______ ____
ROOT
ATOM      1  C   UNL     1       3.014   5.293  -8.882  0.00  0.00    +0.240 C 
ATOM      2  O   UNL     1       3.053   3.891  -8.806  0.00  0.00    -0.213 OA
ENDROOT
BRANCH   1   3
ATOM      3  C   UNL     1       4.415   5.813  -8.971  0.00  0.00    +0.393 C 
ATOM      4  O   UNL     1       4.731   6.452 -10.173  0.00  0.00    -0.243 OA
ATOM      5  O   UNL     1       5.312   5.055  -8.493  0.00  0.00    -0.243 OA
ENDBRANCH   1   3
BRANCH   1   6
ATOM      6  C   UNL     1       2.363   5.665 -10.212  0.00  0.00    +0.156 C 
BRANCH   6   8
ATOM      7  O   UNL     1       0.338   6.790 -10.476  0.00  0.00    -0.246 OA
ATOM      8  C   UNL     1       0.889   5.706 -10.118  0.00  0.00    +0.368 C 
ATOM      9  O   UNL     1       0.206   4.527 -10.434  0.00  0.00    -0.246 OA
ENDBRANCH   6   8
ENDBRANCH   1   6
BRANCH   1  10
ATOM     10  C   UNL     1       2.265   5.893  -7.712  0.00  0.00    +0.156 C 
BRANCH  10  11
ATOM     11  C   UNL     1       2.783   7.249  -7.356  0.00  0.00    +0.368 C 
ATOM     12  O   UNL     1       2.099   8.340  -7.904  0.00  0.00    -0.246 OA
ATOM     13  O   UNL     1       3.194   7.399  -6.166  0.00  0.00    -0.246 OA
ENDBRANCH  10  11
ENDBRANCH   1  10
TORSDOF 5
ENDMDL
MODEL 8
REMARK VINA RESULT:      -4.3      2.165      4.486
REMARK  Name = 
REMARK  5 active torsions:
REMARK  status: ('A' for Active; 'I' for Inactive)
REMARK    1  A    between atoms: C_2  and  C_4
REMARK    2  A    between atoms: C_4  and  C_5
REMARK    3  A    between atoms: C_5  and  C_7
REMARK    4  A    between atoms: C_5  and  C_11
REMARK    5  A    between atoms: C_7  and  C_8
REMARK                            x       y       z     vdW  Elec       q    Type
REMARK                         _______ _______ _______ _____ _____    ______ ____
ROOT
ATOM      1  C   UNL     1       3.243   5.685  -5.978  0.00  0.00    +0.240 C 
ATOM      2  O   UNL     1       3.942   5.356  -7.151  0.00  0.00    -0.213 OA
ENDROOT
BRANCH   1   3
ATOM      3  C   UNL     1       2.385   4.524  -5.583  0.00  0.00    +0.393 C 
ATOM      4  O   UNL     1       2.194   3.566  -6.583  0.00  0.00    -0.243 OA
ATOM      5  O   UNL     1       1.365   4.809  -4.886  0.00  0.00    -0.243 OA
ENDBRANCH   1   3
BRANCH   1   6
ATOM      6  C   UNL     1       4.266   5.829  -4.855  0.00  0.00    +0.156 C 
BRANCH   6   8
ATOM      7  O   UNL     1       3.626   7.037  -2.965  0.00  0.00    -0.246 OA
ATOM      8  C   UNL     1       4.122   7.109  -4.130  0.00  0.00    +0.368 C 
ATOM      9  O   UNL     1       5.134   8.056  -4.318  0.00  0.00    -0.246 OA
ENDBRANCH   6   8
ENDBRANCH   1   6
BRANCH   1  10
ATOM     10  C   UNL     1       2.430   6.950  -6.152  0.00  0.00    +0.156 C 
BRANCH  10  11
ATOM     11  C   UNL     1       2.104   7.209  -7.587  0.00  0.00    +0.368 C 
ATOM     12  O   UNL     1       1.059   6.457  -8.133  0.00  0.00    -0.246 OA
ATOM     13  O   UNL     1       2.170   8.417  -7.970  0.00  0.00    -0.246 OA
ENDBRANCH  10  11
ENDBRANCH   1  10
TORSDOF 5
ENDMDL
MODEL 9
REMARK VINA RESULT:      -4.3      1.409      4.442
REMARK  Name = 
REMARK  5 active torsions:
REMARK  status: ('A' for Active; 'I' for Inactive)
REMARK    1  A    between atoms: C_2  and  C_4
REMARK    2  A    between atoms: C_4  and  C_5
REMARK    3  A    between atoms: C_5  and  C_7
REMARK    4  A    between atoms: C_5  and  C_11
REMARK    5  A    between atoms: C_7  and  C_8
REMARK                            x       y       z     vdW  Elec       q    Type
REMARK                         _______ _______ _______ _____ _____    ______ ____
ROOT
ATOM      1  C   UNL     1       1.970   6.991  -7.589  0.00  0.00    +0.240 C 
ATOM      2  O   UNL     1       2.089   8.378  -7.778  0.00  0.00    -0.213 OA
ENDROOT
BRANCH   1   3
ATOM      3  C   UNL     1       1.625   6.351  -8.898  0.00  0.00    +0.393 C 
ATOM      4  O   UNL     1       2.603   5.494  -9.410  0.00  0.00    -0.243 OA
ATOM      5  O   UNL     1       1.050   7.103  -9.741  0.00  0.00    -0.243 OA
ENDBRANCH   1   3
BRANCH   1   6
ATOM      6  C   UNL     1       3.353   6.453  -7.231  0.00  0.00    +0.156 C 
BRANCH   6   8
ATOM      7  O   UNL     1       4.010   5.355  -5.282  0.00  0.00    -0.246 OA
ATOM      8  C   UNL     1       3.588   6.445  -5.772  0.00  0.00    +0.368 C 
ATOM      9  O   UNL     1       4.099   7.620  -5.211  0.00  0.00    -0.246 OA
ENDBRANCH   6   8
ENDBRANCH   1   6
BRANCH   1  10
ATOM     10  C   UNL     1       0.953   6.661  -6.517  0.00  0.00    +0.156 C 
BRANCH  10  11
ATOM     11  C   UNL     1       0.289   5.346  -6.767  0.00  0.00    +0.368 C 
ATOM     12  O   UNL     1       0.803   4.247  -6.072  0.00  0.00    -0.246 OA
ATOM     13  O   UNL     1      -0.972   5.370  -6.902  0.00  0.00    -0.246 OA
ENDBRANCH  10  11
ENDBRANCH   1  10
TORSDOF 5
ENDMDL
