MODEL 1
REMARK VINA RESULT:      -8.3      0.000      0.000
REMARK  Name = 
REMARK  23 active torsions:
REMARK  status: ('A' for Active; 'I' for Inactive)
REMARK    1  A    between atoms: C_2  and  C_4
REMARK    2  A    between atoms: C_4  and  N_5
REMARK    3  A    between atoms: N_5  and  C_6
REMARK    4  A    between atoms: N_5  and  C_48
REMARK    5  A    between atoms: C_6  and  C_7
REMARK    6  A    between atoms: C_7  and  N_8
REMARK    7  A    between atoms: N_8  and  C_9
REMARK    8  A    between atoms: N_8  and  C_13
REMARK    9  A    between atoms: C_9  and  C_10
REMARK   10  A    between atoms: C_13  and  C_14
REMARK   11  A    between atoms: C_14  and  C_15
REMARK   12  A    between atoms: C_14  and  N_39
REMARK   13  A    between atoms: C_15  and  O_16
REMARK   14  A    between atoms: O_16  and  P_17
REMARK   15  A    between atoms: P_17  and  O_20
REMARK   16  A    between atoms: O_20  and  C_21
REMARK   17  A    between atoms: C_24  and  C_25
REMARK   18  A    between atoms: C_24  and  C_31
REMARK   19  A    between atoms: N_39  and  C_40
REMARK   20  A    between atoms: N_39  and  C_44
REMARK   21  A    between atoms: C_40  and  C_41
REMARK   22  A    between atoms: C_44  and  C_45
REMARK   23  A    between atoms: C_48  and  C_49
REMARK                            x       y       z     vdW  Elec       q    Type
REMARK                         _______ _______ _______ _____ _____    ______ ____
ROOT
ATOM      1  C   UNL     1       0.844   6.359  -3.337  0.00  0.00    +0.105 C 
ENDROOT
BRANCH   1   2
ATOM      2  N   UNL     1       2.136   6.551  -2.415  0.00  0.00    -0.251 NA
BRANCH   2   3
ATOM      3  C   UNL     1       3.230   6.656  -3.342  0.00  0.00    +0.188 C 
BRANCH   3   4
ATOM      4  C   UNL     1       3.971   7.926  -3.253  0.00  0.00    +0.381 C 
ATOM      5  O   UNL     1       3.944   8.639  -2.072  0.00  0.00    -0.244 OA
ATOM      6  O   UNL     1       4.975   8.086  -3.991  0.00  0.00    -0.244 OA
ENDBRANCH   3   4
ENDBRANCH   2   3
BRANCH   2   7
ATOM      7  C   UNL     1       2.191   5.368  -1.598  0.00  0.00    +0.188 C 
BRANCH   7   8
ATOM      8  C   UNL     1       3.513   5.123  -0.989  0.00  0.00    +0.381 C 
ATOM      9  O   UNL     1       3.897   6.001   0.030  0.00  0.00    -0.244 OA
ATOM     10  O   UNL     1       3.991   3.954  -0.867  0.00  0.00    -0.244 OA
ENDBRANCH   7   8
ENDBRANCH   2   7
ENDBRANCH   1   2
BRANCH   1  11
ATOM     11  C   UNL     1       0.250   5.137  -2.366  0.00  0.00    +0.091 C 
BRANCH  11  12
ATOM     12  N   UNL     1      -1.180   5.434  -2.297  0.00  0.00    -0.261 NA
BRANCH  12  13
ATOM     13  C   UNL     1      -1.489   5.696  -0.892  0.00  0.00    +0.090 C 
BRANCH  13  14
ATOM     14  C   UNL     1      -1.895   7.120  -0.650  0.00  0.00    +0.091 C 
BRANCH  14  15
ATOM     15  N   UNL     1      -1.350   7.696   0.544  0.00  0.00    -0.252 NA
BRANCH  15  16
ATOM     16  C   UNL     1      -0.200   8.527   0.338  0.00  0.00    +0.188 C 
BRANCH  16  17
ATOM     17  C   UNL     1       1.024   8.030   1.005  0.00  0.00    +0.381 C 
ATOM     18  O   UNL     1       2.168   8.802   1.186  0.00  0.00    -0.244 OA
ATOM     19  O   UNL     1       1.093   6.852   1.467  0.00  0.00    -0.244 OA
ENDBRANCH  16  17
ENDBRANCH  15  16
BRANCH  15  20
ATOM     20  C   UNL     1      -2.338   8.280   1.415  0.00  0.00    +0.188 C 
BRANCH  20  22
ATOM     21  O   UNL     1      -3.652   7.047   3.016  0.00  0.00    -0.244 OA
ATOM     22  C   UNL     1      -2.544   7.483   2.655  0.00  0.00    +0.381 C 
ATOM     23  O   UNL     1      -1.482   7.416   3.561  0.00  0.00    -0.244 OA
ENDBRANCH  20  22
ENDBRANCH  15  20
ENDBRANCH  14  15
ENDBRANCH  13  14
ENDBRANCH  12  13
BRANCH  12  24
ATOM     24  C   UNL     1      -1.505   6.644  -3.008  0.00  0.00    +0.188 C 
BRANCH  24  25
ATOM     25  C   UNL     1      -2.597   6.480  -3.985  0.00  0.00    +0.381 C 
ATOM     26  O   UNL     1      -3.091   5.178  -4.124  0.00  0.00    -0.244 OA
ATOM     27  O   UNL     1      -2.791   7.269  -4.956  0.00  0.00    -0.244 OA
ENDBRANCH  24  25
ENDBRANCH  12  24
ENDBRANCH  11  12
ENDBRANCH   1  11
BRANCH   1  28
ATOM     28  C   UNL     1       1.625   5.273  -4.333  0.00  0.00    +0.166 C 
BRANCH  28  29
ATOM     29  O   UNL     1       0.641   4.700  -5.098  0.00  0.00    -0.313 OA
BRANCH  29  30
ATOM     30  P   UNL     1       0.329   5.536  -6.514  0.00  0.00    +0.214 P 
ATOM     31  O   UNL     1      -1.283   5.235  -6.945  0.00  0.00    -0.437 OA
ATOM     32  O   UNL     1       0.493   7.007  -6.219  0.00  0.00    -0.517 OA
BRANCH  30  33
ATOM     33  O   UNL     1       1.373   5.155  -7.768  0.00  0.00    -0.317 OA
BRANCH  33  34
ATOM     34  C   UNL     1       2.702   5.396  -7.479  0.00  0.00    +0.122 C 
ATOM     35  C   UNL     1       3.647   4.463  -8.204  0.00  0.00    +0.031 C 
ATOM     36  C   UNL     1       3.569   4.621  -9.705  0.00  0.00    +0.011 C 
ATOM     37  C   UNL     1       3.688   6.051 -10.150  0.00  0.00    +0.038 C 
ATOM     38  C   UNL     1       2.770   6.972  -9.362  0.00  0.00    +0.011 C 
ATOM     39  C   UNL     1       3.074   6.815  -7.897  0.00  0.00    +0.031 C 
BRANCH  37  40
ATOM     40  C   UNL     1       3.221   6.110 -11.569  0.00  0.00    -0.019 A 
ATOM     41  C   UNL     1       1.859   6.124 -11.763  0.00  0.00    -0.004 A 
ATOM     42  C   UNL     1       1.269   5.755 -12.958  0.00  0.00    -0.000 A 
ATOM     43  C   UNL     1       2.037   5.041 -13.861  0.00  0.00    -0.000 A 
ATOM     44  C   UNL     1       3.398   5.050 -13.719  0.00  0.00    -0.000 A 
ATOM     45  C   UNL     1       3.976   5.434 -12.516  0.00  0.00    -0.004 A 
ENDBRANCH  37  40
BRANCH  37  46
ATOM     46  C   UNL     1       5.086   6.533 -10.147  0.00  0.00    -0.019 A 
ATOM     47  C   UNL     1       5.493   7.675 -10.822  0.00  0.00    -0.004 A 
ATOM     48  C   UNL     1       6.808   7.829 -11.244  0.00  0.00    -0.000 A 
ATOM     49  C   UNL     1       7.683   6.776 -11.038  0.00  0.00    -0.000 A 
ATOM     50  C   UNL     1       7.408   5.964  -9.948  0.00  0.00    -0.000 A 
ATOM     51  C   UNL     1       6.091   5.782  -9.551  0.00  0.00    -0.004 A 
ENDBRANCH  37  46
ENDBRANCH  33  34
ENDBRANCH  30  33
ENDBRANCH  29  30
ENDBRANCH  28  29
ENDBRANCH   1  28
TORSDOF 23
ENDMDL
MODEL 2
REMARK VINA RESULT:      -8.2      0.996      2.006
REMARK  Name = 
REMARK  23 active torsions:
REMARK  status: ('A' for Active; 'I' for Inactive)
REMARK    1  A    between atoms: C_2  and  C_4
REMARK    2  A    between atoms: C_4  and  N_5
REMARK    3  A    between atoms: N_5  and  C_6
REMARK    4  A    between atoms: N_5  and  C_48
REMARK    5  A    between atoms: C_6  and  C_7
REMARK    6  A    between atoms: C_7  and  N_8
REMARK    7  A    between atoms: N_8  and  C_9
REMARK    8  A    between atoms: N_8  and  C_13
REMARK    9  A    between atoms: C_9  and  C_10
REMARK   10  A    between atoms: C_13  and  C_14
REMARK   11  A    between atoms: C_14  and  C_15
REMARK   12  A    between atoms: C_14  and  N_39
REMARK   13  A    between atoms: C_15  and  O_16
REMARK   14  A    between atoms: O_16  and  P_17
REMARK   15  A    between atoms: P_17  and  O_20
REMARK   16  A    between atoms: O_20  and  C_21
REMARK   17  A    between atoms: C_24  and  C_25
REMARK   18  A    between atoms: C_24  and  C_31
REMARK   19  A    between atoms: N_39  and  C_40
REMARK   20  A    between atoms: N_39  and  C_44
REMARK   21  A    between atoms: C_40  and  C_41
REMARK   22  A    between atoms: C_44  and  C_45
REMARK   23  A    between atoms: C_48  and  C_49
REMARK                            x       y       z     vdW  Elec       q    Type
REMARK                         _______ _______ _______ _____ _____    ______ ____
ROOT
ATOM      1  C   UNL     1       1.155   6.192  -3.227  0.00  0.00    +0.105 C 
ENDROOT
BRANCH   1   2
ATOM      2  N   UNL     1       2.616   6.343  -2.593  0.00  0.00    -0.251 NA
BRANCH   2   3
ATOM      3  C   UNL     1       3.479   6.566  -3.721  0.00  0.00    +0.188 C 
BRANCH   3   4
ATOM      4  C   UNL     1       4.319   7.770  -3.604  0.00  0.00    +0.381 C 
ATOM      5  O   UNL     1       4.189   8.575  -2.491  0.00  0.00    -0.244 OA
ATOM      6  O   UNL     1       5.431   7.783  -4.189  0.00  0.00    -0.244 OA
ENDBRANCH   3   4
ENDBRANCH   2   3
BRANCH   2   7
ATOM      7  C   UNL     1       2.863   5.095  -1.922  0.00  0.00    +0.188 C 
BRANCH   7   8
ATOM      8  C   UNL     1       3.964   5.151  -0.941  0.00  0.00    +0.381 C 
ATOM      9  O   UNL     1       3.817   6.069   0.103  0.00  0.00    -0.244 OA
ATOM     10  O   UNL     1       4.641   4.123  -0.630  0.00  0.00    -0.244 OA
ENDBRANCH   7   8
ENDBRANCH   2   7
ENDBRANCH   1   2
BRANCH   1  11
ATOM     11  C   UNL     1       0.762   4.941  -2.191  0.00  0.00    +0.091 C 
BRANCH  11  12
ATOM     12  N   UNL     1      -0.477   5.405  -1.569  0.00  0.00    -0.261 NA
BRANCH  12  13
ATOM     13  C   UNL     1      -0.098   6.088  -0.333  0.00  0.00    +0.090 C 
BRANCH  13  14
ATOM     14  C   UNL     1      -1.173   7.006   0.168  0.00  0.00    +0.091 C 
BRANCH  14  15
ATOM     15  N   UNL     1      -0.754   7.896   1.212  0.00  0.00    -0.252 NA
BRANCH  15  16
ATOM     16  C   UNL     1      -1.706   8.070   2.270  0.00  0.00    +0.188 C 
BRANCH  16  17
ATOM     17  C   UNL     1      -2.443   9.352   2.205  0.00  0.00    +0.381 C 
ATOM     18  O   UNL     1      -1.845  10.566   1.882  0.00  0.00    -0.244 OA
ATOM     19  O   UNL     1      -3.688   9.410   2.436  0.00  0.00    -0.244 OA
ENDBRANCH  16  17
ENDBRANCH  15  16
BRANCH  15  20
ATOM     20  C   UNL     1       0.590   7.660   1.675  0.00  0.00    +0.188 C 
BRANCH  20  22
ATOM     21  O   UNL     1       1.502   9.805   2.289  0.00  0.00    -0.244 OA
ATOM     22  C   UNL     1       1.469   8.848   1.495  0.00  0.00    +0.381 C 
ATOM     23  O   UNL     1       2.118   8.988   0.266  0.00  0.00    -0.244 OA
ENDBRANCH  20  22
ENDBRANCH  15  20
ENDBRANCH  14  15
ENDBRANCH  13  14
ENDBRANCH  12  13
BRANCH  12  24
ATOM     24  C   UNL     1      -1.141   6.391  -2.381  0.00  0.00    +0.188 C 
BRANCH  24  25
ATOM     25  C   UNL     1      -2.369   5.894  -3.028  0.00  0.00    +0.381 C 
ATOM     26  O   UNL     1      -2.793   4.624  -2.621  0.00  0.00    -0.244 OA
ATOM     27  O   UNL     1      -2.776   6.294  -4.158  0.00  0.00    -0.244 OA
ENDBRANCH  24  25
ENDBRANCH  12  24
ENDBRANCH  11  12
ENDBRANCH   1  11
BRANCH   1  28
ATOM     28  C   UNL     1       1.693   5.134  -4.399  0.00  0.00    +0.166 C 
BRANCH  28  29
ATOM     29  O   UNL     1       0.567   4.707  -5.056  0.00  0.00    -0.313 OA
BRANCH  29  30
ATOM     30  P   UNL     1       0.214   5.605  -6.423  0.00  0.00    +0.214 P 
ATOM     31  O   UNL     1      -1.354   5.193  -6.919  0.00  0.00    -0.437 OA
ATOM     32  O   UNL     1       0.239   7.062  -6.030  0.00  0.00    -0.517 OA
BRANCH  30  33
ATOM     33  O   UNL     1       1.316   5.402  -7.668  0.00  0.00    -0.317 OA
BRANCH  33  34
ATOM     34  C   UNL     1       2.583   5.869  -7.373  0.00  0.00    +0.122 C 
ATOM     35  C   UNL     1       3.676   4.884  -7.721  0.00  0.00    +0.031 C 
ATOM     36  C   UNL     1       3.735   4.592  -9.202  0.00  0.00    +0.011 C 
ATOM     37  C   UNL     1       3.767   5.837 -10.044  0.00  0.00    +0.038 C 
ATOM     38  C   UNL     1       2.695   6.832  -9.631  0.00  0.00    +0.011 C 
ATOM     39  C   UNL     1       2.864   7.141  -8.168  0.00  0.00    +0.031 C 
BRANCH  37  40
ATOM     40  C   UNL     1       3.442   5.429 -11.445  0.00  0.00    -0.019 A 
ATOM     41  C   UNL     1       4.509   5.075 -12.240  0.00  0.00    -0.004 A 
ATOM     42  C   UNL     1       4.449   5.089 -13.622  0.00  0.00    -0.000 A 
ATOM     43  C   UNL     1       3.413   5.790 -14.214  0.00  0.00    -0.000 A 
ATOM     44  C   UNL     1       2.319   6.113 -13.456  0.00  0.00    -0.000 A 
ATOM     45  C   UNL     1       2.391   6.083 -12.070  0.00  0.00    -0.004 A 
ENDBRANCH  37  40
BRANCH  37  46
ATOM     46  C   UNL     1       5.109   6.459 -10.087  0.00  0.00    -0.019 A 
ATOM     47  C   UNL     1       5.376   7.629 -10.784  0.00  0.00    -0.004 A 
ATOM     48  C   UNL     1       6.655   7.911 -11.248  0.00  0.00    -0.000 A 
ATOM     49  C   UNL     1       7.639   6.955 -11.060  0.00  0.00    -0.000 A 
ATOM     50  C   UNL     1       7.481   6.133  -9.955  0.00  0.00    -0.000 A 
ATOM     51  C   UNL     1       6.202   5.822  -9.516  0.00  0.00    -0.004 A 
ENDBRANCH  37  46
ENDBRANCH  33  34
ENDBRANCH  30  33
ENDBRANCH  29  30
ENDBRANCH  28  29
ENDBRANCH   1  28
TORSDOF 23
ENDMDL
MODEL 3
REMARK VINA RESULT:      -8.1      2.065      5.461
REMARK  Name = 
REMARK  23 active torsions:
REMARK  status: ('A' for Active; 'I' for Inactive)
REMARK    1  A    between atoms: C_2  and  C_4
REMARK    2  A    between atoms: C_4  and  N_5
REMARK    3  A    between atoms: N_5  and  C_6
REMARK    4  A    between atoms: N_5  and  C_48
REMARK    5  A    between atoms: C_6  and  C_7
REMARK    6  A    between atoms: C_7  and  N_8
REMARK    7  A    between atoms: N_8  and  C_9
REMARK    8  A    between atoms: N_8  and  C_13
REMARK    9  A    between atoms: C_9  and  C_10
REMARK   10  A    between atoms: C_13  and  C_14
REMARK   11  A    between atoms: C_14  and  C_15
REMARK   12  A    between atoms: C_14  and  N_39
REMARK   13  A    between atoms: C_15  and  O_16
REMARK   14  A    between atoms: O_16  and  P_17
REMARK   15  A    between atoms: P_17  and  O_20
REMARK   16  A    between atoms: O_20  and  C_21
REMARK   17  A    between atoms: C_24  and  C_25
REMARK   18  A    between atoms: C_24  and  C_31
REMARK   19  A    between atoms: N_39  and  C_40
REMARK   20  A    between atoms: N_39  and  C_44
REMARK   21  A    between atoms: C_40  and  C_41
REMARK   22  A    between atoms: C_44  and  C_45
REMARK   23  A    between atoms: C_48  and  C_49
REMARK                            x       y       z     vdW  Elec       q    Type
REMARK                         _______ _______ _______ _____ _____    ______ ____
ROOT
ATOM      1  C   UNL     1       2.042   7.675  -0.765  0.00  0.00    +0.105 C 
ENDROOT
BRANCH   1   2
ATOM      2  N   UNL     1       2.662   7.717   0.709  0.00  0.00    -0.251 NA
BRANCH   2   3
ATOM      3  C   UNL     1       1.977   8.801   1.360  0.00  0.00    +0.188 C 
BRANCH   3   4
ATOM      4  C   UNL     1       1.314   8.421   2.619  0.00  0.00    +0.381 C 
ATOM      5  O   UNL     1       0.485   9.332   3.241  0.00  0.00    -0.244 OA
ATOM      6  O   UNL     1       1.086   7.205   2.832  0.00  0.00    -0.244 OA
ENDBRANCH   3   4
ENDBRANCH   2   3
BRANCH   2   7
ATOM      7  C   UNL     1       4.067   7.962   0.516  0.00  0.00    +0.188 C 
BRANCH   7   8
ATOM      8  C   UNL     1       4.874   7.811   1.742  0.00  0.00    +0.381 C 
ATOM      9  O   UNL     1       4.525   6.753   2.587  0.00  0.00    -0.244 OA
ATOM     10  O   UNL     1       6.107   8.111   1.777  0.00  0.00    -0.244 OA
ENDBRANCH   7   8
ENDBRANCH   2   7
ENDBRANCH   1   2
BRANCH   1  11
ATOM     11  C   UNL     1       1.285   6.214  -0.476  0.00  0.00    +0.091 C 
BRANCH  11  12
ATOM     12  N   UNL     1      -0.040   6.406  -1.064  0.00  0.00    -0.261 NA
BRANCH  12  13
ATOM     13  C   UNL     1      -0.237   5.321  -2.024  0.00  0.00    +0.090 C 
BRANCH  13  14
ATOM     14  C   UNL     1       0.046   5.745  -3.435  0.00  0.00    +0.091 C 
BRANCH  14  15
ATOM     15  N   UNL     1      -1.124   6.019  -4.217  0.00  0.00    -0.252 NA
BRANCH  15  16
ATOM     16  C   UNL     1      -2.089   6.866  -3.578  0.00  0.00    +0.188 C 
BRANCH  16  17
ATOM     17  C   UNL     1      -3.293   6.149  -3.104  0.00  0.00    +0.381 C 
ATOM     18  O   UNL     1      -4.296   6.747  -2.347  0.00  0.00    -0.244 OA
ATOM     19  O   UNL     1      -3.485   4.926  -3.378  0.00  0.00    -0.244 OA
ENDBRANCH  16  17
ENDBRANCH  15  16
BRANCH  15  20
ATOM     20  C   UNL     1      -0.842   6.390  -5.581  0.00  0.00    +0.188 C 
BRANCH  20  22
ATOM     21  O   UNL     1      -0.980   4.868  -7.445  0.00  0.00    -0.244 OA
ATOM     22  C   UNL     1      -1.556   5.529  -6.563  0.00  0.00    +0.381 C 
ATOM     23  O   UNL     1      -2.947   5.648  -6.630  0.00  0.00    -0.244 OA
ENDBRANCH  20  22
ENDBRANCH  15  20
ENDBRANCH  14  15
ENDBRANCH  13  14
ENDBRANCH  12  13
BRANCH  12  24
ATOM     24  C   UNL     1      -1.082   6.262  -0.080  0.00  0.00    +0.188 C 
BRANCH  24  25
ATOM     25  C   UNL     1      -1.535   7.543   0.493  0.00  0.00    +0.381 C 
ATOM     26  O   UNL     1      -2.607   7.455   1.389  0.00  0.00    -0.244 OA
ATOM     27  O   UNL     1      -1.348   8.663  -0.064  0.00  0.00    -0.244 OA
ENDBRANCH  24  25
ENDBRANCH  12  24
ENDBRANCH  11  12
ENDBRANCH   1  11
BRANCH   1  28
ATOM     28  C   UNL     1       3.392   6.922  -1.391  0.00  0.00    +0.166 C 
BRANCH  28  29
ATOM     29  O   UNL     1       3.229   6.943  -2.752  0.00  0.00    -0.313 OA
BRANCH  29  30
ATOM     30  P   UNL     1       4.525   6.293  -3.587  0.00  0.00    +0.214 P 
ATOM     31  O   UNL     1       5.888   7.240  -3.239  0.00  0.00    -0.437 OA
ATOM     32  O   UNL     1       4.750   4.896  -3.063  0.00  0.00    -0.517 OA
BRANCH  30  33
ATOM     33  O   UNL     1       4.275   6.176  -5.240  0.00  0.00    -0.317 OA
BRANCH  33  34
ATOM     34  C   UNL     1       2.942   6.108  -5.598  0.00  0.00    +0.122 C 
ATOM     35  C   UNL     1       2.501   7.262  -6.471  0.00  0.00    +0.031 C 
ATOM     36  C   UNL     1       3.229   7.291  -7.794  0.00  0.00    +0.011 C 
ATOM     37  C   UNL     1       3.207   5.966  -8.504  0.00  0.00    +0.038 C 
ATOM     38  C   UNL     1       3.597   4.820  -7.585  0.00  0.00    +0.011 C 
ATOM     39  C   UNL     1       2.683   4.830  -6.390  0.00  0.00    +0.031 C 
BRANCH  37  40
ATOM     40  C   UNL     1       4.252   6.021  -9.571  0.00  0.00    -0.019 A 
ATOM     41  C   UNL     1       5.472   5.466  -9.258  0.00  0.00    -0.004 A 
ATOM     42  C   UNL     1       6.638   5.796  -9.926  0.00  0.00    -0.000 A 
ATOM     43  C   UNL     1       6.636   6.946 -10.693  0.00  0.00    -0.000 A 
ATOM     44  C   UNL     1       5.435   7.492 -11.059  0.00  0.00    -0.000 A 
ATOM     45  C   UNL     1       4.271   7.143 -10.386  0.00  0.00    -0.004 A 
ENDBRANCH  37  40
BRANCH  37  46
ATOM     46  C   UNL     1       1.920   5.710  -9.188  0.00  0.00    -0.019 A 
ATOM     47  C   UNL     1       1.566   4.465  -9.688  0.00  0.00    -0.004 A 
ATOM     48  C   UNL     1       0.662   4.343 -10.736  0.00  0.00    -0.000 A 
ATOM     49  C   UNL     1       0.182   5.505 -11.318  0.00  0.00    -0.000 A 
ATOM     50  C   UNL     1       0.121   6.616 -10.490  0.00  0.00    -0.000 A 
ATOM     51  C   UNL     1       1.048   6.754  -9.467  0.00  0.00    -0.004 A 
ENDBRANCH  37  46
ENDBRANCH  33  34
ENDBRANCH  30  33
ENDBRANCH  29  30
ENDBRANCH  28  29
ENDBRANCH   1  28
TORSDOF 23
ENDMDL
MODEL 4
REMARK VINA RESULT:      -8.1      1.609      4.178
REMARK  Name = 
REMARK  23 active torsions:
REMARK  status: ('A' for Active; 'I' for Inactive)
REMARK    1  A    between atoms: C_2  and  C_4
REMARK    2  A    between atoms: C_4  and  N_5
REMARK    3  A    between atoms: N_5  and  C_6
REMARK    4  A    between atoms: N_5  and  C_48
REMARK    5  A    between atoms: C_6  and  C_7
REMARK    6  A    between atoms: C_7  and  N_8
REMARK    7  A    between atoms: N_8  and  C_9
REMARK    8  A    between atoms: N_8  and  C_13
REMARK    9  A    between atoms: C_9  and  C_10
REMARK   10  A    between atoms: C_13  and  C_14
REMARK   11  A    between atoms: C_14  and  C_15
REMARK   12  A    between atoms: C_14  and  N_39
REMARK   13  A    between atoms: C_15  and  O_16
REMARK   14  A    between atoms: O_16  and  P_17
REMARK   15  A    between atoms: P_17  and  O_20
REMARK   16  A    between atoms: O_20  and  C_21
REMARK   17  A    between atoms: C_24  and  C_25
REMARK   18  A    between atoms: C_24  and  C_31
REMARK   19  A    between atoms: N_39  and  C_40
REMARK   20  A    between atoms: N_39  and  C_44
REMARK   21  A    between atoms: C_40  and  C_41
REMARK   22  A    between atoms: C_44  and  C_45
REMARK   23  A    between atoms: C_48  and  C_49
REMARK                            x       y       z     vdW  Elec       q    Type
REMARK                         _______ _______ _______ _____ _____    ______ ____
ROOT
ATOM      1  C   UNL     1       0.808   5.110  -2.657  0.00  0.00    +0.105 C 
ENDROOT
BRANCH   1   2
ATOM      2  N   UNL     1      -0.454   5.716  -1.883  0.00  0.00    -0.251 NA
BRANCH   2   3
ATOM      3  C   UNL     1      -1.247   6.333  -2.911  0.00  0.00    +0.188 C 
BRANCH   3   4
ATOM      4  C   UNL     1      -2.670   5.957  -2.879  0.00  0.00    +0.381 C 
ATOM      5  O   UNL     1      -3.012   4.621  -2.927  0.00  0.00    -0.244 OA
ATOM      6  O   UNL     1      -3.482   6.732  -2.316  0.00  0.00    -0.244 OA
ENDBRANCH   3   4
ENDBRANCH   2   3
BRANCH   2   7
ATOM      7  C   UNL     1       0.099   6.656  -0.945  0.00  0.00    +0.188 C 
BRANCH   7   8
ATOM      8  C   UNL     1      -0.877   7.163   0.039  0.00  0.00    +0.381 C 
ATOM      9  O   UNL     1      -1.316   8.478  -0.144  0.00  0.00    -0.244 OA
ATOM     10  O   UNL     1      -1.738   6.405   0.584  0.00  0.00    -0.244 OA
ENDBRANCH   7   8
ENDBRANCH   2   7
ENDBRANCH   1   2
BRANCH   1  11
ATOM     11  C   UNL     1       1.804   6.347  -2.138  0.00  0.00    +0.091 C 
BRANCH  11  12
ATOM     12  N   UNL     1       3.068   6.060  -2.815  0.00  0.00    -0.261 NA
BRANCH  12  13
ATOM     13  C   UNL     1       4.060   6.984  -2.267  0.00  0.00    +0.090 C 
BRANCH  13  14
ATOM     14  C   UNL     1       3.502   8.360  -2.051  0.00  0.00    +0.091 C 
BRANCH  14  15
ATOM     15  N   UNL     1       3.564   8.817  -0.693  0.00  0.00    -0.252 NA
BRANCH  15  16
ATOM     16  C   UNL     1       4.540   8.154   0.120  0.00  0.00    +0.188 C 
BRANCH  16  17
ATOM     17  C   UNL     1       3.962   7.405   1.258  0.00  0.00    +0.381 C 
ATOM     18  O   UNL     1       4.717   6.920   2.322  0.00  0.00    -0.244 OA
ATOM     19  O   UNL     1       2.719   7.169   1.330  0.00  0.00    -0.244 OA
ENDBRANCH  16  17
ENDBRANCH  15  16
BRANCH  15  20
ATOM     20  C   UNL     1       3.577  10.252  -0.560  0.00  0.00    +0.188 C 
BRANCH  20  22
ATOM     21  O   UNL     1       3.202  11.402   1.525  0.00  0.00    -0.244 OA
ATOM     22  C   UNL     1       2.751  10.724   0.585  0.00  0.00    +0.381 C 
ATOM     23  O   UNL     1       1.466  10.191   0.714  0.00  0.00    -0.244 OA
ENDBRANCH  20  22
ENDBRANCH  15  20
ENDBRANCH  14  15
ENDBRANCH  13  14
ENDBRANCH  12  13
BRANCH  12  24
ATOM     24  C   UNL     1       3.545   4.736  -2.508  0.00  0.00    +0.188 C 
BRANCH  24  25
ATOM     25  C   UNL     1       3.653   4.468  -1.062  0.00  0.00    +0.381 C 
ATOM     26  O   UNL     1       4.956   4.422  -0.553  0.00  0.00    -0.244 OA
ATOM     27  O   UNL     1       2.759   3.872  -0.392  0.00  0.00    -0.244 OA
ENDBRANCH  24  25
ENDBRANCH  12  24
ENDBRANCH  11  12
ENDBRANCH   1  11
BRANCH   1  28
ATOM     28  C   UNL     1       0.429   5.923  -4.063  0.00  0.00    +0.166 C 
BRANCH  28  29
ATOM     29  O   UNL     1       0.795   5.084  -5.085  0.00  0.00    -0.313 OA
BRANCH  29  30
ATOM     30  P   UNL     1       0.280   5.606  -6.589  0.00  0.00    +0.214 P 
ATOM     31  O   UNL     1      -1.268   4.967  -6.854  0.00  0.00    -0.437 OA
ATOM     32  O   UNL     1       0.189   7.112  -6.543  0.00  0.00    -0.517 OA
BRANCH  30  33
ATOM     33  O   UNL     1       1.324   5.204  -7.837  0.00  0.00    -0.317 OA
BRANCH  33  34
ATOM     34  C   UNL     1       2.657   5.409  -7.537  0.00  0.00    +0.122 C 
ATOM     35  C   UNL     1       3.583   4.465  -8.270  0.00  0.00    +0.031 C 
ATOM     36  C   UNL     1       3.519   4.646  -9.768  0.00  0.00    +0.011 C 
ATOM     37  C   UNL     1       3.674   6.080 -10.192  0.00  0.00    +0.038 C 
ATOM     38  C   UNL     1       2.773   7.011  -9.396  0.00  0.00    +0.011 C 
ATOM     39  C   UNL     1       3.065   6.825  -7.932  0.00  0.00    +0.031 C 
BRANCH  37  40
ATOM     40  C   UNL     1       3.218   6.170 -11.613  0.00  0.00    -0.019 A 
ATOM     41  C   UNL     1       1.859   6.249 -11.813  0.00  0.00    -0.004 A 
ATOM     42  C   UNL     1       1.258   5.916 -13.014  0.00  0.00    -0.000 A 
ATOM     43  C   UNL     1       1.997   5.174 -13.918  0.00  0.00    -0.000 A 
ATOM     44  C   UNL     1       3.357   5.119 -13.769  0.00  0.00    -0.000 A 
ATOM     45  C   UNL     1       3.946   5.468 -12.561  0.00  0.00    -0.004 A 
ENDBRANCH  37  40
BRANCH  37  46
ATOM     46  C   UNL     1       5.084   6.529 -10.173  0.00  0.00    -0.019 A 
ATOM     47  C   UNL     1       5.517   7.683 -10.809  0.00  0.00    -0.004 A 
ATOM     48  C   UNL     1       6.836   7.819 -11.227  0.00  0.00    -0.000 A 
ATOM     49  C   UNL     1       7.686   6.740 -11.057  0.00  0.00    -0.000 A 
ATOM     50  C   UNL     1       7.392   5.898  -9.995  0.00  0.00    -0.000 A 
ATOM     51  C   UNL     1       6.071   5.734  -9.603  0.00  0.00    -0.004 A 
ENDBRANCH  37  46
ENDBRANCH  33  34
ENDBRANCH  30  33
ENDBRANCH  29  30
ENDBRANCH  28  29
ENDBRANCH   1  28
TORSDOF 23
ENDMDL
MODEL 5
REMARK VINA RESULT:      -8.0      2.068      5.083
REMARK  Name = 
REMARK  23 active torsions:
REMARK  status: ('A' for Active; 'I' for Inactive)
REMARK    1  A    between atoms: C_2  and  C_4
REMARK    2  A    between atoms: C_4  and  N_5
REMARK    3  A    between atoms: N_5  and  C_6
REMARK    4  A    between atoms: N_5  and  C_48
REMARK    5  A    between atoms: C_6  and  C_7
REMARK    6  A    between atoms: C_7  and  N_8
REMARK    7  A    between atoms: N_8  and  C_9
REMARK    8  A    between atoms: N_8  and  C_13
REMARK    9  A    between atoms: C_9  and  C_10
REMARK   10  A    between atoms: C_13  and  C_14
REMARK   11  A    between atoms: C_14  and  C_15
REMARK   12  A    between atoms: C_14  and  N_39
REMARK   13  A    between atoms: C_15  and  O_16
REMARK   14  A    between atoms: O_16  and  P_17
REMARK   15  A    between atoms: P_17  and  O_20
REMARK   16  A    between atoms: O_20  and  C_21
REMARK   17  A    between atoms: C_24  and  C_25
REMARK   18  A    between atoms: C_24  and  C_31
REMARK   19  A    between atoms: N_39  and  C_40
REMARK   20  A    between atoms: N_39  and  C_44
REMARK   21  A    between atoms: C_40  and  C_41
REMARK   22  A    between atoms: C_44  and  C_45
REMARK   23  A    between atoms: C_48  and  C_49
REMARK                            x       y       z     vdW  Elec       q    Type
REMARK                         _______ _______ _______ _____ _____    ______ ____
ROOT
ATOM      1  C   UNL     1       0.715   5.153  -2.866  0.00  0.00    +0.105 C 
ENDROOT
BRANCH   1   2
ATOM      2  N   UNL     1      -0.645   5.395  -3.672  0.00  0.00    -0.251 NA
BRANCH   2   3
ATOM      3  C   UNL     1      -0.222   5.819  -4.979  0.00  0.00    +0.188 C 
BRANCH   3   4
ATOM      4  C   UNL     1      -1.200   5.543  -6.045  0.00  0.00    +0.381 C 
ATOM      5  O   UNL     1      -2.341   6.314  -6.125  0.00  0.00    -0.244 OA
ATOM      6  O   UNL     1      -0.792   5.017  -7.110  0.00  0.00    -0.244 OA
ENDBRANCH   3   4
ENDBRANCH   2   3
BRANCH   2   7
ATOM      7  C   UNL     1      -1.338   6.418  -2.935  0.00  0.00    +0.188 C 
BRANCH   7   8
ATOM      8  C   UNL     1      -2.752   6.100  -2.656  0.00  0.00    +0.381 C 
ATOM      9  O   UNL     1      -3.129   4.762  -2.814  0.00  0.00    -0.244 OA
ATOM     10  O   UNL     1      -3.420   6.721  -1.773  0.00  0.00    -0.244 OA
ENDBRANCH   7   8
ENDBRANCH   2   7
ENDBRANCH   1   2
BRANCH   1  11
ATOM     11  C   UNL     1       0.581   6.614  -2.069  0.00  0.00    +0.091 C 
BRANCH  11  12
ATOM     12  N   UNL     1       1.668   6.558  -1.092  0.00  0.00    -0.261 NA
BRANCH  12  13
ATOM     13  C   UNL     1       1.076   6.843   0.215  0.00  0.00    +0.090 C 
BRANCH  13  14
ATOM     14  C   UNL     1       1.088   8.307   0.543  0.00  0.00    +0.091 C 
BRANCH  14  15
ATOM     15  N   UNL     1       2.365   8.810   0.958  0.00  0.00    -0.252 NA
BRANCH  15  16
ATOM     16  C   UNL     1       2.557  10.214   0.741  0.00  0.00    +0.188 C 
BRANCH  16  17
ATOM     17  C   UNL     1       3.365  10.529  -0.458  0.00  0.00    +0.381 C 
ATOM     18  O   UNL     1       3.762   9.574  -1.389  0.00  0.00    -0.244 OA
ATOM     19  O   UNL     1       3.740  11.713  -0.711  0.00  0.00    -0.244 OA
ENDBRANCH  16  17
ENDBRANCH  15  16
BRANCH  15  20
ATOM     20  C   UNL     1       2.770   8.366   2.268  0.00  0.00    +0.188 C 
BRANCH  20  22
ATOM     21  O   UNL     1       4.923   7.835   1.322  0.00  0.00    -0.244 OA
ATOM     22  C   UNL     1       4.113   7.724   2.260  0.00  0.00    +0.381 C 
ATOM     23  O   UNL     1       4.381   6.779   3.253  0.00  0.00    -0.244 OA
ENDBRANCH  20  22
ENDBRANCH  15  20
ENDBRANCH  14  15
ENDBRANCH  13  14
ENDBRANCH  12  13
BRANCH  12  24
ATOM     24  C   UNL     1       2.226   5.234  -0.995  0.00  0.00    +0.188 C 
BRANCH  24  25
ATOM     25  C   UNL     1       3.698   5.219  -0.894  0.00  0.00    +0.381 C 
ATOM     26  O   UNL     1       4.353   6.304  -1.486  0.00  0.00    -0.244 OA
ATOM     27  O   UNL     1       4.376   4.163  -0.730  0.00  0.00    -0.244 OA
ENDBRANCH  24  25
ENDBRANCH  12  24
ENDBRANCH  11  12
ENDBRANCH   1  11
BRANCH   1  28
ATOM     28  C   UNL     1       1.640   5.829  -4.079  0.00  0.00    +0.166 C 
BRANCH  28  29
ATOM     29  O   UNL     1       2.633   4.920  -4.337  0.00  0.00    -0.313 OA
BRANCH  29  30
ATOM     30  P   UNL     1       3.937   5.576  -5.156  0.00  0.00    +0.214 P 
ATOM     31  O   UNL     1       3.943   7.246  -4.862  0.00  0.00    -0.437 OA
ATOM     32  O   UNL     1       5.191   4.970  -4.575  0.00  0.00    -0.517 OA
BRANCH  30  33
ATOM     33  O   UNL     1       3.936   5.250  -6.800  0.00  0.00    -0.317 OA
BRANCH  33  34
ATOM     34  C   UNL     1       2.688   5.337  -7.384  0.00  0.00    +0.122 C 
ATOM     35  C   UNL     1       2.385   6.713  -7.937  0.00  0.00    +0.031 C 
ATOM     36  C   UNL     1       3.332   7.105  -9.047  0.00  0.00    +0.011 C 
ATOM     37  C   UNL     1       3.456   6.052 -10.111  0.00  0.00    +0.038 C 
ATOM     38  C   UNL     1       3.700   4.671  -9.521  0.00  0.00    +0.011 C 
ATOM     39  C   UNL     1       2.592   4.361  -8.552  0.00  0.00    +0.031 C 
BRANCH  37  40
ATOM     40  C   UNL     1       4.670   6.382 -10.918  0.00  0.00    -0.019 A 
ATOM     41  C   UNL     1       5.631   5.400 -11.004  0.00  0.00    -0.004 A 
ATOM     42  C   UNL     1       6.949   5.669 -11.326  0.00  0.00    -0.000 A 
ATOM     43  C   UNL     1       7.380   6.980 -11.232  0.00  0.00    -0.000 A 
ATOM     44  C   UNL     1       6.444   7.979 -11.193  0.00  0.00    -0.000 A 
ATOM     45  C   UNL     1       5.123   7.692 -10.879  0.00  0.00    -0.004 A 
ENDBRANCH  37  40
BRANCH  37  46
ATOM     46  C   UNL     1       2.313   6.054 -11.050  0.00  0.00    -0.019 A 
ATOM     47  C   UNL     1       2.427   5.673 -12.379  0.00  0.00    -0.004 A 
ATOM     48  C   UNL     1       1.546   6.152 -13.341  0.00  0.00    -0.000 A 
ATOM     49  C   UNL     1       0.598   7.081 -12.947  0.00  0.00    -0.000 A 
ATOM     50  C   UNL     1       0.186   7.003 -11.625  0.00  0.00    -0.000 A 
ATOM     51  C   UNL     1       1.079   6.560 -10.660  0.00  0.00    -0.004 A 
ENDBRANCH  37  46
ENDBRANCH  33  34
ENDBRANCH  30  33
ENDBRANCH  29  30
ENDBRANCH  28  29
ENDBRANCH   1  28
TORSDOF 23
ENDMDL
MODEL 6
REMARK VINA RESULT:      -8.0      1.251      3.183
REMARK  Name = 
REMARK  23 active torsions:
REMARK  status: ('A' for Active; 'I' for Inactive)
REMARK    1  A    between atoms: C_2  and  C_4
REMARK    2  A    between atoms: C_4  and  N_5
REMARK    3  A    between atoms: N_5  and  C_6
REMARK    4  A    between atoms: N_5  and  C_48
REMARK    5  A    between atoms: C_6  and  C_7
REMARK    6  A    between atoms: C_7  and  N_8
REMARK    7  A    between atoms: N_8  and  C_9
REMARK    8  A    between atoms: N_8  and  C_13
REMARK    9  A    between atoms: C_9  and  C_10
REMARK   10  A    between atoms: C_13  and  C_14
REMARK   11  A    between atoms: C_14  and  C_15
REMARK   12  A    between atoms: C_14  and  N_39
REMARK   13  A    between atoms: C_15  and  O_16
REMARK   14  A    between atoms: O_16  and  P_17
REMARK   15  A    between atoms: P_17  and  O_20
REMARK   16  A    between atoms: O_20  and  C_21
REMARK   17  A    between atoms: C_24  and  C_25
REMARK   18  A    between atoms: C_24  and  C_31
REMARK   19  A    between atoms: N_39  and  C_40
REMARK   20  A    between atoms: N_39  and  C_44
REMARK   21  A    between atoms: C_40  and  C_41
REMARK   22  A    between atoms: C_44  and  C_45
REMARK   23  A    between atoms: C_48  and  C_49
REMARK                            x       y       z     vdW  Elec       q    Type
REMARK                         _______ _______ _______ _____ _____    ______ ____
ROOT
ATOM      1  C   UNL     1       1.063   6.176  -3.087  0.00  0.00    +0.105 C 
ENDROOT
BRANCH   1   2
ATOM      2  N   UNL     1       2.579   6.291  -2.589  0.00  0.00    -0.251 NA
BRANCH   2   3
ATOM      3  C   UNL     1       3.367   5.997  -3.755  0.00  0.00    +0.188 C 
BRANCH   3   4
ATOM      4  C   UNL     1       4.056   7.167  -4.325  0.00  0.00    +0.381 C 
ATOM      5  O   UNL     1       3.734   7.581  -5.601  0.00  0.00    -0.244 OA
ATOM      6  O   UNL     1       4.502   8.040  -3.539  0.00  0.00    -0.244 OA
ENDBRANCH   3   4
ENDBRANCH   2   3
BRANCH   2   7
ATOM      7  C   UNL     1       2.706   5.304  -1.550  0.00  0.00    +0.188 C 
BRANCH   7   8
ATOM      8  C   UNL     1       3.992   5.360  -0.827  0.00  0.00    +0.381 C 
ATOM      9  O   UNL     1       4.054   6.242   0.258  0.00  0.00    -0.244 OA
ATOM     10  O   UNL     1       4.740   4.342  -0.705  0.00  0.00    -0.244 OA
ENDBRANCH   7   8
ENDBRANCH   2   7
ENDBRANCH   1   2
BRANCH   1  11
ATOM     11  C   UNL     1       0.700   5.029  -1.929  0.00  0.00    +0.091 C 
BRANCH  11  12
ATOM     12  N   UNL     1      -0.532   5.544  -1.330  0.00  0.00    -0.261 NA
BRANCH  12  13
ATOM     13  C   UNL     1      -0.131   6.412  -0.223  0.00  0.00    +0.090 C 
BRANCH  13  14
ATOM     14  C   UNL     1      -1.251   7.291   0.250  0.00  0.00    +0.091 C 
BRANCH  14  15
ATOM     15  N   UNL     1      -0.920   8.119   1.373  0.00  0.00    -0.252 NA
BRANCH  15  16
ATOM     16  C   UNL     1      -1.897   8.126   2.423  0.00  0.00    +0.188 C 
BRANCH  16  17
ATOM     17  C   UNL     1      -2.636   9.402   2.543  0.00  0.00    +0.381 C 
ATOM     18  O   UNL     1      -2.029  10.651   2.459  0.00  0.00    -0.244 OA
ATOM     19  O   UNL     1      -3.891   9.425   2.722  0.00  0.00    -0.244 OA
ENDBRANCH  16  17
ENDBRANCH  15  16
BRANCH  15  20
ATOM     20  C   UNL     1       0.433   7.953   1.843  0.00  0.00    +0.188 C 
BRANCH  20  22
ATOM     21  O   UNL     1       1.840   9.609   2.887  0.00  0.00    -0.244 OA
ATOM     22  C   UNL     1       1.175   9.242   1.901  0.00  0.00    +0.381 C 
ATOM     23  O   UNL     1       0.929  10.173   0.889  0.00  0.00    -0.244 OA
ENDBRANCH  20  22
ENDBRANCH  15  20
ENDBRANCH  14  15
ENDBRANCH  13  14
ENDBRANCH  12  13
BRANCH  12  24
ATOM     24  C   UNL     1      -1.259   6.381  -2.249  0.00  0.00    +0.188 C 
BRANCH  24  25
ATOM     25  C   UNL     1      -2.552   5.811  -2.670  0.00  0.00    +0.381 C 
ATOM     26  O   UNL     1      -3.669   6.625  -2.450  0.00  0.00    -0.244 OA
ATOM     27  O   UNL     1      -2.766   4.569  -2.783  0.00  0.00    -0.244 OA
ENDBRANCH  24  25
ENDBRANCH  12  24
ENDBRANCH  11  12
ENDBRANCH   1  11
BRANCH   1  28
ATOM     28  C   UNL     1       1.444   5.007  -4.214  0.00  0.00    +0.166 C 
BRANCH  28  29
ATOM     29  O   UNL     1       0.312   4.838  -4.969  0.00  0.00    -0.313 OA
BRANCH  29  30
ATOM     30  P   UNL     1       0.294   5.774  -6.357  0.00  0.00    +0.214 P 
ATOM     31  O   UNL     1      -1.209   5.548  -7.110  0.00  0.00    -0.437 OA
ATOM     32  O   UNL     1       0.420   7.217  -5.935  0.00  0.00    -0.517 OA
BRANCH  30  33
ATOM     33  O   UNL     1       1.555   5.445  -7.409  0.00  0.00    -0.317 OA
BRANCH  33  34
ATOM     34  C   UNL     1       1.147   5.184  -8.703  0.00  0.00    +0.122 C 
ATOM     35  C   UNL     1       1.169   6.407  -9.592  0.00  0.00    +0.031 C 
ATOM     36  C   UNL     1       2.562   6.969  -9.760  0.00  0.00    +0.011 C 
ATOM     37  C   UNL     1       3.570   5.927 -10.157  0.00  0.00    +0.038 C 
ATOM     38  C   UNL     1       3.482   4.686  -9.282  0.00  0.00    +0.011 C 
ATOM     39  C   UNL     1       2.075   4.156  -9.342  0.00  0.00    +0.031 C 
BRANCH  37  40
ATOM     40  C   UNL     1       4.925   6.512  -9.917  0.00  0.00    -0.019 A 
ATOM     41  C   UNL     1       5.351   7.455 -10.825  0.00  0.00    -0.004 A 
ATOM     42  C   UNL     1       6.686   7.771 -11.005  0.00  0.00    -0.000 A 
ATOM     43  C   UNL     1       7.628   6.889 -10.506  0.00  0.00    -0.000 A 
ATOM     44  C   UNL     1       7.240   5.973  -9.566  0.00  0.00    -0.000 A 
ATOM     45  C   UNL     1       5.895   5.675  -9.389  0.00  0.00    -0.004 A 
ENDBRANCH  37  40
BRANCH  37  46
ATOM     46  C   UNL     1       3.505   5.592 -11.596  0.00  0.00    -0.019 A 
ATOM     47  C   UNL     1       4.535   4.952 -12.270  0.00  0.00    -0.004 A 
ATOM     48  C   UNL     1       4.700   5.106 -13.641  0.00  0.00    -0.000 A 
ATOM     49  C   UNL     1       3.851   5.977 -14.303  0.00  0.00    -0.000 A 
ATOM     50  C   UNL     1       2.591   6.135 -13.747  0.00  0.00    -0.000 A 
ATOM     51  C   UNL     1       2.435   6.018 -12.373  0.00  0.00    -0.004 A 
ENDBRANCH  37  46
ENDBRANCH  33  34
ENDBRANCH  30  33
ENDBRANCH  29  30
ENDBRANCH  28  29
ENDBRANCH   1  28
TORSDOF 23
ENDMDL
MODEL 7
REMARK VINA RESULT:      -7.9      5.823     11.898
REMARK  Name = 
REMARK  23 active torsions:
REMARK  status: ('A' for Active; 'I' for Inactive)
REMARK    1  A    between atoms: C_2  and  C_4
REMARK    2  A    between atoms: C_4  and  N_5
REMARK    3  A    between atoms: N_5  and  C_6
REMARK    4  A    between atoms: N_5  and  C_48
REMARK    5  A    between atoms: C_6  and  C_7
REMARK    6  A    between atoms: C_7  and  N_8
REMARK    7  A    between atoms: N_8  and  C_9
REMARK    8  A    between atoms: N_8  and  C_13
REMARK    9  A    between atoms: C_9  and  C_10
REMARK   10  A    between atoms: C_13  and  C_14
REMARK   11  A    between atoms: C_14  and  C_15
REMARK   12  A    between atoms: C_14  and  N_39
REMARK   13  A    between atoms: C_15  and  O_16
REMARK   14  A    between atoms: O_16  and  P_17
REMARK   15  A    between atoms: P_17  and  O_20
REMARK   16  A    between atoms: O_20  and  C_21
REMARK   17  A    between atoms: C_24  and  C_25
REMARK   18  A    between atoms: C_24  and  C_31
REMARK   19  A    between atoms: N_39  and  C_40
REMARK   20  A    between atoms: N_39  and  C_44
REMARK   21  A    between atoms: C_40  and  C_41
REMARK   22  A    between atoms: C_44  and  C_45
REMARK   23  A    between atoms: C_48  and  C_49
REMARK                            x       y       z     vdW  Elec       q    Type
REMARK                         _______ _______ _______ _____ _____    ______ ____
ROOT
ATOM      1  C   UNL     1       3.982   5.210 -13.618  0.00  0.00    +0.105 C 
ENDROOT
BRANCH   1   2
ATOM      2  N   UNL     1       5.153   6.182 -14.111  0.00  0.00    -0.251 NA
BRANCH   2   3
ATOM      3  C   UNL     1       4.686   6.704 -15.366  0.00  0.00    +0.188 C 
BRANCH   3   4
ATOM      4  C   UNL     1       5.735   7.345 -16.177  0.00  0.00    +0.381 C 
ATOM      5  O   UNL     1       5.788   7.087 -17.532  0.00  0.00    -0.244 OA
ATOM      6  O   UNL     1       6.207   8.442 -15.788  0.00  0.00    -0.244 OA
ENDBRANCH   3   4
ENDBRANCH   2   3
BRANCH   2   7
ATOM      7  C   UNL     1       6.310   5.337 -14.239  0.00  0.00    +0.188 C 
BRANCH   7   8
ATOM      8  C   UNL     1       7.330   5.560 -13.195  0.00  0.00    +0.381 C 
ATOM      9  O   UNL     1       7.314   6.811 -12.570  0.00  0.00    -0.244 OA
ATOM     10  O   UNL     1       7.749   4.619 -12.452  0.00  0.00    -0.244 OA
ENDBRANCH   7   8
ENDBRANCH   2   7
ENDBRANCH   1   2
BRANCH   1  11
ATOM     11  C   UNL     1       2.814   6.111 -14.401  0.00  0.00    +0.091 C 
BRANCH  11  12
ATOM     12  N   UNL     1       1.808   6.324 -13.360  0.00  0.00    -0.261 NA
BRANCH  12  13
ATOM     13  C   UNL     1       0.957   7.423 -13.814  0.00  0.00    +0.090 C 
BRANCH  13  14
ATOM     14  C   UNL     1       1.206   7.785 -15.248  0.00  0.00    +0.091 C 
BRANCH  14  15
ATOM     15  N   UNL     1       0.499   8.949 -15.697  0.00  0.00    -0.252 NA
BRANCH  15  16
ATOM     16  C   UNL     1       1.224  10.179 -15.568  0.00  0.00    +0.188 C 
BRANCH  16  17
ATOM     17  C   UNL     1       2.171  10.433 -16.677  0.00  0.00    +0.381 C 
ATOM     18  O   UNL     1       1.851  11.186 -17.803  0.00  0.00    -0.244 OA
ATOM     19  O   UNL     1       3.353   9.976 -16.654  0.00  0.00    -0.244 OA
ENDBRANCH  16  17
ENDBRANCH  15  16
BRANCH  15  20
ATOM     20  C   UNL     1      -0.143   8.786 -16.977  0.00  0.00    +0.188 C 
BRANCH  20  22
ATOM     21  O   UNL     1       0.839   7.082 -18.370  0.00  0.00    -0.244 OA
ATOM     22  C   UNL     1      -0.001   7.404 -17.511  0.00  0.00    +0.381 C 
ATOM     23  O   UNL     1      -1.004   6.485 -17.193  0.00  0.00    -0.244 OA
ENDBRANCH  20  22
ENDBRANCH  15  20
ENDBRANCH  14  15
ENDBRANCH  13  14
ENDBRANCH  12  13
BRANCH  12  24
ATOM     24  C   UNL     1       0.942   5.182 -13.218  0.00  0.00    +0.188 C 
BRANCH  24  25
ATOM     25  C   UNL     1       0.357   5.048 -11.871  0.00  0.00    +0.381 C 
ATOM     26  O   UNL     1       0.013   6.250 -11.242  0.00  0.00    -0.244 OA
ATOM     27  O   UNL     1       0.550   4.047 -11.121  0.00  0.00    -0.244 OA
ENDBRANCH  24  25
ENDBRANCH  12  24
ENDBRANCH  11  12
ENDBRANCH   1  11
BRANCH   1  28
ATOM     28  C   UNL     1       3.775   6.060 -12.198  0.00  0.00    +0.166 C 
BRANCH  28  29
ATOM     29  O   UNL     1       4.211   5.226 -11.201  0.00  0.00    -0.313 OA
BRANCH  29  30
ATOM     30  P   UNL     1       4.832   6.040  -9.878  0.00  0.00    +0.214 P 
ATOM     31  O   UNL     1       6.423   5.503  -9.642  0.00  0.00    -0.437 OA
ATOM     32  O   UNL     1       4.854   7.511 -10.217  0.00  0.00    -0.517 OA
BRANCH  30  33
ATOM     33  O   UNL     1       3.920   5.860  -8.484  0.00  0.00    -0.317 OA
BRANCH  33  34
ATOM     34  C   UNL     1       2.558   5.815  -8.712  0.00  0.00    +0.122 C 
ATOM     35  C   UNL     1       1.859   4.726  -7.926  0.00  0.00    +0.031 C 
ATOM     36  C   UNL     1       1.969   4.936  -6.434  0.00  0.00    +0.011 C 
ATOM     37  C   UNL     1       1.576   6.323  -6.007  0.00  0.00    +0.038 C 
ATOM     38  C   UNL     1       2.248   7.392  -6.854  0.00  0.00    +0.011 C 
ATOM     39  C   UNL     1       1.919   7.137  -8.300  0.00  0.00    +0.031 C 
BRANCH  37  40
ATOM     40  C   UNL     1       2.082   6.514  -4.614  0.00  0.00    -0.019 A 
ATOM     41  C   UNL     1       3.282   7.177  -4.487  0.00  0.00    -0.004 A 
ATOM     42  C   UNL     1       4.082   7.068  -3.363  0.00  0.00    -0.000 A 
ATOM     43  C   UNL     1       3.835   6.017  -2.498  0.00  0.00    -0.000 A 
ATOM     44  C   UNL     1       2.629   5.372  -2.571  0.00  0.00    -0.000 A 
ATOM     45  C   UNL     1       1.832   5.501  -3.702  0.00  0.00    -0.004 A 
ENDBRANCH  37  40
BRANCH  37  46
ATOM     46  C   UNL     1       0.109   6.507  -5.951  0.00  0.00    -0.019 A 
ATOM     47  C   UNL     1      -0.498   7.515  -5.216  0.00  0.00    -0.004 A 
ATOM     48  C   UNL     1      -1.800   7.379  -4.752  0.00  0.00    -0.000 A 
ATOM     49  C   UNL     1      -2.448   6.176  -4.979  0.00  0.00    -0.000 A 
ATOM     50  C   UNL     1      -2.053   5.479  -6.110  0.00  0.00    -0.000 A 
ATOM     51  C   UNL     1      -0.741   5.587  -6.552  0.00  0.00    -0.004 A 
ENDBRANCH  37  46
ENDBRANCH  33  34
ENDBRANCH  30  33
ENDBRANCH  29  30
ENDBRANCH  28  29
ENDBRANCH   1  28
TORSDOF 23
ENDMDL
MODEL 8
REMARK VINA RESULT:      -7.9      1.284      2.154
REMARK  Name = 
REMARK  23 active torsions:
REMARK  status: ('A' for Active; 'I' for Inactive)
REMARK    1  A    between atoms: C_2  and  C_4
REMARK    2  A    between atoms: C_4  and  N_5
REMARK    3  A    between atoms: N_5  and  C_6
REMARK    4  A    between atoms: N_5  and  C_48
REMARK    5  A    between atoms: C_6  and  C_7
REMARK    6  A    between atoms: C_7  and  N_8
REMARK    7  A    between atoms: N_8  and  C_9
REMARK    8  A    between atoms: N_8  and  C_13
REMARK    9  A    between atoms: C_9  and  C_10
REMARK   10  A    between atoms: C_13  and  C_14
REMARK   11  A    between atoms: C_14  and  C_15
REMARK   12  A    between atoms: C_14  and  N_39
REMARK   13  A    between atoms: C_15  and  O_16
REMARK   14  A    between atoms: O_16  and  P_17
REMARK   15  A    between atoms: P_17  and  O_20
REMARK   16  A    between atoms: O_20  and  C_21
REMARK   17  A    between atoms: C_24  and  C_25
REMARK   18  A    between atoms: C_24  and  C_31
REMARK   19  A    between atoms: N_39  and  C_40
REMARK   20  A    between atoms: N_39  and  C_44
REMARK   21  A    between atoms: C_40  and  C_41
REMARK   22  A    between atoms: C_44  and  C_45
REMARK   23  A    between atoms: C_48  and  C_49
REMARK                            x       y       z     vdW  Elec       q    Type
REMARK                         _______ _______ _______ _____ _____    ______ ____
ROOT
ATOM      1  C   UNL     1       1.226   6.442  -2.708  0.00  0.00    +0.105 C 
ENDROOT
BRANCH   1   2
ATOM      2  N   UNL     1       2.803   6.338  -2.463  0.00  0.00    -0.251 NA
BRANCH   2   3
ATOM      3  C   UNL     1       3.068   7.275  -1.404  0.00  0.00    +0.188 C 
BRANCH   3   4
ATOM      4  C   UNL     1       3.926   6.742  -0.333  0.00  0.00    +0.381 C 
ATOM      5  O   UNL     1       4.178   5.386  -0.286  0.00  0.00    -0.244 OA
ATOM      6  O   UNL     1       4.790   7.499   0.175  0.00  0.00    -0.244 OA
ENDBRANCH   3   4
ENDBRANCH   2   3
BRANCH   2   7
ATOM      7  C   UNL     1       3.401   6.710  -3.717  0.00  0.00    +0.188 C 
BRANCH   7   8
ATOM      8  C   UNL     1       4.836   6.378  -3.817  0.00  0.00    +0.381 C 
ATOM      9  O   UNL     1       5.146   5.035  -4.053  0.00  0.00    -0.244 OA
ATOM     10  O   UNL     1       5.683   7.193  -4.296  0.00  0.00    -0.244 OA
ENDBRANCH   7   8
ENDBRANCH   2   7
ENDBRANCH   1   2
BRANCH   1  11
ATOM     11  C   UNL     1       0.911   5.187  -1.653  0.00  0.00    +0.091 C 
BRANCH  11  12
ATOM     12  N   UNL     1      -0.248   5.668  -0.902  0.00  0.00    -0.261 NA
BRANCH  12  13
ATOM     13  C   UNL     1       0.272   6.457   0.214  0.00  0.00    +0.090 C 
BRANCH  13  14
ATOM     14  C   UNL     1      -0.618   7.614   0.562  0.00  0.00    +0.091 C 
BRANCH  14  15
ATOM     15  N   UNL     1      -0.130   8.438   1.629  0.00  0.00    -0.252 NA
BRANCH  15  16
ATOM     16  C   UNL     1       0.357   9.723   1.221  0.00  0.00    +0.188 C 
BRANCH  16  17
ATOM     17  C   UNL     1       1.832   9.812   1.159  0.00  0.00    +0.381 C 
ATOM     18  O   UNL     1       2.679   9.170   2.058  0.00  0.00    -0.244 OA
ATOM     19  O   UNL     1       2.417  10.484   0.257  0.00  0.00    -0.244 OA
ENDBRANCH  16  17
ENDBRANCH  15  16
BRANCH  15  20
ATOM     20  C   UNL     1      -1.001   8.486   2.776  0.00  0.00    +0.188 C 
BRANCH  20  22
ATOM     21  O   UNL     1      -3.053   9.554   2.099  0.00  0.00    -0.244 OA
ATOM     22  C   UNL     1      -2.440   8.513   2.395  0.00  0.00    +0.381 C 
ATOM     23  O   UNL     1      -3.180   7.345   2.596  0.00  0.00    -0.244 OA
ENDBRANCH  20  22
ENDBRANCH  15  20
ENDBRANCH  14  15
ENDBRANCH  13  14
ENDBRANCH  12  13
BRANCH  12  24
ATOM     24  C   UNL     1      -1.050   6.570  -1.687  0.00  0.00    +0.188 C 
BRANCH  24  25
ATOM     25  C   UNL     1      -2.126   5.900  -2.441  0.00  0.00    +0.381 C 
ATOM     26  O   UNL     1      -2.808   6.704  -3.361  0.00  0.00    -0.244 OA
ATOM     27  O   UNL     1      -2.731   4.868  -2.028  0.00  0.00    -0.244 OA
ENDBRANCH  24  25
ENDBRANCH  12  24
ENDBRANCH  11  12
ENDBRANCH   1  11
BRANCH   1  28
ATOM     28  C   UNL     1       1.287   5.410  -4.016  0.00  0.00    +0.166 C 
BRANCH  28  29
ATOM     29  O   UNL     1       0.512   5.994  -4.985  0.00  0.00    -0.313 OA
BRANCH  29  30
ATOM     30  P   UNL     1       0.450   5.113  -6.407  0.00  0.00    +0.214 P 
ATOM     31  O   UNL     1       1.092   3.577  -6.089  0.00  0.00    -0.437 OA
ATOM     32  O   UNL     1      -1.003   4.969  -6.790  0.00  0.00    -0.517 OA
BRANCH  30  33
ATOM     33  O   UNL     1       1.237   5.846  -7.691  0.00  0.00    -0.317 OA
BRANCH  33  34
ATOM     34  C   UNL     1       2.525   6.253  -7.396  0.00  0.00    +0.122 C 
ATOM     35  C   UNL     1       3.560   5.181  -7.655  0.00  0.00    +0.031 C 
ATOM     36  C   UNL     1       3.630   4.791  -9.112  0.00  0.00    +0.011 C 
ATOM     37  C   UNL     1       3.758   5.974 -10.030  0.00  0.00    +0.038 C 
ATOM     38  C   UNL     1       2.742   7.059  -9.707  0.00  0.00    +0.011 C 
ATOM     39  C   UNL     1       2.901   7.450  -8.263  0.00  0.00    +0.031 C 
BRANCH  37  40
ATOM     40  C   UNL     1       3.435   5.498 -11.410  0.00  0.00    -0.019 A 
ATOM     41  C   UNL     1       4.501   5.085 -12.177  0.00  0.00    -0.004 A 
ATOM     42  C   UNL     1       4.451   5.026 -13.558  0.00  0.00    -0.000 A 
ATOM     43  C   UNL     1       3.431   5.711 -14.194  0.00  0.00    -0.000 A 
ATOM     44  C   UNL     1       2.337   6.091 -13.463  0.00  0.00    -0.000 A 
ATOM     45  C   UNL     1       2.399   6.134 -12.077  0.00  0.00    -0.004 A 
ENDBRANCH  37  40
BRANCH  37  46
ATOM     46  C   UNL     1       5.136   6.509 -10.081  0.00  0.00    -0.019 A 
ATOM     47  C   UNL     1       5.484   7.632 -10.818  0.00  0.00    -0.004 A 
ATOM     48  C   UNL     1       6.782   7.815 -11.277  0.00  0.00    -0.000 A 
ATOM     49  C   UNL     1       7.702   6.807 -11.042  0.00  0.00    -0.000 A 
ATOM     50  C   UNL     1       7.482   6.038  -9.909  0.00  0.00    -0.000 A 
ATOM     51  C   UNL     1       6.182   5.826  -9.473  0.00  0.00    -0.004 A 
ENDBRANCH  37  46
ENDBRANCH  33  34
ENDBRANCH  30  33
ENDBRANCH  29  30
ENDBRANCH  28  29
ENDBRANCH   1  28
TORSDOF 23
ENDMDL
MODEL 9
REMARK VINA RESULT:      -7.7      1.316      3.358
REMARK  Name = 
REMARK  23 active torsions:
REMARK  status: ('A' for Active; 'I' for Inactive)
REMARK    1  A    between atoms: C_2  and  C_4
REMARK    2  A    between atoms: C_4  and  N_5
REMARK    3  A    between atoms: N_5  and  C_6
REMARK    4  A    between atoms: N_5  and  C_48
REMARK    5  A    between atoms: C_6  and  C_7
REMARK    6  A    between atoms: C_7  and  N_8
REMARK    7  A    between atoms: N_8  and  C_9
REMARK    8  A    between atoms: N_8  and  C_13
REMARK    9  A    between atoms: C_9  and  C_10
REMARK   10  A    between atoms: C_13  and  C_14
REMARK   11  A    between atoms: C_14  and  C_15
REMARK   12  A    between atoms: C_14  and  N_39
REMARK   13  A    between atoms: C_15  and  O_16
REMARK   14  A    between atoms: O_16  and  P_17
REMARK   15  A    between atoms: P_17  and  O_20
REMARK   16  A    between atoms: O_20  and  C_21
REMARK   17  A    between atoms: C_24  and  C_25
REMARK   18  A    between atoms: C_24  and  C_31
REMARK   19  A    between atoms: N_39  and  C_40
REMARK   20  A    between atoms: N_39  and  C_44
REMARK   21  A    between atoms: C_40  and  C_41
REMARK   22  A    between atoms: C_44  and  C_45
REMARK   23  A    between atoms: C_48  and  C_49
REMARK                            x       y       z     vdW  Elec       q    Type
REMARK                         _______ _______ _______ _____ _____    ______ ____
ROOT
ATOM      1  C   UNL     1       1.277   6.183  -3.210  0.00  0.00    +0.105 C 
ENDROOT
BRANCH   1   2
ATOM      2  N   UNL     1       2.823   6.298  -2.814  0.00  0.00    -0.251 NA
BRANCH   2   3
ATOM      3  C   UNL     1       2.840   7.163  -1.666  0.00  0.00    +0.188 C 
BRANCH   3   4
ATOM      4  C   UNL     1       3.893   6.841  -0.688  0.00  0.00    +0.381 C 
ATOM      5  O   UNL     1       4.981   7.681  -0.572  0.00  0.00    -0.244 OA
ATOM      6  O   UNL     1       3.582   6.169   0.327  0.00  0.00    -0.244 OA
ENDBRANCH   3   4
ENDBRANCH   2   3
BRANCH   2   7
ATOM      7  C   UNL     1       3.463   6.869  -3.969  0.00  0.00    +0.188 C 
BRANCH   7   8
ATOM      8  C   UNL     1       4.842   6.391  -4.187  0.00  0.00    +0.381 C 
ATOM      9  O   UNL     1       5.867   7.259  -3.797  0.00  0.00    -0.244 OA
ATOM     10  O   UNL     1       5.149   5.162  -4.101  0.00  0.00    -0.244 OA
ENDBRANCH   7   8
ENDBRANCH   2   7
ENDBRANCH   1   2
BRANCH   1  11
ATOM     11  C   UNL     1       0.994   5.029  -2.037  0.00  0.00    +0.091 C 
BRANCH  11  12
ATOM     12  N   UNL     1      -0.326   5.395  -1.525  0.00  0.00    -0.261 NA
BRANCH  12  13
ATOM     13  C   UNL     1      -0.105   6.159  -0.298  0.00  0.00    +0.090 C 
BRANCH  13  14
ATOM     14  C   UNL     1      -1.094   7.276  -0.132  0.00  0.00    +0.091 C 
BRANCH  14  15
ATOM     15  N   UNL     1      -1.121   7.853   1.181  0.00  0.00    -0.252 NA
BRANCH  15  16
ATOM     16  C   UNL     1      -1.329   6.914   2.245  0.00  0.00    +0.188 C 
BRANCH  16  17
ATOM     17  C   UNL     1      -2.728   6.851   2.721  0.00  0.00    +0.381 C 
ATOM     18  O   UNL     1      -3.574   7.955   2.769  0.00  0.00    -0.244 OA
ATOM     19  O   UNL     1      -3.245   5.761   3.110  0.00  0.00    -0.244 OA
ENDBRANCH  16  17
ENDBRANCH  15  16
BRANCH  15  20
ATOM     20  C   UNL     1      -0.051   8.785   1.432  0.00  0.00    +0.188 C 
BRANCH  20  22
ATOM     21  O   UNL     1      -1.611  10.572   1.856  0.00  0.00    -0.244 OA
ATOM     22  C   UNL     1      -0.523  10.023   2.108  0.00  0.00    +0.381 C 
ATOM     23  O   UNL     1       0.397  10.715   2.900  0.00  0.00    -0.244 OA
ENDBRANCH  20  22
ENDBRANCH  15  20
ENDBRANCH  14  15
ENDBRANCH  13  14
ENDBRANCH  12  13
BRANCH  12  24
ATOM     24  C   UNL     1      -1.017   6.281  -2.426  0.00  0.00    +0.188 C 
BRANCH  24  25
ATOM     25  C   UNL     1      -2.243   5.699  -3.003  0.00  0.00    +0.381 C 
ATOM     26  O   UNL     1      -3.103   6.607  -3.631  0.00  0.00    -0.244 OA
ATOM     27  O   UNL     1      -2.754   4.611  -2.607  0.00  0.00    -0.244 OA
ENDBRANCH  24  25
ENDBRANCH  12  24
ENDBRANCH  11  12
ENDBRANCH   1  11
BRANCH   1  28
ATOM     28  C   UNL     1       1.584   5.021  -4.366  0.00  0.00    +0.166 C 
BRANCH  28  29
ATOM     29  O   UNL     1       0.400   4.841  -5.033  0.00  0.00    -0.313 OA
BRANCH  29  30
ATOM     30  P   UNL     1       0.325   5.665  -6.488  0.00  0.00    +0.214 P 
ATOM     31  O   UNL     1      -1.228   5.439  -7.129  0.00  0.00    -0.437 OA
ATOM     32  O   UNL     1       0.527   7.131  -6.193  0.00  0.00    -0.517 OA
BRANCH  30  33
ATOM     33  O   UNL     1       1.506   5.207  -7.585  0.00  0.00    -0.317 OA
BRANCH  33  34
ATOM     34  C   UNL     1       1.070   5.183  -8.896  0.00  0.00    +0.122 C 
ATOM     35  C   UNL     1       1.124   6.539  -9.565  0.00  0.00    +0.031 C 
ATOM     36  C   UNL     1       2.534   7.074  -9.663  0.00  0.00    +0.011 C 
ATOM     37  C   UNL     1       3.497   6.082 -10.252  0.00  0.00    +0.038 C 
ATOM     38  C   UNL     1       3.377   4.713  -9.599  0.00  0.00    +0.011 C 
ATOM     39  C   UNL     1       1.951   4.248  -9.719  0.00  0.00    +0.031 C 
BRANCH  37  40
ATOM     40  C   UNL     1       4.876   6.572  -9.944  0.00  0.00    -0.019 A 
ATOM     41  C   UNL     1       5.405   7.492 -10.820  0.00  0.00    -0.004 A 
ATOM     42  C   UNL     1       6.765   7.719 -10.936  0.00  0.00    -0.000 A 
ATOM     43  C   UNL     1       7.622   6.771 -10.408  0.00  0.00    -0.000 A 
ATOM     44  C   UNL     1       7.131   5.873  -9.498  0.00  0.00    -0.000 A 
ATOM     45  C   UNL     1       5.763   5.665  -9.385  0.00  0.00    -0.004 A 
ENDBRANCH  37  40
BRANCH  37  46
ATOM     46  C   UNL     1       3.399   5.999 -11.726  0.00  0.00    -0.019 A 
ATOM     47  C   UNL     1       2.322   6.502 -12.440  0.00  0.00    -0.004 A 
ATOM     48  C   UNL     1       1.984   5.987 -13.686  0.00  0.00    -0.000 A 
ATOM     49  C   UNL     1       2.707   4.906 -14.159  0.00  0.00    -0.000 A 
ATOM     50  C   UNL     1       4.019   4.814 -13.718  0.00  0.00    -0.000 A 
ATOM     51  C   UNL     1       4.347   5.296 -12.458  0.00  0.00    -0.004 A 
ENDBRANCH  37  46
ENDBRANCH  33  34
ENDBRANCH  30  33
ENDBRANCH  29  30
ENDBRANCH  28  29
ENDBRANCH   1  28
TORSDOF 23
ENDMDL
