MODEL 1
REMARK VINA RESULT:      -7.5      0.000      0.000
REMARK  Name = 
REMARK  1 active torsions:
REMARK  status: ('A' for Active; 'I' for Inactive)
REMARK    1  A    between atoms: C_5  and  C_6
REMARK                            x       y       z     vdW  Elec       q    Type
REMARK                         _______ _______ _______ _____ _____    ______ ____
ROOT
ATOM      1  C   UNL     1       1.331   4.737  -5.252  0.00  0.00    +0.062 C 
ATOM      2  C   UNL     1       1.596   5.376  -6.737  0.00  0.00    -0.017 A 
ATOM      3  C   UNL     1       0.554   5.434  -7.646  0.00  0.00    -0.010 A 
ATOM      4  C   UNL     1       0.896   5.656  -8.974  0.00  0.00    +0.096 A 
ATOM      5  C   UNL     1       2.183   5.327  -9.380  0.00  0.00    +0.244 A 
ATOM      6  C   UNL     1       3.067   4.677  -8.529  0.00  0.00    +0.235 A 
ATOM      7  O   UNL     1       3.881   3.668  -9.050  0.00  0.00    -0.283 OA
ATOM      8  O   UNL     1       2.581   5.587 -10.675  0.00  0.00    -0.282 OA
ATOM      9 CL   UNL     1      -0.185   6.585 -10.007  0.00  0.00    -0.079 Cl
ATOM     10  C   UNL     1      -0.904   5.260  -7.566  0.00  0.00    +0.046 C 
ATOM     11  C   UNL     1      -1.532   5.913  -6.371  0.00  0.00    +0.093 C 
ATOM     12  N   UNL     1      -1.012   5.330  -5.160  0.00  0.00    -0.217 NA
ATOM     13  C   UNL     1       2.769   4.767  -7.176  0.00  0.00    +0.041 A 
ATOM     14  C   UNL     1       0.256   5.953  -4.861  0.00  0.00    +0.097 C 
ENDROOT
BRANCH   1  19
ATOM     15  O   UNL     1       5.143   7.383  -2.021  0.00  0.00    -0.287 OA
ATOM     16  C   UNL     1       4.413   6.834  -3.077  0.00  0.00    +0.196 A 
ATOM     17  C   UNL     1       4.665   5.558  -3.564  0.00  0.00    +0.042 A 
ATOM     18  C   UNL     1       3.612   4.816  -4.094  0.00  0.00    -0.001 A 
ATOM     19  C   UNL     1       2.585   5.537  -4.582  0.00  0.00    -0.017 A 
ATOM     20  C   UNL     1       2.318   6.841  -4.259  0.00  0.00    -0.001 A 
ATOM     21  C   UNL     1       3.333   7.528  -3.602  0.00  0.00    +0.042 A 
ENDBRANCH   1  19
TORSDOF 1
ENDMDL
MODEL 2
REMARK VINA RESULT:      -7.5      3.169      3.966
REMARK  Name = 
REMARK  1 active torsions:
REMARK  status: ('A' for Active; 'I' for Inactive)
REMARK    1  A    between atoms: C_5  and  C_6
REMARK                            x       y       z     vdW  Elec       q    Type
REMARK                         _______ _______ _______ _____ _____    ______ ____
ROOT
ATOM      1  C   UNL     1       0.400   4.951  -1.528  0.00  0.00    +0.062 C 
ATOM      2  C   UNL     1       0.191   5.629  -3.005  0.00  0.00    -0.017 A 
ATOM      3  C   UNL     1      -1.092   5.834  -3.482  0.00  0.00    -0.010 A 
ATOM      4  C   UNL     1      -1.221   6.083  -4.843  0.00  0.00    +0.096 A 
ATOM      5  C   UNL     1      -0.206   5.644  -5.684  0.00  0.00    +0.244 A 
ATOM      6  C   UNL     1       0.844   4.869  -5.209  0.00  0.00    +0.235 A 
ATOM      7  O   UNL     1       1.303   3.808  -5.994  0.00  0.00    -0.283 OA
ATOM      8  O   UNL     1      -0.266   5.922  -7.033  0.00  0.00    -0.282 OA
ATOM      9 CL   UNL     1      -2.487   7.163  -5.415  0.00  0.00    -0.079 Cl
ATOM     10  C   UNL     1      -2.437   5.806  -2.887  0.00  0.00    +0.046 C 
ATOM     11  C   UNL     1      -2.524   6.462  -1.542  0.00  0.00    +0.093 C 
ATOM     12  N   UNL     1      -1.677   5.774  -0.601  0.00  0.00    -0.217 NA
ATOM     13  C   UNL     1       1.057   4.926  -3.839  0.00  0.00    +0.041 A 
ATOM     14  C   UNL     1      -0.325   6.251  -0.770  0.00  0.00    +0.097 C 
ENDROOT
BRANCH   1  19
ATOM     15  O   UNL     1       5.335   7.146   0.145  0.00  0.00    -0.287 OA
ATOM     16  C   UNL     1       4.247   6.667  -0.586  0.00  0.00    +0.196 A 
ATOM     17  C   UNL     1       4.171   5.349  -1.021  0.00  0.00    +0.042 A 
ATOM     18  C   UNL     1       2.921   4.747  -1.139  0.00  0.00    -0.001 A 
ATOM     19  C   UNL     1       1.891   5.588  -1.345  0.00  0.00    -0.017 A 
ATOM     20  C   UNL     1       1.904   6.929  -1.064  0.00  0.00    -0.001 A 
ATOM     21  C   UNL     1       3.151   7.488  -0.810  0.00  0.00    +0.042 A 
ENDBRANCH   1  19
TORSDOF 1
ENDMDL
MODEL 3
REMARK VINA RESULT:      -7.3      3.777      5.969
REMARK  Name = 
REMARK  1 active torsions:
REMARK  status: ('A' for Active; 'I' for Inactive)
REMARK    1  A    between atoms: C_5  and  C_6
REMARK                            x       y       z     vdW  Elec       q    Type
REMARK                         _______ _______ _______ _____ _____    ______ ____
ROOT
ATOM      1  C   UNL     1       0.706   5.335  -4.715  0.00  0.00    +0.062 C 
ATOM      2  C   UNL     1       1.783   6.241  -3.874  0.00  0.00    -0.017 A 
ATOM      3  C   UNL     1       3.004   6.548  -4.448  0.00  0.00    -0.010 A 
ATOM      4  C   UNL     1       3.998   7.009  -3.593  0.00  0.00    +0.096 A 
ATOM      5  C   UNL     1       3.901   6.684  -2.246  0.00  0.00    +0.244 A 
ATOM      6  C   UNL     1       2.919   5.821  -1.778  0.00  0.00    +0.235 A 
ATOM      7  O   UNL     1       3.260   4.886  -0.797  0.00  0.00    -0.283 OA
ATOM      8  O   UNL     1       4.833   7.172  -1.354  0.00  0.00    -0.282 OA
ATOM      9 CL   UNL     1       5.163   8.194  -4.172  0.00  0.00    -0.079 Cl
ATOM     10  C   UNL     1       3.567   6.456  -5.805  0.00  0.00    +0.046 C 
ATOM     11  C   UNL     1       2.625   6.895  -6.886  0.00  0.00    +0.093 C 
ATOM     12  N   UNL     1       1.459   6.050  -6.899  0.00  0.00    -0.217 NA
ATOM     13  C   UNL     1       1.820   5.657  -2.611  0.00  0.00    +0.041 A 
ATOM     14  C   UNL     1       0.544   6.516  -5.884  0.00  0.00    +0.097 C 
ENDROOT
BRANCH   1  19
ATOM     15  O   UNL     1      -4.296   6.790  -2.515  0.00  0.00    -0.287 OA
ATOM     16  C   UNL     1      -2.939   6.642  -2.808  0.00  0.00    +0.196 A 
ATOM     17  C   UNL     1      -2.152   5.676  -2.194  0.00  0.00    +0.042 A 
ATOM     18  C   UNL     1      -1.085   5.124  -2.899  0.00  0.00    -0.001 A 
ATOM     19  C   UNL     1      -0.569   5.901  -3.869  0.00  0.00    -0.017 A 
ATOM     20  C   UNL     1      -1.216   6.956  -4.457  0.00  0.00    -0.001 A 
ATOM     21  C   UNL     1      -2.363   7.406  -3.813  0.00  0.00    +0.042 A 
ENDBRANCH   1  19
TORSDOF 1
ENDMDL
MODEL 4
REMARK VINA RESULT:      -7.2      2.482      5.572
REMARK  Name = 
REMARK  1 active torsions:
REMARK  status: ('A' for Active; 'I' for Inactive)
REMARK    1  A    between atoms: C_5  and  C_6
REMARK                            x       y       z     vdW  Elec       q    Type
REMARK                         _______ _______ _______ _____ _____    ______ ____
ROOT
ATOM      1  C   UNL     1       0.724   7.142  -5.879  0.00  0.00    +0.062 C 
ATOM      2  C   UNL     1       1.515   6.400  -4.650  0.00  0.00    -0.017 A 
ATOM      3  C   UNL     1       0.837   6.127  -3.475  0.00  0.00    -0.010 A 
ATOM      4  C   UNL     1       1.613   5.822  -2.363  0.00  0.00    +0.096 A 
ATOM      5  C   UNL     1       2.929   6.267  -2.345  0.00  0.00    +0.244 A 
ATOM      6  C   UNL     1       3.426   7.100  -3.338  0.00  0.00    +0.235 A 
ATOM      7  O   UNL     1       4.277   8.146  -2.974  0.00  0.00    -0.283 OA
ATOM      8  O   UNL     1       3.750   5.934  -1.288  0.00  0.00    -0.282 OA
ATOM      9 CL   UNL     1       1.013   4.672  -1.173  0.00  0.00    -0.079 Cl
ATOM     10  C   UNL     1      -0.577   6.127  -3.067  0.00  0.00    +0.046 C 
ATOM     11  C   UNL     1      -1.503   5.521  -4.079  0.00  0.00    +0.093 C 
ATOM     12  N   UNL     1      -1.460   6.276  -5.304  0.00  0.00    -0.217 NA
ATOM     13  C   UNL     1       2.710   7.104  -4.528  0.00  0.00    +0.041 A 
ATOM     14  C   UNL     1      -0.312   5.846  -6.067  0.00  0.00    +0.097 C 
ENDROOT
BRANCH   1  19
ATOM     15  O   UNL     1       3.430   5.128 -10.417  0.00  0.00    -0.287 OA
ATOM     16  C   UNL     1       3.074   5.580  -9.145  0.00  0.00    +0.196 A 
ATOM     17  C   UNL     1       3.229   6.906  -8.761  0.00  0.00    +0.042 A 
ATOM     18  C   UNL     1       2.337   7.452  -7.841  0.00  0.00    -0.001 A 
ATOM     19  C   UNL     1       1.753   6.571  -7.009  0.00  0.00    -0.017 A 
ATOM     20  C   UNL     1       1.655   5.224  -7.236  0.00  0.00    -0.001 A 
ATOM     21  C   UNL     1       2.450   4.716  -8.256  0.00  0.00    +0.042 A 
ENDBRANCH   1  19
TORSDOF 1
ENDMDL
MODEL 5
REMARK VINA RESULT:      -7.2      3.535      6.296
REMARK  Name = 
REMARK  1 active torsions:
REMARK  status: ('A' for Active; 'I' for Inactive)
REMARK    1  A    between atoms: C_5  and  C_6
REMARK                            x       y       z     vdW  Elec       q    Type
REMARK                         _______ _______ _______ _____ _____    ______ ____
ROOT
ATOM      1  C   UNL     1       2.318   4.597  -5.248  0.00  0.00    +0.062 C 
ATOM      2  C   UNL     1       1.671   5.591  -4.117  0.00  0.00    -0.017 A 
ATOM      3  C   UNL     1       2.236   5.639  -2.854  0.00  0.00    -0.010 A 
ATOM      4  C   UNL     1       1.469   6.215  -1.849  0.00  0.00    +0.096 A 
ATOM      5  C   UNL     1       0.091   6.248  -2.018  0.00  0.00    +0.244 A 
ATOM      6  C   UNL     1      -0.523   5.615  -3.092  0.00  0.00    +0.235 A 
ATOM      7  O   UNL     1      -1.721   4.932  -2.872  0.00  0.00    -0.283 OA
ATOM      8  O   UNL     1      -0.702   6.863  -1.072  0.00  0.00    -0.282 OA
ATOM      9 CL   UNL     1       2.259   7.114  -0.559  0.00  0.00    -0.079 Cl
ATOM     10  C   UNL     1       3.495   5.164  -2.261  0.00  0.00    +0.046 C 
ATOM     11  C   UNL     1       4.700   5.395  -3.123  0.00  0.00    +0.093 C 
ATOM     12  N   UNL     1       4.568   4.675  -4.363  0.00  0.00    -0.217 NA
ATOM     13  C   UNL     1       0.302   5.342  -4.175  0.00  0.00    +0.041 A 
ATOM     14  C   UNL     1       3.750   5.456  -5.261  0.00  0.00    +0.097 C 
ENDROOT
BRANCH   1  19
ATOM     15  O   UNL     1       1.043   7.225 -10.090  0.00  0.00    -0.287 OA
ATOM     16  C   UNL     1       1.085   6.759  -8.775  0.00  0.00    +0.196 A 
ATOM     17  C   UNL     1       0.359   5.648  -8.362  0.00  0.00    +0.042 A 
ATOM     18  C   UNL     1       0.869   4.848  -7.342  0.00  0.00    -0.001 A 
ATOM     19  C   UNL     1       1.708   5.463  -6.489  0.00  0.00    -0.017 A 
ATOM     20  C   UNL     1       2.381   6.627  -6.753  0.00  0.00    -0.001 A 
ATOM     21  C   UNL     1       1.949   7.346  -7.862  0.00  0.00    +0.042 A 
ENDBRANCH   1  19
TORSDOF 1
ENDMDL
MODEL 6
REMARK VINA RESULT:      -7.1      4.586      7.090
REMARK  Name = 
REMARK  1 active torsions:
REMARK  status: ('A' for Active; 'I' for Inactive)
REMARK    1  A    between atoms: C_5  and  C_6
REMARK                            x       y       z     vdW  Elec       q    Type
REMARK                         _______ _______ _______ _____ _____    ______ ____
ROOT
ATOM      1  C   UNL     1       4.127   6.847 -12.592  0.00  0.00    +0.062 C 
ATOM      2  C   UNL     1       3.412   6.007 -11.380  0.00  0.00    -0.017 A 
ATOM      3  C   UNL     1       2.105   5.577 -11.532  0.00  0.00    -0.010 A 
ATOM      4  C   UNL     1       1.438   5.184 -10.378  0.00  0.00    +0.096 A 
ATOM      5  C   UNL     1       1.892   5.679  -9.162  0.00  0.00    +0.244 A 
ATOM      6  C   UNL     1       2.896   6.637  -9.099  0.00  0.00    +0.235 A 
ATOM      7  O   UNL     1       2.778   7.671  -8.168  0.00  0.00    -0.283 OA
ATOM      8  O   UNL     1       1.297   5.266  -7.989  0.00  0.00    -0.282 OA
ATOM      9 CL   UNL     1       0.254   3.885 -10.458  0.00  0.00    -0.079 Cl
ATOM     10  C   UNL     1       1.172   5.473 -12.665  0.00  0.00    +0.046 C 
ATOM     11  C   UNL     1       1.796   4.943 -13.921  0.00  0.00    +0.093 C 
ATOM     12  N   UNL     1       2.838   5.831 -14.368  0.00  0.00    -0.217 NA
ATOM     13  C   UNL     1       3.693   6.743 -10.231  0.00  0.00    +0.041 A 
ATOM     14  C   UNL     1       4.040   5.537 -13.623  0.00  0.00    +0.097 C 
ENDROOT
BRANCH   1  19
ATOM     15  O   UNL     1       9.638   5.812 -11.861  0.00  0.00    -0.287 OA
ATOM     16  C   UNL     1       8.252   5.911 -11.730  0.00  0.00    +0.196 A 
ATOM     17  C   UNL     1       7.645   6.988 -11.095  0.00  0.00    +0.042 A 
ATOM     18  C   UNL     1       6.383   7.399 -11.517  0.00  0.00    -0.001 A 
ATOM     19  C   UNL     1       5.632   6.449 -12.103  0.00  0.00    -0.017 A 
ATOM     20  C   UNL     1       6.118   5.292 -12.653  0.00  0.00    -0.001 A 
ATOM     21  C   UNL     1       7.432   4.968 -12.333  0.00  0.00    +0.042 A 
ENDBRANCH   1  19
TORSDOF 1
ENDMDL
MODEL 7
REMARK VINA RESULT:      -7.1      2.856      4.412
REMARK  Name = 
REMARK  1 active torsions:
REMARK  status: ('A' for Active; 'I' for Inactive)
REMARK    1  A    between atoms: C_5  and  C_6
REMARK                            x       y       z     vdW  Elec       q    Type
REMARK                         _______ _______ _______ _____ _____    ______ ____
ROOT
ATOM      1  C   UNL     1       1.192   7.189  -5.655  0.00  0.00    +0.062 C 
ATOM      2  C   UNL     1       1.326   5.980  -6.754  0.00  0.00    -0.017 A 
ATOM      3  C   UNL     1       2.541   5.765  -7.380  0.00  0.00    -0.010 A 
ATOM      4  C   UNL     1       2.523   4.980  -8.526  0.00  0.00    +0.096 A 
ATOM      5  C   UNL     1       1.328   4.879  -9.228  0.00  0.00    +0.244 A 
ATOM      6  C   UNL     1       0.216   5.635  -8.878  0.00  0.00    +0.235 A 
ATOM      7  O   UNL     1      -0.565   6.189  -9.895  0.00  0.00    -0.283 OA
ATOM      8  O   UNL     1       1.251   4.063 -10.337  0.00  0.00    -0.282 OA
ATOM      9 CL   UNL     1       3.893   3.938  -8.890  0.00  0.00    -0.079 Cl
ATOM     10  C   UNL     1       3.921   6.223  -7.155  0.00  0.00    +0.046 C 
ATOM     11  C   UNL     1       4.337   6.220  -5.714  0.00  0.00    +0.093 C 
ATOM     12  N   UNL     1       3.508   7.124  -4.958  0.00  0.00    -0.217 NA
ATOM     13  C   UNL     1       0.220   6.140  -7.585  0.00  0.00    +0.041 A 
ATOM     14  C   UNL     1       2.277   6.445  -4.626  0.00  0.00    +0.097 C 
ENDROOT
BRANCH   1  19
ATOM     15  O   UNL     1      -3.027   5.477  -2.301  0.00  0.00    -0.287 OA
ATOM     16  C   UNL     1      -2.093   5.633  -3.328  0.00  0.00    +0.196 A 
ATOM     17  C   UNL     1      -2.354   6.405  -4.453  0.00  0.00    +0.042 A 
ATOM     18  C   UNL     1      -1.299   7.059  -5.085  0.00  0.00    -0.001 A 
ATOM     19  C   UNL     1      -0.087   6.498  -4.915  0.00  0.00    -0.017 A 
ATOM     20  C   UNL     1       0.241   5.629  -3.908  0.00  0.00    -0.001 A 
ATOM     21  C   UNL     1      -0.823   5.091  -3.193  0.00  0.00    +0.042 A 
ENDBRANCH   1  19
TORSDOF 1
ENDMDL
MODEL 8
REMARK VINA RESULT:      -7.0      3.284      4.589
REMARK  Name = 
REMARK  1 active torsions:
REMARK  status: ('A' for Active; 'I' for Inactive)
REMARK    1  A    between atoms: C_5  and  C_6
REMARK                            x       y       z     vdW  Elec       q    Type
REMARK                         _______ _______ _______ _____ _____    ______ ____
ROOT
ATOM      1  C   UNL     1      -0.758   5.215  -3.618  0.00  0.00    +0.062 C 
ATOM      2  C   UNL     1       0.391   6.211  -4.230  0.00  0.00    -0.017 A 
ATOM      3  C   UNL     1       0.630   6.213  -5.593  0.00  0.00    -0.010 A 
ATOM      4  C   UNL     1       1.816   6.798  -6.018  0.00  0.00    +0.096 A 
ATOM      5  C   UNL     1       2.862   6.888  -5.108  0.00  0.00    +0.244 A 
ATOM      6  C   UNL     1       2.781   6.300  -3.852  0.00  0.00    +0.235 A 
ATOM      7  O   UNL     1       3.910   5.658  -3.338  0.00  0.00    -0.283 OA
ATOM      8  O   UNL     1       4.035   7.515  -5.471  0.00  0.00    -0.282 OA
ATOM      9 CL   UNL     1       1.866   7.642  -7.562  0.00  0.00    -0.079 Cl
ATOM     10  C   UNL     1      -0.071   5.679  -6.771  0.00  0.00    +0.046 C 
ATOM     11  C   UNL     1      -1.556   5.880  -6.741  0.00  0.00    +0.093 C 
ATOM     12  N   UNL     1      -2.126   5.189  -5.613  0.00  0.00    -0.217 NA
ATOM     13  C   UNL     1       1.497   6.016  -3.407  0.00  0.00    +0.041 A 
ATOM     14  C   UNL     1      -1.969   6.019  -4.441  0.00  0.00    +0.097 C 
ENDROOT
BRANCH   1  19
ATOM     15  O   UNL     1      -2.423   7.881   1.083  0.00  0.00    -0.287 OA
ATOM     16  C   UNL     1      -1.741   7.443  -0.055  0.00  0.00    +0.196 A 
ATOM     17  C   UNL     1      -0.769   6.452   0.002  0.00  0.00    +0.042 A 
ATOM     18  C   UNL     1      -0.594   5.613  -1.096  0.00  0.00    -0.001 A 
ATOM     19  C   UNL     1      -0.968   6.127  -2.282  0.00  0.00    -0.017 A 
ATOM     20  C   UNL     1      -1.826   7.182  -2.445  0.00  0.00    -0.001 A 
ATOM     21  C   UNL     1      -2.102   7.928  -1.304  0.00  0.00    +0.042 A 
ENDBRANCH   1  19
TORSDOF 1
ENDMDL
MODEL 9
REMARK VINA RESULT:      -6.9      2.876      4.014
REMARK  Name = 
REMARK  1 active torsions:
REMARK  status: ('A' for Active; 'I' for Inactive)
REMARK    1  A    between atoms: C_5  and  C_6
REMARK                            x       y       z     vdW  Elec       q    Type
REMARK                         _______ _______ _______ _____ _____    ______ ____
ROOT
ATOM      1  C   UNL     1       3.051   7.057  -5.343  0.00  0.00    +0.062 C 
ATOM      2  C   UNL     1       1.571   6.361  -5.451  0.00  0.00    -0.017 A 
ATOM      3  C   UNL     1       1.090   5.983  -6.692  0.00  0.00    -0.010 A 
ATOM      4  C   UNL     1      -0.272   5.724  -6.781  0.00  0.00    +0.096 A 
ATOM      5  C   UNL     1      -1.109   6.300  -5.833  0.00  0.00    +0.244 A 
ATOM      6  C   UNL     1      -0.628   7.211  -4.901  0.00  0.00    +0.235 A 
ATOM      7  O   UNL     1      -1.409   8.327  -4.589  0.00  0.00    -0.283 OA
ATOM      8  O   UNL     1      -2.459   6.020  -5.849  0.00  0.00    -0.282 OA
ATOM      9 CL   UNL     1      -0.852   4.481  -7.884  0.00  0.00    -0.079 Cl
ATOM     10  C   UNL     1       1.679   5.825  -8.031  0.00  0.00    +0.046 C 
ATOM     11  C   UNL     1       3.022   5.159  -8.031  0.00  0.00    +0.093 C 
ATOM     12  N   UNL     1       3.968   5.954  -7.290  0.00  0.00    -0.217 NA
ATOM     13  C   UNL     1       0.743   7.180  -4.687  0.00  0.00    +0.041 A 
ATOM     14  C   UNL     1       3.803   5.668  -5.884  0.00  0.00    +0.097 C 
ENDROOT
BRANCH   1  19
ATOM     15  O   UNL     1       4.727   5.471  -0.180  0.00  0.00    -0.287 OA
ATOM     16  C   UNL     1       3.996   5.846  -1.309  0.00  0.00    +0.196 A 
ATOM     17  C   UNL     1       3.664   7.170  -1.568  0.00  0.00    +0.042 A 
ATOM     18  C   UNL     1       3.548   7.592  -2.890  0.00  0.00    -0.001 A 
ATOM     19  C   UNL     1       3.238   6.631  -3.779  0.00  0.00    -0.017 A 
ATOM     20  C   UNL     1       3.413   5.288  -3.575  0.00  0.00    -0.001 A 
ATOM     21  C   UNL     1       3.668   4.896  -2.266  0.00  0.00    +0.042 A 
ENDBRANCH   1  19
TORSDOF 1
ENDMDL
