MODEL 1
REMARK VINA RESULT:      -9.2      0.000      0.000
REMARK  Name = 
REMARK  6 active torsions:
REMARK  status: ('A' for Active; 'I' for Inactive)
REMARK    1  A    between atoms: O_2  and  C_3
REMARK    2  A    between atoms: C_5  and  N_6
REMARK    3  A    between atoms: C_9  and  N_10
REMARK    4  A    between atoms: C_21  and  N_22
REMARK    5  A    between atoms: N_29  and  C_30
REMARK    6  A    between atoms: C_35  and  P_36
REMARK                            x       y       z     vdW  Elec       q    Type
REMARK                         _______ _______ _______ _____ _____    ______ ____
ROOT
ATOM      1  C   UNL     1       0.722   6.189  -6.305  0.00  0.00    +0.155 A 
ATOM      2  C   UNL     1       1.599   6.846  -5.454  0.00  0.00    +0.107 A 
ATOM      3  C   UNL     1       2.944   6.979  -5.771  0.00  0.00    +0.021 A 
ATOM      4  C   UNL     1       3.366   6.539  -7.001  0.00  0.00    +0.016 A 
ATOM      5  C   UNL     1       2.489   6.051  -7.963  0.00  0.00    +0.051 A 
ATOM      6  C   UNL     1       1.182   5.860  -7.573  0.00  0.00    +0.053 A 
ENDROOT
BRANCH   2   7
ATOM      7  N   UNL     1       1.177   7.003  -4.097  0.00  0.00    -0.175 NA
ATOM      8  C   UNL     1       1.663   6.118  -3.086  0.00  0.00    +0.242 A 
ATOM      9  N   UNL     1       1.597   6.469  -1.794  0.00  0.00    -0.194 NA
ATOM     10  C   UNL     1       2.489   6.065  -0.869  0.00  0.00    +0.167 A 
ATOM     11  N   UNL     1       2.678   6.772   0.361  0.00  0.00    -0.193 NA
ATOM     12  C   UNL     1       3.437   5.145  -1.255  0.00  0.00    +0.110 A 
ATOM     13 CL   UNL     1       4.997   5.062  -0.445  0.00  0.00    -0.078 Cl
ATOM     14  C   UNL     1       3.211   4.500  -2.463  0.00  0.00    +0.116 A 
ATOM     15  N   UNL     1       2.445   5.077  -3.414  0.00  0.00    -0.210 NA
BRANCH  11  16
ATOM     16  C   UNL     1       2.787   8.196   0.267  0.00  0.00    +0.075 A 
ATOM     17  C   UNL     1       1.770   8.956   0.830  0.00  0.00    +0.045 A 
ATOM     18  C   UNL     1       1.797  10.336   0.675  0.00  0.00    +0.004 A 
ATOM     19  C   UNL     1       2.838  10.925  -0.033  0.00  0.00    +0.000 A 
ATOM     20  C   UNL     1       3.700  10.151  -0.796  0.00  0.00    +0.001 A 
ATOM     21  C   UNL     1       3.509   8.787  -0.759  0.00  0.00    +0.017 A 
BRANCH  17  22
ATOM     22  P   UNL     1       0.778   8.262   2.154  0.00  0.00    +0.137 P 
ATOM     23  O   UNL     1       1.688   7.423   3.033  0.00  0.00    -0.315 OA
ATOM     24  C   UNL     1      -0.499   7.184   1.429  0.00  0.00    +0.072 C 
ATOM     25  C   UNL     1       0.035   9.594   3.127  0.00  0.00    +0.072 C 
ENDBRANCH  17  22
ENDBRANCH  11  16
ENDBRANCH   2   7
BRANCH   5  26
ATOM     26  N   UNL     1       2.987   5.338  -9.099  0.00  0.00    -0.307 N 
ATOM     27  C   UNL     1       2.354   5.371 -10.393  0.00  0.00    +0.092 C 
ATOM     28  C   UNL     1       3.198   5.971 -11.469  0.00  0.00    +0.037 C 
ATOM     29  C   UNL     1       4.658   5.786 -11.330  0.00  0.00    +0.061 C 
ATOM     30  C   UNL     1       5.183   5.589  -9.957  0.00  0.00    +0.037 C 
ATOM     31  C   UNL     1       4.322   4.745  -9.065  0.00  0.00    +0.092 C 
BRANCH  29  32
ATOM     32  N   UNL     1       5.289   5.005 -12.349  0.00  0.00    -0.272 NA
ATOM     33  C   UNL     1       6.687   5.338 -12.430  0.00  0.00    +0.090 C 
ATOM     34  C   UNL     1       7.096   5.834 -13.795  0.00  0.00    +0.090 C 
ATOM     35  N   UNL     1       6.153   6.851 -14.214  0.00  0.00    -0.269 NA
ATOM     36  C   UNL     1       6.635   7.456 -15.450  0.00  0.00    +0.090 C 
ATOM     37  C   UNL     1       4.828   6.301 -14.383  0.00  0.00    +0.090 C 
ATOM     38  C   UNL     1       4.614   5.022 -13.618  0.00  0.00    +0.090 C 
ENDBRANCH  29  32
ENDBRANCH   5  26
BRANCH   1  40
ATOM     39  C   UNL     1      -1.527   5.431  -6.633  0.00  0.00    +0.253 C 
ATOM     40  O   UNL     1      -0.395   5.535  -5.776  0.00  0.00    -0.470 OA
ENDBRANCH   1  40
TORSDOF 6
ENDMDL
MODEL 2
REMARK VINA RESULT:      -9.0      2.554      4.533
REMARK  Name = 
REMARK  6 active torsions:
REMARK  status: ('A' for Active; 'I' for Inactive)
REMARK    1  A    between atoms: O_2  and  C_3
REMARK    2  A    between atoms: C_5  and  N_6
REMARK    3  A    between atoms: C_9  and  N_10
REMARK    4  A    between atoms: C_21  and  N_22
REMARK    5  A    between atoms: N_29  and  C_30
REMARK    6  A    between atoms: C_35  and  P_36
REMARK                            x       y       z     vdW  Elec       q    Type
REMARK                         _______ _______ _______ _____ _____    ______ ____
ROOT
ATOM      1  C   UNL     1       2.277   5.506 -10.102  0.00  0.00    +0.155 A 
ATOM      2  C   UNL     1       3.130   5.305  -9.027  0.00  0.00    +0.107 A 
ATOM      3  C   UNL     1       4.493   5.118  -9.216  0.00  0.00    +0.021 A 
ATOM      4  C   UNL     1       4.994   5.248 -10.488  0.00  0.00    +0.016 A 
ATOM      5  C   UNL     1       4.209   5.641 -11.566  0.00  0.00    +0.051 A 
ATOM      6  C   UNL     1       2.853   5.732 -11.346  0.00  0.00    +0.053 A 
ENDROOT
BRANCH   2   7
ATOM      7  N   UNL     1       2.527   4.885  -7.801  0.00  0.00    -0.175 NA
ATOM      8  C   UNL     1       3.208   5.081  -6.560  0.00  0.00    +0.242 A 
ATOM      9  N   UNL     1       2.526   5.057  -5.406  0.00  0.00    -0.194 NA
ATOM     10  C   UNL     1       2.879   5.775  -4.321  0.00  0.00    +0.167 A 
ATOM     11  N   UNL     1       1.943   6.094  -3.287  0.00  0.00    -0.193 NA
ATOM     12  C   UNL     1       4.070   6.463  -4.371  0.00  0.00    +0.110 A 
ATOM     13 CL   UNL     1       4.316   7.913  -3.404  0.00  0.00    -0.078 Cl
ATOM     14  C   UNL     1       4.932   6.124  -5.403  0.00  0.00    +0.116 A 
ATOM     15  N   UNL     1       4.457   5.575  -6.541  0.00  0.00    -0.210 NA
BRANCH  11  16
ATOM     16  C   UNL     1       0.664   6.576  -3.711  0.00  0.00    +0.075 A 
ATOM     17  C   UNL     1      -0.440   6.228  -2.943  0.00  0.00    +0.045 A 
ATOM     18  C   UNL     1      -1.705   6.601  -3.377  0.00  0.00    +0.004 A 
ATOM     19  C   UNL     1      -1.840   7.314  -4.562  0.00  0.00    +0.000 A 
ATOM     20  C   UNL     1      -0.771   7.436  -5.438  0.00  0.00    +0.001 A 
ATOM     21  C   UNL     1       0.425   6.877  -5.043  0.00  0.00    +0.017 A 
BRANCH  17  22
ATOM     22  P   UNL     1      -0.217   5.811  -1.212  0.00  0.00    +0.137 P 
ATOM     23  O   UNL     1       0.334   4.398  -1.136  0.00  0.00    -0.315 OA
ATOM     24  C   UNL     1      -1.838   5.857  -0.382  0.00  0.00    +0.072 C 
ATOM     25  C   UNL     1       0.943   6.969  -0.446  0.00  0.00    +0.072 C 
ENDBRANCH  17  22
ENDBRANCH  11  16
ENDBRANCH   2   7
BRANCH   5  26
ATOM     26  N   UNL     1       4.688   5.481 -12.904  0.00  0.00    -0.307 N 
ATOM     27  C   UNL     1       3.819   5.413 -14.052  0.00  0.00    +0.092 C 
ATOM     28  C   UNL     1       4.006   6.529 -15.026  0.00  0.00    +0.037 C 
ATOM     29  C   UNL     1       5.373   7.082 -15.127  0.00  0.00    +0.061 C 
ATOM     30  C   UNL     1       6.244   6.944 -13.933  0.00  0.00    +0.037 C 
ATOM     31  C   UNL     1       6.109   5.643 -13.199  0.00  0.00    +0.092 C 
BRANCH  29  32
ATOM     32  N   UNL     1       6.025   6.911 -16.389  0.00  0.00    -0.272 NA
ATOM     33  C   UNL     1       7.327   7.524 -16.356  0.00  0.00    +0.090 C 
ATOM     34  C   UNL     1       7.503   8.590 -17.410  0.00  0.00    +0.090 C 
ATOM     35  N   UNL     1       6.358   9.476 -17.359  0.00  0.00    -0.269 NA
ATOM     36  C   UNL     1       6.598  10.603 -18.251  0.00  0.00    +0.090 C 
ATOM     37  C   UNL     1       5.140   8.783 -17.709  0.00  0.00    +0.090 C 
ATOM     38  C   UNL     1       5.233   7.292 -17.525  0.00  0.00    +0.090 C 
ENDBRANCH  29  32
ENDBRANCH   5  26
BRANCH   1  40
ATOM     39  C   UNL     1       0.266   4.888 -11.248  0.00  0.00    +0.253 C 
ATOM     40  O   UNL     1       0.944   5.095 -10.014  0.00  0.00    -0.470 OA
ENDBRANCH   1  40
TORSDOF 6
ENDMDL
MODEL 3
REMARK VINA RESULT:      -8.8      3.355      5.317
REMARK  Name = 
REMARK  6 active torsions:
REMARK  status: ('A' for Active; 'I' for Inactive)
REMARK    1  A    between atoms: O_2  and  C_3
REMARK    2  A    between atoms: C_5  and  N_6
REMARK    3  A    between atoms: C_9  and  N_10
REMARK    4  A    between atoms: C_21  and  N_22
REMARK    5  A    between atoms: N_29  and  C_30
REMARK    6  A    between atoms: C_35  and  P_36
REMARK                            x       y       z     vdW  Elec       q    Type
REMARK                         _______ _______ _______ _____ _____    ______ ____
ROOT
ATOM      1  C   UNL     1       3.892   6.265  -9.798  0.00  0.00    +0.155 A 
ATOM      2  C   UNL     1       4.457   5.529  -8.767  0.00  0.00    +0.107 A 
ATOM      3  C   UNL     1       5.800   5.178  -8.786  0.00  0.00    +0.021 A 
ATOM      4  C   UNL     1       6.584   5.673  -9.798  0.00  0.00    +0.016 A 
ATOM      5  C   UNL     1       6.107   6.572 -10.744  0.00  0.00    +0.051 A 
ATOM      6  C   UNL     1       4.752   6.823 -10.735  0.00  0.00    +0.053 A 
ENDROOT
BRANCH   2   7
ATOM      7  N   UNL     1       3.552   4.806  -7.928  0.00  0.00    -0.175 NA
ATOM      8  C   UNL     1       3.638   4.926  -6.506  0.00  0.00    +0.242 A 
ATOM      9  N   UNL     1       2.596   4.583  -5.737  0.00  0.00    -0.194 NA
ATOM     10  C   UNL     1       2.321   5.169  -4.555  0.00  0.00    +0.167 A 
ATOM     11  N   UNL     1       1.014   5.127  -3.974  0.00  0.00    -0.193 NA
ATOM     12  C   UNL     1       3.234   6.074  -4.065  0.00  0.00    +0.110 A 
ATOM     13 CL   UNL     1       2.731   7.367  -2.982  0.00  0.00    -0.078 Cl
ATOM     14  C   UNL     1       4.480   6.082  -4.675  0.00  0.00    +0.116 A 
ATOM     15  N   UNL     1       4.624   5.644  -5.944  0.00  0.00    -0.210 NA
BRANCH  11  16
ATOM     16  C   UNL     1      -0.082   5.413  -4.848  0.00  0.00    +0.075 A 
ATOM     17  C   UNL     1      -1.356   5.431  -4.296  0.00  0.00    +0.045 A 
ATOM     18  C   UNL     1      -2.449   5.614  -5.133  0.00  0.00    +0.004 A 
ATOM     19  C   UNL     1      -2.247   5.777  -6.498  0.00  0.00    +0.000 A 
ATOM     20  C   UNL     1      -1.009   5.509  -7.066  0.00  0.00    +0.001 A 
ATOM     21  C   UNL     1       0.003   5.142  -6.205  0.00  0.00    +0.017 A 
BRANCH  17  22
ATOM     22  P   UNL     1      -1.555   5.762  -2.543  0.00  0.00    +0.137 P 
ATOM     23  O   UNL     1      -2.703   4.910  -2.032  0.00  0.00    -0.315 OA
ATOM     24  C   UNL     1      -1.980   7.519  -2.321  0.00  0.00    +0.072 C 
ATOM     25  C   UNL     1      -0.032   5.341  -1.663  0.00  0.00    +0.072 C 
ENDBRANCH  17  22
ENDBRANCH  11  16
ENDBRANCH   2   7
BRANCH   5  26
ATOM     26  N   UNL     1       6.854   6.832 -11.937  0.00  0.00    -0.307 N 
ATOM     27  C   UNL     1       7.793   5.896 -12.501  0.00  0.00    +0.092 C 
ATOM     28  C   UNL     1       7.420   5.404 -13.861  0.00  0.00    +0.037 C 
ATOM     29  C   UNL     1       6.670   6.351 -14.713  0.00  0.00    +0.061 C 
ATOM     30  C   UNL     1       5.866   7.387 -14.019  0.00  0.00    +0.037 C 
ATOM     31  C   UNL     1       6.503   7.964 -12.789  0.00  0.00    +0.092 C 
BRANCH  29  32
ATOM     32  N   UNL     1       7.335   6.782 -15.904  0.00  0.00    -0.272 NA
ATOM     33  C   UNL     1       7.124   8.192 -16.102  0.00  0.00    +0.090 C 
ATOM     34  C   UNL     1       6.459   8.509 -17.418  0.00  0.00    +0.090 C 
ATOM     35  N   UNL     1       5.305   7.645 -17.567  0.00  0.00    -0.269 NA
ATOM     36  C   UNL     1       4.560   8.058 -18.749  0.00  0.00    +0.090 C 
ATOM     37  C   UNL     1       5.696   6.256 -17.655  0.00  0.00    +0.090 C 
ATOM     38  C   UNL     1       7.054   5.985 -17.065  0.00  0.00    +0.090 C 
ENDBRANCH  29  32
ENDBRANCH   5  26
BRANCH   1  40
ATOM     39  C   UNL     1       1.628   6.931  -9.387  0.00  0.00    +0.253 C 
ATOM     40  O   UNL     1       2.538   6.103 -10.103  0.00  0.00    -0.470 OA
ENDBRANCH   1  40
TORSDOF 6
ENDMDL
MODEL 4
REMARK VINA RESULT:      -8.7      5.282     12.644
REMARK  Name = 
REMARK  6 active torsions:
REMARK  status: ('A' for Active; 'I' for Inactive)
REMARK    1  A    between atoms: O_2  and  C_3
REMARK    2  A    between atoms: C_5  and  N_6
REMARK    3  A    between atoms: C_9  and  N_10
REMARK    4  A    between atoms: C_21  and  N_22
REMARK    5  A    between atoms: N_29  and  C_30
REMARK    6  A    between atoms: C_35  and  P_36
REMARK                            x       y       z     vdW  Elec       q    Type
REMARK                         _______ _______ _______ _____ _____    ______ ____
ROOT
ATOM      1  C   UNL     1       2.123   6.167  -9.044  0.00  0.00    +0.155 A 
ATOM      2  C   UNL     1       1.285   5.653 -10.022  0.00  0.00    +0.107 A 
ATOM      3  C   UNL     1      -0.009   5.250  -9.722  0.00  0.00    +0.021 A 
ATOM      4  C   UNL     1      -0.479   5.478  -8.452  0.00  0.00    +0.016 A 
ATOM      5  C   UNL     1       0.255   6.166  -7.493  0.00  0.00    +0.051 A 
ATOM      6  C   UNL     1       1.561   6.469  -7.810  0.00  0.00    +0.053 A 
ENDROOT
BRANCH   2   7
ATOM      7  N   UNL     1       1.912   5.170 -11.213  0.00  0.00    -0.175 NA
ATOM      8  C   UNL     1       1.478   5.633 -12.494  0.00  0.00    +0.242 A 
ATOM      9  N   UNL     1       2.276   5.503 -13.563  0.00  0.00    -0.194 NA
ATOM     10  C   UNL     1       2.272   6.365 -14.600  0.00  0.00    +0.167 A 
ATOM     11  N   UNL     1       3.387   6.485 -15.488  0.00  0.00    -0.193 NA
ATOM     12  C   UNL     1       1.311   7.349 -14.608  0.00  0.00    +0.110 A 
ATOM     13 CL   UNL     1       1.588   8.875 -15.440  0.00  0.00    -0.078 Cl
ATOM     14  C   UNL     1       0.261   7.190 -13.716  0.00  0.00    +0.116 A 
ATOM     15  N   UNL     1       0.419   6.453 -12.596  0.00  0.00    -0.210 NA
BRANCH  11  16
ATOM     16  C   UNL     1       4.681   6.564 -14.881  0.00  0.00    +0.075 A 
ATOM     17  C   UNL     1       5.767   6.804 -15.712  0.00  0.00    +0.045 A 
ATOM     18  C   UNL     1       7.045   6.795 -15.169  0.00  0.00    +0.004 A 
ATOM     19  C   UNL     1       7.210   6.550 -13.811  0.00  0.00    +0.000 A 
ATOM     20  C   UNL     1       6.157   6.069 -13.047  0.00  0.00    +0.001 A 
ATOM     21  C   UNL     1       4.945   5.913 -13.686  0.00  0.00    +0.017 A 
BRANCH  17  22
ATOM     22  P   UNL     1       5.511   7.631 -17.284  0.00  0.00    +0.137 P 
ATOM     23  O   UNL     1       4.669   6.722 -18.162  0.00  0.00    -0.315 OA
ATOM     24  C   UNL     1       7.127   7.890 -18.083  0.00  0.00    +0.072 C 
ATOM     25  C   UNL     1       4.654   9.202 -17.019  0.00  0.00    +0.072 C 
ENDBRANCH  17  22
ENDBRANCH  11  16
ENDBRANCH   2   7
BRANCH   5  26
ATOM     26  N   UNL     1      -0.135   6.126  -6.117  0.00  0.00    -0.307 N 
ATOM     27  C   UNL     1       0.096   7.211  -5.198  0.00  0.00    +0.092 C 
ATOM     28  C   UNL     1      -1.151   7.822  -4.651  0.00  0.00    +0.037 C 
ATOM     29  C   UNL     1      -2.307   6.913  -4.495  0.00  0.00    +0.061 C 
ATOM     30  C   UNL     1      -2.354   5.727  -5.386  0.00  0.00    +0.037 C 
ATOM     31  C   UNL     1      -1.028   5.074  -5.639  0.00  0.00    +0.092 C 
BRANCH  29  32
ATOM     32  N   UNL     1      -2.756   6.695  -3.154  0.00  0.00    -0.272 NA
ATOM     33  C   UNL     1      -2.318   7.775  -2.309  0.00  0.00    +0.090 C 
ATOM     34  C   UNL     1      -1.461   7.310  -1.157  0.00  0.00    +0.090 C 
ATOM     35  N   UNL     1      -0.438   6.425  -1.676  0.00  0.00    -0.269 NA
ATOM     36  C   UNL     1       0.496   6.107  -0.602  0.00  0.00    +0.090 C 
ATOM     37  C   UNL     1      -1.015   5.225  -2.238  0.00  0.00    +0.090 C 
ATOM     38  C   UNL     1      -2.459   5.391  -2.631  0.00  0.00    +0.090 C 
ENDBRANCH  29  32
ENDBRANCH   5  26
BRANCH   1  40
ATOM     39  C   UNL     1       4.204   5.692  -7.957  0.00  0.00    +0.253 C 
ATOM     40  O   UNL     1       3.506   5.998  -9.159  0.00  0.00    -0.470 OA
ENDBRANCH   1  40
TORSDOF 6
ENDMDL
MODEL 5
REMARK VINA RESULT:      -8.5      4.005     12.035
REMARK  Name = 
REMARK  6 active torsions:
REMARK  status: ('A' for Active; 'I' for Inactive)
REMARK    1  A    between atoms: O_2  and  C_3
REMARK    2  A    between atoms: C_5  and  N_6
REMARK    3  A    between atoms: C_9  and  N_10
REMARK    4  A    between atoms: C_21  and  N_22
REMARK    5  A    between atoms: N_29  and  C_30
REMARK    6  A    between atoms: C_35  and  P_36
REMARK                            x       y       z     vdW  Elec       q    Type
REMARK                         _______ _______ _______ _____ _____    ______ ____
ROOT
ATOM      1  C   UNL     1       3.323   6.284  -4.138  0.00  0.00    +0.155 A 
ATOM      2  C   UNL     1       2.397   5.441  -4.734  0.00  0.00    +0.107 A 
ATOM      3  C   UNL     1       1.278   4.998  -4.042  0.00  0.00    +0.021 A 
ATOM      4  C   UNL     1       1.052   5.505  -2.786  0.00  0.00    +0.016 A 
ATOM      5  C   UNL     1       1.845   6.499  -2.225  0.00  0.00    +0.051 A 
ATOM      6  C   UNL     1       2.988   6.843  -2.912  0.00  0.00    +0.053 A 
ENDROOT
BRANCH   2   7
ATOM      7  N   UNL     1       2.834   4.727  -5.893  0.00  0.00    -0.175 NA
ATOM      8  C   UNL     1       2.028   4.709  -7.074  0.00  0.00    +0.242 A 
ATOM      9  N   UNL     1       2.571   4.390  -8.257  0.00  0.00    -0.194 NA
ATOM     10  C   UNL     1       2.136   4.888  -9.431  0.00  0.00    +0.167 A 
ATOM     11  N   UNL     1       2.964   4.909 -10.598  0.00  0.00    -0.193 NA
ATOM     12  C   UNL     1       0.997   5.660  -9.414  0.00  0.00    +0.110 A 
ATOM     13 CL   UNL     1       0.720   6.888 -10.643  0.00  0.00    -0.078 Cl
ATOM     14  C   UNL     1       0.241   5.613  -8.252  0.00  0.00    +0.116 A 
ATOM     15  N   UNL     1       0.813   5.282  -7.075  0.00  0.00    -0.210 NA
BRANCH  11  16
ATOM     16  C   UNL     1       4.306   5.371 -10.419  0.00  0.00    +0.075 A 
ATOM     17  C   UNL     1       5.138   5.376 -11.532  0.00  0.00    +0.045 A 
ATOM     18  C   UNL     1       6.471   5.729 -11.374  0.00  0.00    +0.004 A 
ATOM     19  C   UNL     1       6.944   6.072 -10.112  0.00  0.00    +0.000 A 
ATOM     20  C   UNL     1       6.181   5.824  -8.981  0.00  0.00    +0.001 A 
ATOM     21  C   UNL     1       4.926   5.289  -9.181  0.00  0.00    +0.017 A 
BRANCH  17  22
ATOM     22  P   UNL     1       4.417   5.466 -13.173  0.00  0.00    +0.137 P 
ATOM     23  O   UNL     1       4.197   4.048 -13.668  0.00  0.00    -0.315 OA
ATOM     24  C   UNL     1       5.591   6.303 -14.285  0.00  0.00    +0.072 C 
ATOM     25  C   UNL     1       2.840   6.349 -13.102  0.00  0.00    +0.072 C 
ENDBRANCH  17  22
ENDBRANCH  11  16
ENDBRANCH   2   7
BRANCH   5  26
ATOM     26  N   UNL     1       1.762   6.786  -0.826  0.00  0.00    -0.307 N 
ATOM     27  C   UNL     1       2.614   7.740  -0.162  0.00  0.00    +0.092 C 
ATOM     28  C   UNL     1       1.886   8.904   0.423  0.00  0.00    +0.037 C 
ATOM     29  C   UNL     1       0.510   8.640   0.897  0.00  0.00    +0.061 C 
ATOM     30  C   UNL     1      -0.217   7.516   0.256  0.00  0.00    +0.037 C 
ATOM     31  C   UNL     1       0.622   6.310  -0.046  0.00  0.00    +0.092 C 
BRANCH  29  32
ATOM     32  N   UNL     1       0.293   8.793   2.303  0.00  0.00    -0.272 NA
ATOM     33  C   UNL     1      -0.534   7.721   2.792  0.00  0.00    +0.090 C 
ATOM     34  C   UNL     1      -1.807   8.209   3.439  0.00  0.00    +0.090 C 
ATOM     35  N   UNL     1      -2.432   9.170   2.554  0.00  0.00    -0.269 NA
ATOM     36  C   UNL     1      -3.743   9.517   3.089  0.00  0.00    +0.090 C 
ATOM     37  C   UNL     1      -1.608  10.345   2.387  0.00  0.00    +0.090 C 
ATOM     38  C   UNL     1      -0.156  10.099   2.698  0.00  0.00    +0.090 C 
ENDBRANCH  29  32
ENDBRANCH   5  26
BRANCH   1  40
ATOM     39  C   UNL     1       5.464   7.358  -4.186  0.00  0.00    +0.253 C 
ATOM     40  O   UNL     1       4.661   6.239  -4.543  0.00  0.00    -0.470 OA
ENDBRANCH   1  40
TORSDOF 6
ENDMDL
MODEL 6
REMARK VINA RESULT:      -8.4      2.677      3.651
REMARK  Name = 
REMARK  6 active torsions:
REMARK  status: ('A' for Active; 'I' for Inactive)
REMARK    1  A    between atoms: O_2  and  C_3
REMARK    2  A    between atoms: C_5  and  N_6
REMARK    3  A    between atoms: C_9  and  N_10
REMARK    4  A    between atoms: C_21  and  N_22
REMARK    5  A    between atoms: N_29  and  C_30
REMARK    6  A    between atoms: C_35  and  P_36
REMARK                            x       y       z     vdW  Elec       q    Type
REMARK                         _______ _______ _______ _____ _____    ______ ____
ROOT
ATOM      1  C   UNL     1       0.730   5.926  -7.182  0.00  0.00    +0.155 A 
ATOM      2  C   UNL     1       1.795   5.139  -6.770  0.00  0.00    +0.107 A 
ATOM      3  C   UNL     1       2.573   4.445  -7.686  0.00  0.00    +0.021 A 
ATOM      4  C   UNL     1       2.332   4.645  -9.023  0.00  0.00    +0.016 A 
ATOM      5  C   UNL     1       1.405   5.571  -9.487  0.00  0.00    +0.051 A 
ATOM      6  C   UNL     1       0.601   6.171  -8.543  0.00  0.00    +0.053 A 
ENDROOT
BRANCH   2   7
ATOM      7  N   UNL     1       1.802   4.740  -5.397  0.00  0.00    -0.175 NA
ATOM      8  C   UNL     1       2.742   5.313  -4.485  0.00  0.00    +0.242 A 
ATOM      9  N   UNL     1       2.522   5.253  -3.164  0.00  0.00    -0.194 NA
ATOM     10  C   UNL     1       2.946   6.194  -2.298  0.00  0.00    +0.167 A 
ATOM     11  N   UNL     1       2.348   6.361  -1.009  0.00  0.00    -0.193 NA
ATOM     12  C   UNL     1       3.751   7.197  -2.789  0.00  0.00    +0.110 A 
ATOM     13 CL   UNL     1       3.795   8.778  -2.017  0.00  0.00    -0.078 Cl
ATOM     14  C   UNL     1       4.291   6.989  -4.049  0.00  0.00    +0.116 A 
ATOM     15  N   UNL     1       3.685   6.161  -4.927  0.00  0.00    -0.210 NA
BRANCH  11  16
ATOM     16  C   UNL     1       0.918   6.364  -0.965  0.00  0.00    +0.075 A 
ATOM     17  C   UNL     1       0.312   6.772   0.217  0.00  0.00    +0.045 A 
ATOM     18  C   UNL     1      -1.070   6.698   0.325  0.00  0.00    +0.004 A 
ATOM     19  C   UNL     1      -1.816   6.224  -0.747  0.00  0.00    +0.000 A 
ATOM     20  C   UNL     1      -1.196   5.591  -1.815  0.00  0.00    +0.001 A 
ATOM     21  C   UNL     1       0.181   5.520  -1.781  0.00  0.00    +0.017 A 
BRANCH  17  22
ATOM     22  P   UNL     1       1.202   7.855   1.338  0.00  0.00    +0.137 P 
ATOM     23  O   UNL     1       2.619   7.327   1.477  0.00  0.00    -0.315 OA
ATOM     24  C   UNL     1       0.393   7.807   2.969  0.00  0.00    +0.072 C 
ATOM     25  C   UNL     1       1.232   9.537   0.672  0.00  0.00    +0.072 C 
ENDBRANCH  17  22
ENDBRANCH  11  16
ENDBRANCH   2   7
BRANCH   5  26
ATOM     26  N   UNL     1       0.974   5.541 -10.850  0.00  0.00    -0.307 N 
ATOM     27  C   UNL     1      -0.212   6.212 -11.320  0.00  0.00    +0.092 C 
ATOM     28  C   UNL     1       0.053   7.291 -12.317  0.00  0.00    +0.037 C 
ATOM     29  C   UNL     1       1.224   7.091 -13.197  0.00  0.00    +0.061 C 
ATOM     30  C   UNL     1       2.319   6.237 -12.675  0.00  0.00    +0.037 C 
ATOM     31  C   UNL     1       1.868   5.040 -11.891  0.00  0.00    +0.092 C 
BRANCH  29  32
ATOM     32  N   UNL     1       0.940   6.946 -14.592  0.00  0.00    -0.272 NA
ATOM     33  C   UNL     1       2.168   6.834 -15.334  0.00  0.00    +0.090 C 
ATOM     34  C   UNL     1       2.323   7.909 -16.382  0.00  0.00    +0.090 C 
ATOM     35  N   UNL     1       2.040   9.190 -15.768  0.00  0.00    -0.269 NA
ATOM     36  C   UNL     1       2.352  10.247 -16.723  0.00  0.00    +0.090 C 
ATOM     37  C   UNL     1       0.666   9.272 -15.329  0.00  0.00    +0.090 C 
ATOM     38  C   UNL     1       0.030   7.924 -15.120  0.00  0.00    +0.090 C 
ENDBRANCH  29  32
ENDBRANCH   5  26
BRANCH   1  40
ATOM     39  C   UNL     1      -1.539   5.368  -6.654  0.00  0.00    +0.253 C 
ATOM     40  O   UNL     1      -0.366   6.107  -6.333  0.00  0.00    -0.470 OA
ENDBRANCH   1  40
TORSDOF 6
ENDMDL
MODEL 7
REMARK VINA RESULT:      -8.2      5.004     12.497
REMARK  Name = 
REMARK  6 active torsions:
REMARK  status: ('A' for Active; 'I' for Inactive)
REMARK    1  A    between atoms: O_2  and  C_3
REMARK    2  A    between atoms: C_5  and  N_6
REMARK    3  A    between atoms: C_9  and  N_10
REMARK    4  A    between atoms: C_21  and  N_22
REMARK    5  A    between atoms: N_29  and  C_30
REMARK    6  A    between atoms: C_35  and  P_36
REMARK                            x       y       z     vdW  Elec       q    Type
REMARK                         _______ _______ _______ _____ _____    ______ ____
ROOT
ATOM      1  C   UNL     1       4.025   5.928  -9.235  0.00  0.00    +0.155 A 
ATOM      2  C   UNL     1       2.930   5.312  -9.821  0.00  0.00    +0.107 A 
ATOM      3  C   UNL     1       1.998   4.622  -9.057  0.00  0.00    +0.021 A 
ATOM      4  C   UNL     1       2.128   4.658  -7.691  0.00  0.00    +0.016 A 
ATOM      5  C   UNL     1       3.096   5.422  -7.050  0.00  0.00    +0.051 A 
ATOM      6  C   UNL     1       4.046   6.019  -7.849  0.00  0.00    +0.053 A 
ENDROOT
BRANCH   2   7
ATOM      7  N   UNL     1       3.015   5.056 -11.226  0.00  0.00    -0.175 NA
ATOM      8  C   UNL     1       2.048   5.613 -12.119  0.00  0.00    +0.242 A 
ATOM      9  N   UNL     1       2.318   5.711 -13.428  0.00  0.00    -0.194 NA
ATOM     10  C   UNL     1       1.820   6.683 -14.217  0.00  0.00    +0.167 A 
ATOM     11  N   UNL     1       2.439   7.044 -15.456  0.00  0.00    -0.193 NA
ATOM     12  C   UNL     1       0.891   7.537 -13.668  0.00  0.00    +0.110 A 
ATOM     13 CL   UNL     1       0.694   9.173 -14.284  0.00  0.00    -0.078 Cl
ATOM     14  C   UNL     1       0.334   7.144 -12.460  0.00  0.00    +0.116 A 
ATOM     15  N   UNL     1       1.000   6.303 -11.640  0.00  0.00    -0.210 NA
BRANCH  11  16
ATOM     16  C   UNL     1       3.860   7.208 -15.434  0.00  0.00    +0.075 A 
ATOM     17  C   UNL     1       4.443   7.898 -16.489  0.00  0.00    +0.045 A 
ATOM     18  C   UNL     1       5.827   7.994 -16.547  0.00  0.00    +0.004 A 
ATOM     19  C   UNL     1       6.597   7.404 -15.552  0.00  0.00    +0.000 A 
ATOM     20  C   UNL     1       6.027   6.514 -14.653  0.00  0.00    +0.001 A 
ATOM     21  C   UNL     1       4.669   6.305 -14.761  0.00  0.00    +0.017 A 
BRANCH  17  22
ATOM     22  P   UNL     1       3.463   9.077 -17.423  0.00  0.00    +0.137 P 
ATOM     23  O   UNL     1       2.953  10.133 -16.458  0.00  0.00    -0.315 OA
ATOM     24  C   UNL     1       2.038   8.208 -18.153  0.00  0.00    +0.072 C 
ATOM     25  C   UNL     1       4.484   9.848 -18.701  0.00  0.00    +0.072 C 
ENDBRANCH  17  22
ENDBRANCH  11  16
ENDBRANCH   2   7
BRANCH   5  26
ATOM     26  N   UNL     1       3.387   5.207  -5.666  0.00  0.00    -0.307 N 
ATOM     27  C   UNL     1       4.668   5.499  -5.073  0.00  0.00    +0.092 C 
ATOM     28  C   UNL     1       4.626   6.559  -4.022  0.00  0.00    +0.037 C 
ATOM     29  C   UNL     1       3.375   6.648  -3.238  0.00  0.00    +0.061 C 
ATOM     30  C   UNL     1       2.136   6.158  -3.891  0.00  0.00    +0.037 C 
ATOM     31  C   UNL     1       2.307   4.923  -4.725  0.00  0.00    +0.092 C 
BRANCH  29  32
ATOM     32  N   UNL     1       3.491   6.362  -1.841  0.00  0.00    -0.272 NA
ATOM     33  C   UNL     1       2.190   6.383  -1.226  0.00  0.00    +0.090 C 
ATOM     34  C   UNL     1       2.083   7.390  -0.108  0.00  0.00    +0.090 C 
ATOM     35  N   UNL     1       2.606   8.655  -0.581  0.00  0.00    -0.269 NA
ATOM     36  C   UNL     1       2.352   9.675   0.430  0.00  0.00    +0.090 C 
ATOM     37  C   UNL     1       4.016   8.562  -0.884  0.00  0.00    +0.090 C 
ATOM     38  C   UNL     1       4.472   7.152  -1.150  0.00  0.00    +0.090 C 
ENDBRANCH  29  32
ENDBRANCH   5  26
BRANCH   1  40
ATOM     39  C   UNL     1       6.407   5.676  -9.296  0.00  0.00    +0.253 C 
ATOM     40  O   UNL     1       5.211   6.068  -9.962  0.00  0.00    -0.470 OA
ENDBRANCH   1  40
TORSDOF 6
ENDMDL
MODEL 8
REMARK VINA RESULT:      -8.1      1.774      2.699
REMARK  Name = 
REMARK  6 active torsions:
REMARK  status: ('A' for Active; 'I' for Inactive)
REMARK    1  A    between atoms: O_2  and  C_3
REMARK    2  A    between atoms: C_5  and  N_6
REMARK    3  A    between atoms: C_9  and  N_10
REMARK    4  A    between atoms: C_21  and  N_22
REMARK    5  A    between atoms: N_29  and  C_30
REMARK    6  A    between atoms: C_35  and  P_36
REMARK                            x       y       z     vdW  Elec       q    Type
REMARK                         _______ _______ _______ _____ _____    ______ ____
ROOT
ATOM      1  C   UNL     1       2.046   5.794  -6.381  0.00  0.00    +0.155 A 
ATOM      2  C   UNL     1       2.922   5.649  -5.317  0.00  0.00    +0.107 A 
ATOM      3  C   UNL     1       4.293   5.558  -5.521  0.00  0.00    +0.021 A 
ATOM      4  C   UNL     1       4.769   5.727  -6.797  0.00  0.00    +0.016 A 
ATOM      5  C   UNL     1       3.948   6.068  -7.865  0.00  0.00    +0.051 A 
ATOM      6  C   UNL     1       2.590   6.063  -7.630  0.00  0.00    +0.053 A 
ENDROOT
BRANCH   2   7
ATOM      7  N   UNL     1       2.363   5.184  -4.086  0.00  0.00    -0.175 NA
ATOM      8  C   UNL     1       2.953   5.560  -2.839  0.00  0.00    +0.242 A 
ATOM      9  N   UNL     1       2.247   5.466  -1.704  0.00  0.00    -0.194 NA
ATOM     10  C   UNL     1       2.426   6.286  -0.650  0.00  0.00    +0.167 A 
ATOM     11  N   UNL     1       1.412   6.476   0.342  0.00  0.00    -0.193 NA
ATOM     12  C   UNL     1       3.472   7.178  -0.705  0.00  0.00    +0.110 A 
ATOM     13 CL   UNL     1       3.417   8.692   0.190  0.00  0.00    -0.078 Cl
ATOM     14  C   UNL     1       4.418   6.955  -1.696  0.00  0.00    +0.116 A 
ATOM     15  N   UNL     1       4.090   6.275  -2.815  0.00  0.00    -0.210 NA
BRANCH  11  16
ATOM     16  C   UNL     1       0.082   6.695  -0.139  0.00  0.00    +0.075 A 
ATOM     17  C   UNL     1      -0.858   7.173   0.765  0.00  0.00    +0.045 A 
ATOM     18  C   UNL     1      -2.177   7.308   0.355  0.00  0.00    +0.004 A 
ATOM     19  C   UNL     1      -2.529   6.967  -0.946  0.00  0.00    +0.000 A 
ATOM     20  C   UNL     1      -1.648   6.263  -1.754  0.00  0.00    +0.001 A 
ATOM     21  C   UNL     1      -0.406   5.984  -1.225  0.00  0.00    +0.017 A 
BRANCH  17  22
ATOM     22  P   UNL     1      -0.310   8.093   2.205  0.00  0.00    +0.137 P 
ATOM     23  O   UNL     1       0.721   7.251   2.937  0.00  0.00    -0.315 OA
ATOM     24  C   UNL     1      -1.736   8.365   3.306  0.00  0.00    +0.072 C 
ATOM     25  C   UNL     1       0.426   9.662   1.688  0.00  0.00    +0.072 C 
ENDBRANCH  17  22
ENDBRANCH  11  16
ENDBRANCH   2   7
BRANCH   5  26
ATOM     26  N   UNL     1       4.421   5.947  -9.209  0.00  0.00    -0.307 N 
ATOM     27  C   UNL     1       4.153   6.924 -10.234  0.00  0.00    +0.092 C 
ATOM     28  C   UNL     1       5.373   7.598 -10.768  0.00  0.00    +0.037 C 
ATOM     29  C   UNL     1       6.611   6.789 -10.780  0.00  0.00    +0.061 C 
ATOM     30  C   UNL     1       6.706   5.692  -9.786  0.00  0.00    +0.037 C 
ATOM     31  C   UNL     1       5.429   4.944  -9.543  0.00  0.00    +0.092 C 
BRANCH  29  32
ATOM     32  N   UNL     1       7.156   6.500 -12.071  0.00  0.00    -0.272 NA
ATOM     33  C   UNL     1       6.860   7.575 -12.981  0.00  0.00    +0.090 C 
ATOM     34  C   UNL     1       6.075   7.124 -14.189  0.00  0.00    +0.090 C 
ATOM     35  N   UNL     1       4.958   6.321 -13.735  0.00  0.00    -0.269 NA
ATOM     36  C   UNL     1       4.100   6.025 -14.876  0.00  0.00    +0.090 C 
ATOM     37  C   UNL     1       5.409   5.108 -13.093  0.00  0.00    +0.090 C 
ATOM     38  C   UNL     1       6.823   5.199 -12.582  0.00  0.00    +0.090 C 
ENDBRANCH  29  32
ENDBRANCH   5  26
BRANCH   1  40
ATOM     39  C   UNL     1      -0.108   5.525  -7.395  0.00  0.00    +0.253 C 
ATOM     40  O   UNL     1       0.746   5.290  -6.281  0.00  0.00    -0.470 OA
ENDBRANCH   1  40
TORSDOF 6
ENDMDL
MODEL 9
REMARK VINA RESULT:      -7.7      3.903     11.269
REMARK  Name = 
REMARK  6 active torsions:
REMARK  status: ('A' for Active; 'I' for Inactive)
REMARK    1  A    between atoms: O_2  and  C_3
REMARK    2  A    between atoms: C_5  and  N_6
REMARK    3  A    between atoms: C_9  and  N_10
REMARK    4  A    between atoms: C_21  and  N_22
REMARK    5  A    between atoms: N_29  and  C_30
REMARK    6  A    between atoms: C_35  and  P_36
REMARK                            x       y       z     vdW  Elec       q    Type
REMARK                         _______ _______ _______ _____ _____    ______ ____
ROOT
ATOM      1  C   UNL     1       3.357   7.254  -3.161  0.00  0.00    +0.155 A 
ATOM      2  C   UNL     1       2.803   5.982  -3.133  0.00  0.00    +0.107 A 
ATOM      3  C   UNL     1       2.359   5.417  -1.946  0.00  0.00    +0.021 A 
ATOM      4  C   UNL     1       2.379   6.193  -0.813  0.00  0.00    +0.016 A 
ATOM      5  C   UNL     1       2.742   7.534  -0.830  0.00  0.00    +0.051 A 
ATOM      6  C   UNL     1       3.254   8.024  -2.010  0.00  0.00    +0.053 A 
ENDROOT
BRANCH   2   7
ATOM      7  N   UNL     1       3.086   5.137  -4.251  0.00  0.00    -0.175 NA
ATOM      8  C   UNL     1       2.028   4.699  -5.108  0.00  0.00    +0.242 A 
ATOM      9  N   UNL     1       2.302   4.247  -6.340  0.00  0.00    -0.194 NA
ATOM     10  C   UNL     1       1.458   4.379  -7.382  0.00  0.00    +0.167 A 
ATOM     11  N   UNL     1       1.912   4.312  -8.737  0.00  0.00    -0.193 NA
ATOM     12  C   UNL     1       0.206   4.889  -7.129  0.00  0.00    +0.110 A 
ATOM     13 CL   UNL     1      -0.694   5.738  -8.381  0.00  0.00    -0.078 Cl
ATOM     14  C   UNL     1      -0.177   4.944  -5.796  0.00  0.00    +0.116 A 
ATOM     15  N   UNL     1       0.752   5.000  -4.819  0.00  0.00    -0.210 NA
BRANCH  11  16
ATOM     16  C   UNL     1       3.089   5.064  -9.053  0.00  0.00    +0.075 A 
ATOM     17  C   UNL     1       3.158   5.650 -10.310  0.00  0.00    +0.045 A 
ATOM     18  C   UNL     1       4.324   6.307 -10.682  0.00  0.00    +0.004 A 
ATOM     19  C   UNL     1       5.390   6.367  -9.793  0.00  0.00    +0.000 A 
ATOM     20  C   UNL     1       5.406   5.574  -8.654  0.00  0.00    +0.001 A 
ATOM     21  C   UNL     1       4.296   4.788  -8.429  0.00  0.00    +0.017 A 
BRANCH  17  22
ATOM     22  P   UNL     1       1.643   6.028 -11.194  0.00  0.00    +0.137 P 
ATOM     23  O   UNL     1       0.909   7.113 -10.426  0.00  0.00    -0.315 OA
ATOM     24  C   UNL     1       0.603   4.534 -11.242  0.00  0.00    +0.072 C 
ATOM     25  C   UNL     1       2.033   6.607 -12.862  0.00  0.00    +0.072 C 
ENDBRANCH  17  22
ENDBRANCH  11  16
ENDBRANCH   2   7
BRANCH   5  26
ATOM     26  N   UNL     1       3.032   8.220   0.392  0.00  0.00    -0.307 N 
ATOM     27  C   UNL     1       4.129   7.866   1.257  0.00  0.00    +0.092 C 
ATOM     28  C   UNL     1       5.158   8.937   1.405  0.00  0.00    +0.037 C 
ATOM     29  C   UNL     1       4.667  10.329   1.315  0.00  0.00    +0.061 C 
ATOM     30  C   UNL     1       3.425  10.553   0.535  0.00  0.00    +0.037 C 
ATOM     31  C   UNL     1       2.378   9.491   0.692  0.00  0.00    +0.092 C 
BRANCH  29  32
ATOM     32  N   UNL     1       4.802  11.117   2.500  0.00  0.00    -0.272 NA
ATOM     33  C   UNL     1       3.918  12.252   2.439  0.00  0.00    +0.090 C 
ATOM     34  C   UNL     1       4.646  13.570   2.543  0.00  0.00    +0.090 C 
ATOM     35  N   UNL     1       5.759  13.553   1.617  0.00  0.00    -0.269 NA
ATOM     36  C   UNL     1       6.363  14.880   1.586  0.00  0.00    +0.090 C 
ATOM     37  C   UNL     1       6.730  12.546   1.980  0.00  0.00    +0.090 C 
ATOM     38  C   UNL     1       6.156  11.454   2.842  0.00  0.00    +0.090 C 
ENDBRANCH  29  32
ENDBRANCH   5  26
BRANCH   1  40
ATOM     39  C   UNL     1       5.674   7.422  -3.746  0.00  0.00    +0.253 C 
ATOM     40  O   UNL     1       4.311   7.571  -4.131  0.00  0.00    -0.470 OA
ENDBRANCH   1  40
TORSDOF 6
ENDMDL
