MODEL 1
REMARK VINA RESULT:     -10.0      0.000      0.000
REMARK  Name = 
REMARK  3 active torsions:
REMARK  status: ('A' for Active; 'I' for Inactive)
REMARK    1  A    between atoms: C_7  and  C_8
REMARK    2  A    between atoms: N_10  and  C_11
REMARK    3  A    between atoms: C_14  and  C_15
REMARK                            x       y       z     vdW  Elec       q    Type
REMARK                         _______ _______ _______ _____ _____    ______ ____
ROOT
ATOM      1  C   UNL     1       3.551   4.551  -8.986  0.00  0.00    +0.073 A 
ATOM      2  C   UNL     1       4.080   5.149  -7.862  0.00  0.00    +0.012 A 
ATOM      3  C   UNL     1       3.287   5.924  -7.025  0.00  0.00    -0.016 A 
ATOM      4  C   UNL     1       3.926   6.532  -5.842  0.00  0.00    +0.031 C 
ATOM      5  C   UNL     1       1.917   5.925  -7.159  0.00  0.00    +0.050 A 
ATOM      6  C   UNL     1       1.390   4.968  -8.017  0.00  0.00    +0.006 A 
ATOM      7  C   UNL     1       2.169   4.452  -9.045  0.00  0.00    +0.017 A 
ENDROOT
BRANCH   5   8
ATOM      8  C   UNL     1       1.053   6.695  -6.296  0.00  0.00    +0.252 C 
ATOM      9  N   UNL     1      -0.093   6.156  -5.628  0.00  0.00    -0.255 N 
ATOM     10  C   UNL     1       0.021   6.211  -4.217  0.00  0.00    +0.053 A 
ATOM     11  C   UNL     1      -0.822   5.549  -3.341  0.00  0.00    +0.022 A 
ATOM     12  C   UNL     1      -0.511   5.527  -2.001  0.00  0.00    +0.011 A 
ATOM     13  C   UNL     1       0.778   5.830  -1.597  0.00  0.00    +0.058 A 
ATOM     14  C   UNL     1       1.666   6.319  -2.546  0.00  0.00    +0.013 A 
ATOM     15 CL   UNL     1       1.119   6.095   0.110  0.00  0.00    -0.082 Cl
ATOM     16  C   UNL     1      -2.429   5.962  -3.378  0.00  0.00    +0.176 C 
ATOM     17  O   UNL     1      -2.806   4.708  -2.537  0.00  0.00    -0.218 OA
ATOM     18  C   UNL     1      -2.656   5.108  -4.819  0.00  0.00    +0.039 C 
ATOM     19  C   UNL     1      -2.549   6.287  -5.780  0.00  0.00    +0.025 C 
ATOM     20  C   UNL     1       1.189   6.807  -3.758  0.00  0.00    +0.016 A 
ATOM     21  C   UNL     1      -1.249   6.151  -6.508  0.00  0.00    +0.099 C 
ATOM     22  O   UNL     1       1.061   7.959  -6.402  0.00  0.00    -0.270 OA
ENDBRANCH   5   8
BRANCH   1  24
ATOM     23  C   UNL     1       5.041   5.583 -10.641  0.00  0.00    +0.269 C 
ATOM     24  N   UNL     1       4.375   4.433 -10.151  0.00  0.00    -0.175 NA
ATOM     25  O   UNL     1       4.509   6.704 -10.505  0.00  0.00    -0.268 OA
BRANCH  23  28
ATOM     26  C   UNL     1       5.013   5.338 -13.417  0.00  0.00    +0.031 C 
ATOM     27  C   UNL     1       6.326   5.367 -12.701  0.00  0.00    -0.017 A 
ATOM     28  C   UNL     1       6.330   5.408 -11.316  0.00  0.00    +0.051 A 
ATOM     29  C   UNL     1       7.436   5.962 -10.685  0.00  0.00    +0.004 A 
ATOM     30  C   UNL     1       8.535   6.412 -11.405  0.00  0.00    +0.000 A 
ATOM     31  C   UNL     1       8.583   6.034 -12.739  0.00  0.00    -0.000 A 
ATOM     32  C   UNL     1       7.468   5.621 -13.435  0.00  0.00    -0.004 A 
ENDBRANCH  23  28
ENDBRANCH   1  24
TORSDOF 3
ENDMDL
MODEL 2
REMARK VINA RESULT:     -10.0      2.104      3.435
REMARK  Name = 
REMARK  3 active torsions:
REMARK  status: ('A' for Active; 'I' for Inactive)
REMARK    1  A    between atoms: C_7  and  C_8
REMARK    2  A    between atoms: N_10  and  C_11
REMARK    3  A    between atoms: C_14  and  C_15
REMARK                            x       y       z     vdW  Elec       q    Type
REMARK                         _______ _______ _______ _____ _____    ______ ____
ROOT
ATOM      1  C   UNL     1       3.902   6.375  -9.489  0.00  0.00    +0.073 A 
ATOM      2  C   UNL     1       2.537   6.307  -9.317  0.00  0.00    +0.012 A 
ATOM      3  C   UNL     1       1.985   5.650  -8.224  0.00  0.00    -0.016 A 
ATOM      4  C   UNL     1       0.515   5.619  -8.111  0.00  0.00    +0.031 C 
ATOM      5  C   UNL     1       2.777   5.256  -7.170  0.00  0.00    +0.050 A 
ATOM      6  C   UNL     1       4.081   5.735  -7.177  0.00  0.00    +0.006 A 
ATOM      7  C   UNL     1       4.682   6.093  -8.377  0.00  0.00    +0.017 A 
ENDROOT
BRANCH   5   8
ATOM      8  C   UNL     1       2.244   4.592  -6.003  0.00  0.00    +0.252 C 
ATOM      9  N   UNL     1       2.332   5.120  -4.675  0.00  0.00    -0.255 N 
ATOM     10  C   UNL     1       1.063   5.388  -4.108  0.00  0.00    +0.053 A 
ATOM     11  C   UNL     1       0.867   6.116  -2.947  0.00  0.00    +0.022 A 
ATOM     12  C   UNL     1      -0.413   6.468  -2.586  0.00  0.00    +0.011 A 
ATOM     13  C   UNL     1      -1.424   6.420  -3.531  0.00  0.00    +0.058 A 
ATOM     14  C   UNL     1      -1.142   5.848  -4.765  0.00  0.00    +0.013 A 
ATOM     15 CL   UNL     1      -3.102   6.576  -3.024  0.00  0.00    -0.082 Cl
ATOM     16  C   UNL     1       1.530   5.513  -1.551  0.00  0.00    +0.176 C 
ATOM     17  O   UNL     1       1.298   6.863  -0.815  0.00  0.00    -0.218 OA
ATOM     18  C   UNL     1       3.078   5.998  -2.029  0.00  0.00    +0.039 C 
ATOM     19  C   UNL     1       3.554   4.660  -2.585  0.00  0.00    +0.025 C 
ATOM     20  C   UNL     1      -0.012   5.054  -4.922  0.00  0.00    +0.016 A 
ATOM     21  C   UNL     1       3.614   4.792  -4.074  0.00  0.00    +0.099 C 
ATOM     22  O   UNL     1       2.016   3.347  -6.066  0.00  0.00    -0.270 OA
ENDBRANCH   5   8
BRANCH   1  24
ATOM     23  C   UNL     1       5.351   7.336 -11.222  0.00  0.00    +0.269 C 
ATOM     24  N   UNL     1       4.429   6.338 -10.820  0.00  0.00    -0.175 NA
ATOM     25  O   UNL     1       5.258   8.485 -10.742  0.00  0.00    -0.268 OA
BRANCH  23  28
ATOM     26  C   UNL     1       7.805   6.428 -10.266  0.00  0.00    +0.031 C 
ATOM     27  C   UNL     1       7.563   6.456 -11.742  0.00  0.00    -0.017 A 
ATOM     28  C   UNL     1       6.371   6.984 -12.212  0.00  0.00    +0.051 A 
ATOM     29  C   UNL     1       5.908   6.545 -13.445  0.00  0.00    +0.004 A 
ATOM     30  C   UNL     1       6.635   5.649 -14.219  0.00  0.00    +0.000 A 
ATOM     31  C   UNL     1       7.948   5.435 -13.827  0.00  0.00    -0.000 A 
ATOM     32  C   UNL     1       8.402   5.723 -12.559  0.00  0.00    -0.004 A 
ENDBRANCH  23  28
ENDBRANCH   1  24
TORSDOF 3
ENDMDL
MODEL 3
REMARK VINA RESULT:      -9.4      3.496      8.742
REMARK  Name = 
REMARK  3 active torsions:
REMARK  status: ('A' for Active; 'I' for Inactive)
REMARK    1  A    between atoms: C_7  and  C_8
REMARK    2  A    between atoms: N_10  and  C_11
REMARK    3  A    between atoms: C_14  and  C_15
REMARK                            x       y       z     vdW  Elec       q    Type
REMARK                         _______ _______ _______ _____ _____    ______ ____
ROOT
ATOM      1  C   UNL     1       0.928   6.130  -4.515  0.00  0.00    +0.073 A 
ATOM      2  C   UNL     1       1.596   6.912  -5.432  0.00  0.00    +0.012 A 
ATOM      3  C   UNL     1       2.063   6.374  -6.625  0.00  0.00    -0.016 A 
ATOM      4  C   UNL     1       2.769   7.274  -7.556  0.00  0.00    +0.031 C 
ATOM      5  C   UNL     1       1.671   5.117  -7.028  0.00  0.00    +0.050 A 
ATOM      6  C   UNL     1       0.648   4.534  -6.292  0.00  0.00    +0.006 A 
ATOM      7  C   UNL     1       0.434   4.919  -4.974  0.00  0.00    +0.017 A 
ENDROOT
BRANCH   5   8
ATOM      8  C   UNL     1       2.111   4.527  -8.270  0.00  0.00    +0.252 C 
ATOM      9  N   UNL     1       1.811   5.069  -9.561  0.00  0.00    -0.255 N 
ATOM     10  C   UNL     1       2.971   5.465 -10.272  0.00  0.00    +0.053 A 
ATOM     11  C   UNL     1       2.954   6.230 -11.425  0.00  0.00    +0.022 A 
ATOM     12  C   UNL     1       4.143   6.705 -11.929  0.00  0.00    +0.011 A 
ATOM     13  C   UNL     1       5.263   6.733 -11.117  0.00  0.00    +0.058 A 
ATOM     14  C   UNL     1       5.190   6.115  -9.876  0.00  0.00    +0.013 A 
ATOM     15 CL   UNL     1       6.845   7.054 -11.821  0.00  0.00    -0.082 Cl
ATOM     16  C   UNL     1       2.179   5.593 -12.747  0.00  0.00    +0.176 C 
ATOM     17  O   UNL     1       2.195   6.973 -13.465  0.00  0.00    -0.218 OA
ATOM     18  C   UNL     1       0.666   5.924 -12.068  0.00  0.00    +0.039 C 
ATOM     19  C   UNL     1       0.385   4.537 -11.499  0.00  0.00    +0.025 C 
ATOM     20  C   UNL     1       4.165   5.216  -9.606  0.00  0.00    +0.016 A 
ATOM     21  C   UNL     1       0.500   4.635 -10.010  0.00  0.00    +0.099 C 
ATOM     22  O   UNL     1       2.457   3.307  -8.273  0.00  0.00    -0.270 OA
ENDBRANCH   5   8
BRANCH   1  24
ATOM     23  C   UNL     1       2.353   6.069  -2.517  0.00  0.00    +0.269 C 
ATOM     24  N   UNL     1       1.114   6.399  -3.121  0.00  0.00    -0.175 NA
ATOM     25  O   UNL     1       2.996   5.084  -2.937  0.00  0.00    -0.268 OA
BRANCH  23  28
ATOM     26  C   UNL     1       4.208   8.069  -3.083  0.00  0.00    +0.031 C 
ATOM     27  C   UNL     1       3.684   7.935  -1.689  0.00  0.00    -0.017 A 
ATOM     28  C   UNL     1       2.823   6.888  -1.398  0.00  0.00    +0.051 A 
ATOM     29  C   UNL     1       1.942   7.049  -0.337  0.00  0.00    +0.004 A 
ATOM     30  C   UNL     1       1.950   8.193   0.451  0.00  0.00    +0.000 A 
ATOM     31  C   UNL     1       3.046   9.028   0.296  0.00  0.00    -0.000 A 
ATOM     32  C   UNL     1       3.856   8.994  -0.819  0.00  0.00    -0.004 A 
ENDBRANCH  23  28
ENDBRANCH   1  24
TORSDOF 3
ENDMDL
MODEL 4
REMARK VINA RESULT:      -9.4      2.565      4.205
REMARK  Name = 
REMARK  3 active torsions:
REMARK  status: ('A' for Active; 'I' for Inactive)
REMARK    1  A    between atoms: C_7  and  C_8
REMARK    2  A    between atoms: N_10  and  C_11
REMARK    3  A    between atoms: C_14  and  C_15
REMARK                            x       y       z     vdW  Elec       q    Type
REMARK                         _______ _______ _______ _____ _____    ______ ____
ROOT
ATOM      1  C   UNL     1       5.419   6.762 -10.723  0.00  0.00    +0.073 A 
ATOM      2  C   UNL     1       4.071   7.005 -10.571  0.00  0.00    +0.012 A 
ATOM      3  C   UNL     1       3.330   6.339  -9.603  0.00  0.00    -0.016 A 
ATOM      4  C   UNL     1       1.892   6.651  -9.503  0.00  0.00    +0.031 C 
ATOM      5  C   UNL     1       3.956   5.603  -8.624  0.00  0.00    +0.050 A 
ATOM      6  C   UNL     1       5.336   5.742  -8.547  0.00  0.00    +0.006 A 
ATOM      7  C   UNL     1       6.058   6.126  -9.670  0.00  0.00    +0.017 A 
ENDROOT
BRANCH   5   8
ATOM      8  C   UNL     1       3.228   4.914  -7.584  0.00  0.00    +0.252 C 
ATOM      9  N   UNL     1       3.246   5.302  -6.206  0.00  0.00    -0.255 N 
ATOM     10  C   UNL     1       1.970   5.688  -5.729  0.00  0.00    +0.053 A 
ATOM     11  C   UNL     1       1.750   6.327  -4.522  0.00  0.00    +0.022 A 
ATOM     12  C   UNL     1       0.494   6.815  -4.242  0.00  0.00    +0.011 A 
ATOM     13  C   UNL     1      -0.413   6.990  -5.273  0.00  0.00    +0.058 A 
ATOM     14  C   UNL     1      -0.081   6.500  -6.529  0.00  0.00    +0.013 A 
ATOM     15 CL   UNL     1      -2.101   7.326  -4.904  0.00  0.00    -0.082 Cl
ATOM     16  C   UNL     1       2.186   5.515  -3.142  0.00  0.00    +0.176 C 
ATOM     17  O   UNL     1       2.053   6.812  -2.294  0.00  0.00    -0.218 OA
ATOM     18  C   UNL     1       3.823   5.828  -3.428  0.00  0.00    +0.039 C 
ATOM     19  C   UNL     1       4.181   4.494  -4.074  0.00  0.00    +0.025 C 
ATOM     20  C   UNL     1       0.949   5.577  -6.666  0.00  0.00    +0.016 A 
ATOM     21  C   UNL     1       4.408   4.750  -5.530  0.00  0.00    +0.099 C 
ATOM     22  O   UNL     1       2.851   3.722  -7.796  0.00  0.00    -0.270 OA
ENDBRANCH   5   8
BRANCH   1  24
ATOM     23  C   UNL     1       5.578   5.838 -12.992  0.00  0.00    +0.269 C 
ATOM     24  N   UNL     1       5.980   6.808 -12.040  0.00  0.00    -0.175 NA
ATOM     25  O   UNL     1       5.275   4.690 -12.606  0.00  0.00    -0.268 OA
BRANCH  23  28
ATOM     26  C   UNL     1       3.086   6.170 -14.192  0.00  0.00    +0.031 C 
ATOM     27  C   UNL     1       4.320   6.461 -14.984  0.00  0.00    -0.017 A 
ATOM     28  C   UNL     1       5.556   6.217 -14.406  0.00  0.00    +0.051 A 
ATOM     29  C   UNL     1       6.644   6.947 -14.866  0.00  0.00    +0.004 A 
ATOM     30  C   UNL     1       6.522   7.856 -15.910  0.00  0.00    +0.000 A 
ATOM     31  C   UNL     1       5.341   7.793 -16.634  0.00  0.00    -0.000 A 
ATOM     32  C   UNL     1       4.197   7.204 -16.142  0.00  0.00    -0.004 A 
ENDBRANCH  23  28
ENDBRANCH   1  24
TORSDOF 3
ENDMDL
MODEL 5
REMARK VINA RESULT:      -9.4      3.200      4.939
REMARK  Name = 
REMARK  3 active torsions:
REMARK  status: ('A' for Active; 'I' for Inactive)
REMARK    1  A    between atoms: C_7  and  C_8
REMARK    2  A    between atoms: N_10  and  C_11
REMARK    3  A    between atoms: C_14  and  C_15
REMARK                            x       y       z     vdW  Elec       q    Type
REMARK                         _______ _______ _______ _____ _____    ______ ____
ROOT
ATOM      1  C   UNL     1       3.503   5.687  -6.049  0.00  0.00    +0.073 A 
ATOM      2  C   UNL     1       2.231   5.546  -5.535  0.00  0.00    +0.012 A 
ATOM      3  C   UNL     1       2.023   5.416  -4.168  0.00  0.00    -0.016 A 
ATOM      4  C   UNL     1       0.634   5.268  -3.694  0.00  0.00    +0.031 C 
ATOM      5  C   UNL     1       3.044   5.660  -3.277  0.00  0.00    +0.050 A 
ATOM      6  C   UNL     1       4.193   6.230  -3.809  0.00  0.00    +0.006 A 
ATOM      7  C   UNL     1       4.496   6.053  -5.154  0.00  0.00    +0.017 A 
ENDROOT
BRANCH   5   8
ATOM      8  C   UNL     1       2.867   5.561  -1.847  0.00  0.00    +0.252 C 
ATOM      9  N   UNL     1       3.114   6.638  -0.937  0.00  0.00    -0.255 N 
ATOM     10  C   UNL     1       1.949   7.044  -0.241  0.00  0.00    +0.053 A 
ATOM     11  C   UNL     1       1.854   8.203   0.509  0.00  0.00    +0.022 A 
ATOM     12  C   UNL     1       0.625   8.589   0.992  0.00  0.00    +0.011 A 
ATOM     13  C   UNL     1      -0.523   8.046   0.441  0.00  0.00    +0.058 A 
ATOM     14  C   UNL     1      -0.387   6.999  -0.461  0.00  0.00    +0.013 A 
ATOM     15 CL   UNL     1      -2.075   8.297   1.233  0.00  0.00    -0.082 Cl
ATOM     16  C   UNL     1       2.866   8.346   1.816  0.00  0.00    +0.176 C 
ATOM     17  O   UNL     1       2.548   9.864   1.941  0.00  0.00    -0.218 OA
ATOM     18  C   UNL     1       4.185   8.670   0.809  0.00  0.00    +0.039 C 
ATOM     19  C   UNL     1       4.773   7.263   0.775  0.00  0.00    +0.025 C 
ATOM     20  C   UNL     1       0.813   6.302  -0.541  0.00  0.00    +0.016 A 
ATOM     21  C   UNL     1       4.523   6.709  -0.592  0.00  0.00    +0.099 C 
ATOM     22  O   UNL     1       2.851   4.409  -1.316  0.00  0.00    -0.270 OA
ENDBRANCH   5   8
BRANCH   1  24
ATOM     23  C   UNL     1       4.065   5.938  -8.425  0.00  0.00    +0.269 C 
ATOM     24  N   UNL     1       3.799   5.095  -7.318  0.00  0.00    -0.175 NA
ATOM     25  O   UNL     1       3.497   7.047  -8.500  0.00  0.00    -0.268 OA
BRANCH  23  28
ATOM     26  C   UNL     1       3.070   5.693 -11.016  0.00  0.00    +0.031 C 
ATOM     27  C   UNL     1       4.517   5.416 -10.762  0.00  0.00    -0.017 A 
ATOM     28  C   UNL     1       4.986   5.461  -9.459  0.00  0.00    +0.051 A 
ATOM     29  C   UNL     1       6.332   5.742  -9.262  0.00  0.00    +0.004 A 
ATOM     30  C   UNL     1       7.203   5.918 -10.330  0.00  0.00    +0.000 A 
ATOM     31  C   UNL     1       6.724   5.533 -11.574  0.00  0.00    -0.000 A 
ATOM     32  C   UNL     1       5.380   5.390 -11.841  0.00  0.00    -0.004 A 
ENDBRANCH  23  28
ENDBRANCH   1  24
TORSDOF 3
ENDMDL
MODEL 6
REMARK VINA RESULT:      -9.3      3.172      9.312
REMARK  Name = 
REMARK  3 active torsions:
REMARK  status: ('A' for Active; 'I' for Inactive)
REMARK    1  A    between atoms: C_7  and  C_8
REMARK    2  A    between atoms: N_10  and  C_11
REMARK    3  A    between atoms: C_14  and  C_15
REMARK                            x       y       z     vdW  Elec       q    Type
REMARK                         _______ _______ _______ _____ _____    ______ ____
ROOT
ATOM      1  C   UNL     1      -0.336   6.712  -4.926  0.00  0.00    +0.073 A 
ATOM      2  C   UNL     1       1.015   6.896  -5.131  0.00  0.00    +0.012 A 
ATOM      3  C   UNL     1       1.683   6.220  -6.145  0.00  0.00    -0.016 A 
ATOM      4  C   UNL     1       3.129   6.469  -6.301  0.00  0.00    +0.031 C 
ATOM      5  C   UNL     1       0.982   5.538  -7.113  0.00  0.00    +0.050 A 
ATOM      6  C   UNL     1      -0.392   5.742  -7.127  0.00  0.00    +0.006 A 
ATOM      7  C   UNL     1      -1.047   6.132  -5.965  0.00  0.00    +0.017 A 
ENDROOT
BRANCH   5   8
ATOM      8  C   UNL     1       1.632   4.842  -8.198  0.00  0.00    +0.252 C 
ATOM      9  N   UNL     1       1.476   5.192  -9.578  0.00  0.00    -0.255 N 
ATOM     10  C   UNL     1       2.691   5.601 -10.180  0.00  0.00    +0.053 A 
ATOM     11  C   UNL     1       2.779   6.213 -11.418  0.00  0.00    +0.022 A 
ATOM     12  C   UNL     1       3.989   6.729 -11.824  0.00  0.00    +0.011 A 
ATOM     13  C   UNL     1       4.981   6.956 -10.886  0.00  0.00    +0.058 A 
ATOM     14  C   UNL     1       4.781   6.492  -9.593  0.00  0.00    +0.013 A 
ATOM     15 CL   UNL     1       6.617   7.330 -11.417  0.00  0.00    -0.082 Cl
ATOM     16  C   UNL     1       2.244   5.352 -12.731  0.00  0.00    +0.176 C 
ATOM     17  O   UNL     1       2.259   6.629 -13.619  0.00  0.00    -0.218 OA
ATOM     18  C   UNL     1       0.631   5.626 -12.302  0.00  0.00    +0.039 C 
ATOM     19  C   UNL     1       0.375   4.301 -11.594  0.00  0.00    +0.025 C 
ATOM     20  C   UNL     1       3.796   5.544  -9.339  0.00  0.00    +0.016 A 
ATOM     21  C   UNL     1       0.275   4.590 -10.130  0.00  0.00    +0.099 C 
ATOM     22  O   UNL     1       2.063   3.667  -7.994  0.00  0.00    -0.270 OA
ENDBRANCH   5   8
BRANCH   1  24
ATOM     23  C   UNL     1      -0.376   5.791  -2.652  0.00  0.00    +0.269 C 
ATOM     24  N   UNL     1      -0.837   6.751  -3.586  0.00  0.00    -0.175 NA
ATOM     25  O   UNL     1      -0.071   4.647  -3.049  0.00  0.00    -0.268 OA
BRANCH  23  28
ATOM     26  C   UNL     1       2.136   6.443  -1.638  0.00  0.00    +0.031 C 
ATOM     27  C   UNL     1       0.937   6.576  -0.754  0.00  0.00    -0.017 A 
ATOM     28  C   UNL     1      -0.297   6.173  -1.240  0.00  0.00    +0.051 A 
ATOM     29  C   UNL     1      -1.432   6.759  -0.696  0.00  0.00    +0.004 A 
ATOM     30  C   UNL     1      -1.351   7.679   0.342  0.00  0.00    +0.000 A 
ATOM     31  C   UNL     1      -0.121   7.770   0.976  0.00  0.00    -0.000 A 
ATOM     32  C   UNL     1       1.049   7.331   0.397  0.00  0.00    -0.004 A 
ENDBRANCH  23  28
ENDBRANCH   1  24
TORSDOF 3
ENDMDL
MODEL 7
REMARK VINA RESULT:      -9.2      3.338      9.811
REMARK  Name = 
REMARK  3 active torsions:
REMARK  status: ('A' for Active; 'I' for Inactive)
REMARK    1  A    between atoms: C_7  and  C_8
REMARK    2  A    between atoms: N_10  and  C_11
REMARK    3  A    between atoms: C_14  and  C_15
REMARK                            x       y       z     vdW  Elec       q    Type
REMARK                         _______ _______ _______ _____ _____    ______ ____
ROOT
ATOM      1  C   UNL     1       1.409   4.735  -5.444  0.00  0.00    +0.073 A 
ATOM      2  C   UNL     1       0.572   4.870  -6.530  0.00  0.00    +0.012 A 
ATOM      3  C   UNL     1       0.955   5.615  -7.639  0.00  0.00    -0.016 A 
ATOM      4  C   UNL     1       0.003   5.715  -8.762  0.00  0.00    +0.031 C 
ATOM      5  C   UNL     1       2.257   6.036  -7.785  0.00  0.00    +0.050 A 
ATOM      6  C   UNL     1       3.173   5.504  -6.887  0.00  0.00    +0.006 A 
ATOM      7  C   UNL     1       2.744   5.049  -5.646  0.00  0.00    +0.017 A 
ENDROOT
BRANCH   5   8
ATOM      8  C   UNL     1       2.705   6.791  -8.932  0.00  0.00    +0.252 C 
ATOM      9  N   UNL     1       3.609   6.281  -9.918  0.00  0.00    -0.255 N 
ATOM     10  C   UNL     1       3.027   6.205 -11.207  0.00  0.00    +0.053 A 
ATOM     11  C   UNL     1       3.591   5.534 -12.278  0.00  0.00    +0.022 A 
ATOM     12  C   UNL     1       2.855   5.374 -13.429  0.00  0.00    +0.011 A 
ATOM     13  C   UNL     1       1.483   5.547 -13.389  0.00  0.00    +0.058 A 
ATOM     14  C   UNL     1       0.919   6.049 -12.224  0.00  0.00    +0.013 A 
ATOM     15 CL   UNL     1       0.569   5.639 -14.891  0.00  0.00    -0.082 Cl
ATOM     16  C   UNL     1       5.070   6.064 -12.812  0.00  0.00    +0.176 C 
ATOM     17  O   UNL     1       5.266   4.774 -13.658  0.00  0.00    -0.218 OA
ATOM     18  C   UNL     1       5.847   5.356 -11.488  0.00  0.00    +0.039 C 
ATOM     19  C   UNL     1       5.951   6.602 -10.615  0.00  0.00    +0.025 C 
ATOM     20  C   UNL     1       1.721   6.673 -11.275  0.00  0.00    +0.016 A 
ATOM     21  C   UNL     1       4.987   6.436  -9.483  0.00  0.00    +0.099 C 
ATOM     22  O   UNL     1       2.610   8.055  -8.901  0.00  0.00    -0.270 OA
ENDBRANCH   5   8
BRANCH   1  24
ATOM     23  C   UNL     1       0.404   5.869  -3.512  0.00  0.00    +0.269 C 
ATOM     24  N   UNL     1       0.829   4.670  -4.136  0.00  0.00    -0.175 NA
ATOM     25  O   UNL     1       1.017   6.932  -3.747  0.00  0.00    -0.268 OA
BRANCH  23  28
ATOM     26  C   UNL     1       0.968   5.781  -0.785  0.00  0.00    +0.031 C 
ATOM     27  C   UNL     1      -0.458   5.849  -1.233  0.00  0.00    -0.017 A 
ATOM     28  C   UNL     1      -0.732   5.811  -2.591  0.00  0.00    +0.051 A 
ATOM     29  C   UNL     1      -1.913   6.394  -3.031  0.00  0.00    +0.004 A 
ATOM     30  C   UNL     1      -2.826   6.950  -2.144  0.00  0.00    +0.000 A 
ATOM     31  C   UNL     1      -2.628   6.652  -0.803  0.00  0.00    -0.000 A 
ATOM     32  C   UNL     1      -1.419   6.212  -0.310  0.00  0.00    -0.004 A 
ENDBRANCH  23  28
ENDBRANCH   1  24
TORSDOF 3
ENDMDL
MODEL 8
REMARK VINA RESULT:      -9.2      3.357      5.532
REMARK  Name = 
REMARK  3 active torsions:
REMARK  status: ('A' for Active; 'I' for Inactive)
REMARK    1  A    between atoms: C_7  and  C_8
REMARK    2  A    between atoms: N_10  and  C_11
REMARK    3  A    between atoms: C_14  and  C_15
REMARK                            x       y       z     vdW  Elec       q    Type
REMARK                         _______ _______ _______ _____ _____    ______ ____
ROOT
ATOM      1  C   UNL     1       1.482   6.732  -5.928  0.00  0.00    +0.073 A 
ATOM      2  C   UNL     1       0.298   6.732  -5.224  0.00  0.00    +0.012 A 
ATOM      3  C   UNL     1       0.274   6.452  -3.863  0.00  0.00    -0.016 A 
ATOM      4  C   UNL     1      -1.032   6.470  -3.179  0.00  0.00    +0.031 C 
ATOM      5  C   UNL     1       1.443   6.401  -3.138  0.00  0.00    +0.050 A 
ATOM      6  C   UNL     1       2.586   6.842  -3.793  0.00  0.00    +0.006 A 
ATOM      7  C   UNL     1       2.648   6.804  -5.181  0.00  0.00    +0.017 A 
ENDROOT
BRANCH   5   8
ATOM      8  C   UNL     1       1.466   6.137  -1.718  0.00  0.00    +0.252 C 
ATOM      9  N   UNL     1       2.042   7.023  -0.752  0.00  0.00    -0.255 N 
ATOM     10  C   UNL     1       1.090   7.518   0.172  0.00  0.00    +0.053 A 
ATOM     11  C   UNL     1       1.326   8.563   1.049  0.00  0.00    +0.022 A 
ATOM     12  C   UNL     1       0.276   9.078   1.774  0.00  0.00    +0.011 A 
ATOM     13  C   UNL     1      -1.022   8.816   1.371  0.00  0.00    +0.058 A 
ATOM     14  C   UNL     1      -1.219   7.895   0.351  0.00  0.00    +0.013 A 
ATOM     15 CL   UNL     1      -2.364   9.211   2.439  0.00  0.00    -0.082 Cl
ATOM     16  C   UNL     1       2.530   8.354   2.172  0.00  0.00    +0.176 C 
ATOM     17  O   UNL     1       2.523   9.871   2.513  0.00  0.00    -0.218 OA
ATOM     18  C   UNL     1       3.722   8.588   0.995  0.00  0.00    +0.039 C 
ATOM     19  C   UNL     1       4.024   7.121   0.709  0.00  0.00    +0.025 C 
ATOM     20  C   UNL     1      -0.196   7.024  -0.007  0.00  0.00    +0.016 A 
ATOM     21  C   UNL     1       3.475   6.810  -0.647  0.00  0.00    +0.099 C 
ATOM     22  O   UNL     1       1.314   4.943  -1.321  0.00  0.00    -0.270 OA
ENDBRANCH   5   8
BRANCH   1  24
ATOM     23  C   UNL     1       2.097   7.071  -8.280  0.00  0.00    +0.269 C 
ATOM     24  N   UNL     1       1.473   6.278  -7.285  0.00  0.00    -0.175 NA
ATOM     25  O   UNL     1       2.104   8.314  -8.157  0.00  0.00    -0.268 OA
BRANCH  23  28
ATOM     26  C   UNL     1       0.471   6.647 -10.502  0.00  0.00    +0.031 C 
ATOM     27  C   UNL     1       1.914   6.258 -10.570  0.00  0.00    -0.017 A 
ATOM     28  C   UNL     1       2.696   6.398  -9.434  0.00  0.00    +0.051 A 
ATOM     29  C   UNL     1       4.064   6.565  -9.604  0.00  0.00    +0.004 A 
ATOM     30  C   UNL     1       4.650   6.539 -10.863  0.00  0.00    +0.000 A 
ATOM     31  C   UNL     1       3.850   6.071 -11.895  0.00  0.00    -0.000 A 
ATOM     32  C   UNL     1       2.476   6.032 -11.811  0.00  0.00    -0.004 A 
ENDBRANCH  23  28
ENDBRANCH   1  24
TORSDOF 3
ENDMDL
MODEL 9
REMARK VINA RESULT:      -9.2      3.264      5.593
REMARK  Name = 
REMARK  3 active torsions:
REMARK  status: ('A' for Active; 'I' for Inactive)
REMARK    1  A    between atoms: C_7  and  C_8
REMARK    2  A    between atoms: N_10  and  C_11
REMARK    3  A    between atoms: C_14  and  C_15
REMARK                            x       y       z     vdW  Elec       q    Type
REMARK                         _______ _______ _______ _____ _____    ______ ____
ROOT
ATOM      1  C   UNL     1       3.070   6.929  -6.499  0.00  0.00    +0.073 A 
ATOM      2  C   UNL     1       1.876   6.828  -5.819  0.00  0.00    +0.012 A 
ATOM      3  C   UNL     1       1.842   6.431  -4.488  0.00  0.00    -0.016 A 
ATOM      4  C   UNL     1       0.525   6.345  -3.830  0.00  0.00    +0.031 C 
ATOM      5  C   UNL     1       3.000   6.357  -3.749  0.00  0.00    +0.050 A 
ATOM      6  C   UNL     1       4.136   6.892  -4.343  0.00  0.00    +0.006 A 
ATOM      7  C   UNL     1       4.221   6.976  -5.727  0.00  0.00    +0.017 A 
ENDROOT
BRANCH   5   8
ATOM      8  C   UNL     1       3.010   5.972  -2.357  0.00  0.00    +0.252 C 
ATOM      9  N   UNL     1       3.109   6.903  -1.273  0.00  0.00    -0.255 N 
ATOM     10  C   UNL     1       1.968   6.890  -0.436  0.00  0.00    +0.053 A 
ATOM     11  C   UNL     1       1.700   7.845   0.530  0.00  0.00    +0.022 A 
ATOM     12  C   UNL     1       0.477   7.834   1.161  0.00  0.00    +0.011 A 
ATOM     13  C   UNL     1      -0.574   7.135   0.593  0.00  0.00    +0.058 A 
ATOM     14  C   UNL     1      -0.308   6.324  -0.502  0.00  0.00    +0.013 A 
ATOM     15 CL   UNL     1      -2.046   6.863   1.522  0.00  0.00    -0.082 Cl
ATOM     16  C   UNL     1       2.793   7.999   1.769  0.00  0.00    +0.176 C 
ATOM     17  O   UNL     1       2.159   9.350   2.208  0.00  0.00    -0.218 OA
ATOM     18  C   UNL     1       3.886   8.800   0.758  0.00  0.00    +0.039 C 
ATOM     19  C   UNL     1       4.766   7.603   0.411  0.00  0.00    +0.025 C 
ATOM     20  C   UNL     1       1.001   5.960  -0.796  0.00  0.00    +0.016 A 
ATOM     21  C   UNL     1       4.496   7.251  -1.017  0.00  0.00    +0.099 C 
ATOM     22  O   UNL     1       3.311   4.777  -2.060  0.00  0.00    -0.270 OA
ENDBRANCH   5   8
BRANCH   1  24
ATOM     23  C   UNL     1       2.656   5.312  -8.298  0.00  0.00    +0.269 C 
ATOM     24  N   UNL     1       3.098   6.594  -7.891  0.00  0.00    -0.175 NA
ATOM     25  O   UNL     1       2.820   4.336  -7.535  0.00  0.00    -0.268 OA
BRANCH  23  28
ATOM     26  C   UNL     1      -0.123   5.460  -8.436  0.00  0.00    +0.031 C 
ATOM     27  C   UNL     1       0.663   5.327  -9.701  0.00  0.00    -0.017 A 
ATOM     28  C   UNL     1       2.038   5.173  -9.618  0.00  0.00    +0.051 A 
ATOM     29  C   UNL     1       2.803   5.580 -10.703  0.00  0.00    +0.004 A 
ATOM     30  C   UNL     1       2.219   6.075 -11.862  0.00  0.00    +0.000 A 
ATOM     31  C   UNL     1       0.850   5.887 -11.979  0.00  0.00    -0.000 A 
ATOM     32  C   UNL     1       0.039   5.628 -10.896  0.00  0.00    -0.004 A 
ENDBRANCH  23  28
ENDBRANCH   1  24
TORSDOF 3
ENDMDL
