MODEL 1
REMARK VINA RESULT:      -5.7      0.000      0.000
REMARK  Name = 
REMARK  4 active torsions:
REMARK  status: ('A' for Active; 'I' for Inactive)
REMARK    1  A    between atoms: C_2  and  N_4
REMARK    2  A    between atoms: N_4  and  C_5
REMARK    3  A    between atoms: C_5  and  C_6
REMARK    4  A    between atoms: C_6  and  C_8
REMARK                            x       y       z     vdW  Elec       q    Type
REMARK                         _______ _______ _______ _____ _____    ______ ____
ROOT
ATOM      1  C   UNL     1       1.178   5.627  -5.793  0.00  0.00    +0.015 A 
ATOM      2  C   UNL     1       1.623   6.850  -6.159  0.00  0.00    +0.040 A 
ATOM      3  C   UNL     1       1.773   7.072  -7.521  0.00  0.00    +0.199 A 
ATOM      4  O   UNL     1       2.146   8.368  -7.892  0.00  0.00    -0.286 OA
ATOM      5  C   UNL     1       2.231   5.977  -8.242  0.00  0.00    +0.084 A 
ATOM      6  C   UNL     1       2.002   4.684  -7.790  0.00  0.00    +0.199 A 
ATOM      7  O   UNL     1       2.691   3.621  -8.385  0.00  0.00    -0.286 OA
ATOM      8  C   UNL     1       1.431   4.479  -6.539  0.00  0.00    +0.040 A 
ENDROOT
BRANCH   1   9
ATOM      9  C   UNL     1       1.167   5.327  -4.170  0.00  0.00    +0.192 C 
ATOM     10  O   UNL     1       2.225   6.425  -3.874  0.00  0.00    -0.217 OA
BRANCH   9  11
ATOM     11  C   UNL     1      -0.105   6.405  -3.907  0.00  0.00    +0.126 C 
BRANCH  11  12
ATOM     12  N   UNL     1      -1.223   5.563  -4.239  0.00  0.00    -0.216 NA
BRANCH  12  14
ATOM     13  C   UNL     1      -2.100   7.778  -4.781  0.00  0.00    +0.019 C 
ATOM     14  C   UNL     1      -2.340   6.317  -4.796  0.00  0.00    +0.073 C 
ATOM     15  C   UNL     1      -2.411   5.849  -6.246  0.00  0.00    +0.019 C 
ENDBRANCH  12  14
ENDBRANCH  11  12
ENDBRANCH   9  11
ENDBRANCH   1   9
TORSDOF 4
ENDMDL
MODEL 2
REMARK VINA RESULT:      -5.6      0.690      2.259
REMARK  Name = 
REMARK  4 active torsions:
REMARK  status: ('A' for Active; 'I' for Inactive)
REMARK    1  A    between atoms: C_2  and  N_4
REMARK    2  A    between atoms: N_4  and  C_5
REMARK    3  A    between atoms: C_5  and  C_6
REMARK    4  A    between atoms: C_6  and  C_8
REMARK                            x       y       z     vdW  Elec       q    Type
REMARK                         _______ _______ _______ _____ _____    ______ ____
ROOT
ATOM      1  C   UNL     1       2.306   5.615  -5.540  0.00  0.00    +0.015 A 
ATOM      2  C   UNL     1       2.139   4.567  -6.378  0.00  0.00    +0.040 A 
ATOM      3  C   UNL     1       2.665   4.707  -7.654  0.00  0.00    +0.199 A 
ATOM      4  O   UNL     1       2.568   3.583  -8.482  0.00  0.00    -0.286 OA
ATOM      5  C   UNL     1       2.561   5.984  -8.190  0.00  0.00    +0.084 A 
ATOM      6  C   UNL     1       2.493   7.096  -7.363  0.00  0.00    +0.199 A 
ATOM      7  O   UNL     1       2.128   8.332  -7.908  0.00  0.00    -0.286 OA
ATOM      8  C   UNL     1       2.391   6.931  -5.986  0.00  0.00    +0.040 A 
ENDROOT
BRANCH   1   9
ATOM      9  C   UNL     1       1.530   5.498  -4.087  0.00  0.00    +0.192 C 
ATOM     10  O   UNL     1       2.252   6.745  -3.506  0.00  0.00    -0.217 OA
BRANCH   9  11
ATOM     11  C   UNL     1       0.231   6.432  -4.624  0.00  0.00    +0.126 C 
BRANCH  11  12
ATOM     12  N   UNL     1      -0.855   5.523  -4.371  0.00  0.00    -0.216 NA
BRANCH  12  14
ATOM     13  C   UNL     1      -2.451   7.195  -5.162  0.00  0.00    +0.019 C 
ATOM     14  C   UNL     1      -2.007   5.784  -5.226  0.00  0.00    +0.073 C 
ATOM     15  C   UNL     1      -1.492   5.499  -6.633  0.00  0.00    +0.019 C 
ENDBRANCH  12  14
ENDBRANCH  11  12
ENDBRANCH   9  11
ENDBRANCH   1   9
TORSDOF 4
ENDMDL
MODEL 3
REMARK VINA RESULT:      -5.6      4.581      7.327
REMARK  Name = 
REMARK  4 active torsions:
REMARK  status: ('A' for Active; 'I' for Inactive)
REMARK    1  A    between atoms: C_2  and  N_4
REMARK    2  A    between atoms: N_4  and  C_5
REMARK    3  A    between atoms: C_5  and  C_6
REMARK    4  A    between atoms: C_6  and  C_8
REMARK                            x       y       z     vdW  Elec       q    Type
REMARK                         _______ _______ _______ _____ _____    ______ ____
ROOT
ATOM      1  C   UNL     1       3.938   5.726  -9.458  0.00  0.00    +0.015 A 
ATOM      2  C   UNL     1       3.236   6.871  -9.304  0.00  0.00    +0.040 A 
ATOM      3  C   UNL     1       2.781   7.149  -8.023  0.00  0.00    +0.199 A 
ATOM      4  O   UNL     1       2.137   8.380  -7.858  0.00  0.00    -0.286 OA
ATOM      5  C   UNL     1       2.370   6.039  -7.297  0.00  0.00    +0.084 A 
ATOM      6  C   UNL     1       2.892   4.782  -7.569  0.00  0.00    +0.199 A 
ATOM      7  O   UNL     1       2.280   3.653  -7.013  0.00  0.00    -0.286 OA
ATOM      8  C   UNL     1       3.730   4.601  -8.664  0.00  0.00    +0.040 A 
ENDROOT
BRANCH   1   9
ATOM      9  C   UNL     1       4.326   5.329 -11.013  0.00  0.00    +0.192 C 
ATOM     10  O   UNL     1       3.163   6.171 -11.607  0.00  0.00    -0.217 OA
BRANCH   9  11
ATOM     11  C   UNL     1       5.404   6.620 -11.150  0.00  0.00    +0.126 C 
BRANCH  11  12
ATOM     12  N   UNL     1       6.366   6.051 -12.054  0.00  0.00    -0.216 NA
BRANCH  12  14
ATOM     13  C   UNL     1       8.794   5.825 -12.206  0.00  0.00    +0.019 C 
ATOM     14  C   UNL     1       7.586   5.629 -11.374  0.00  0.00    +0.073 C 
ATOM     15  C   UNL     1       7.670   6.556 -10.166  0.00  0.00    +0.019 C 
ENDBRANCH  12  14
ENDBRANCH  11  12
ENDBRANCH   9  11
ENDBRANCH   1   9
TORSDOF 4
ENDMDL
MODEL 4
REMARK VINA RESULT:      -5.6      4.374      7.298
REMARK  Name = 
REMARK  4 active torsions:
REMARK  status: ('A' for Active; 'I' for Inactive)
REMARK    1  A    between atoms: C_2  and  N_4
REMARK    2  A    between atoms: N_4  and  C_5
REMARK    3  A    between atoms: C_5  and  C_6
REMARK    4  A    between atoms: C_6  and  C_8
REMARK                            x       y       z     vdW  Elec       q    Type
REMARK                         _______ _______ _______ _____ _____    ______ ____
ROOT
ATOM      1  C   UNL     1       3.725   5.567  -9.046  0.00  0.00    +0.015 A 
ATOM      2  C   UNL     1       4.501   5.296  -7.973  0.00  0.00    +0.040 A 
ATOM      3  C   UNL     1       3.975   5.625  -6.732  0.00  0.00    +0.199 A 
ATOM      4  O   UNL     1       4.747   5.257  -5.624  0.00  0.00    -0.286 OA
ATOM      5  C   UNL     1       3.228   6.795  -6.707  0.00  0.00    +0.084 A 
ATOM      6  C   UNL     1       2.590   7.252  -7.852  0.00  0.00    +0.199 A 
ATOM      7  O   UNL     1       2.069   8.551  -7.872  0.00  0.00    -0.286 OA
ATOM      8  C   UNL     1       2.808   6.614  -9.069  0.00  0.00    +0.040 A 
ENDROOT
BRANCH   1   9
ATOM      9  C   UNL     1       4.431   5.325 -10.519  0.00  0.00    +0.192 C 
ATOM     10  O   UNL     1       3.123   5.643 -11.293  0.00  0.00    -0.217 OA
BRANCH   9  11
ATOM     11  C   UNL     1       4.944   6.930 -10.616  0.00  0.00    +0.126 C 
BRANCH  11  12
ATOM     12  N   UNL     1       6.053   6.786 -11.520  0.00  0.00    -0.216 NA
BRANCH  12  14
ATOM     13  C   UNL     1       8.007   5.447 -12.119  0.00  0.00    +0.019 C 
ATOM     14  C   UNL     1       6.996   5.763 -11.084  0.00  0.00    +0.073 C 
ATOM     15  C   UNL     1       7.703   6.401  -9.892  0.00  0.00    +0.019 C 
ENDBRANCH  12  14
ENDBRANCH  11  12
ENDBRANCH   9  11
ENDBRANCH   1   9
TORSDOF 4
ENDMDL
MODEL 5
REMARK VINA RESULT:      -5.5      3.117      5.396
REMARK  Name = 
REMARK  4 active torsions:
REMARK  status: ('A' for Active; 'I' for Inactive)
REMARK    1  A    between atoms: C_2  and  N_4
REMARK    2  A    between atoms: N_4  and  C_5
REMARK    3  A    between atoms: C_5  and  C_6
REMARK    4  A    between atoms: C_6  and  C_8
REMARK                            x       y       z     vdW  Elec       q    Type
REMARK                         _______ _______ _______ _____ _____    ______ ____
ROOT
ATOM      1  C   UNL     1      -0.069   5.820  -4.219  0.00  0.00    +0.015 A 
ATOM      2  C   UNL     1      -0.715   5.679  -5.398  0.00  0.00    +0.040 A 
ATOM      3  C   UNL     1      -2.073   5.966  -5.396  0.00  0.00    +0.199 A 
ATOM      4  O   UNL     1      -2.712   5.905  -6.640  0.00  0.00    -0.286 OA
ATOM      5  C   UNL     1      -2.747   5.588  -4.242  0.00  0.00    +0.084 A 
ATOM      6  C   UNL     1      -2.077   5.491  -3.030  0.00  0.00    +0.199 A 
ATOM      7  O   UNL     1      -2.707   4.863  -1.950  0.00  0.00    -0.286 OA
ATOM      8  C   UNL     1      -0.695   5.637  -2.989  0.00  0.00    +0.040 A 
ENDROOT
BRANCH   1   9
ATOM      9  C   UNL     1       1.503   5.315  -4.201  0.00  0.00    +0.192 C 
ATOM     10  O   UNL     1       1.351   4.518  -5.526  0.00  0.00    -0.217 OA
BRANCH   9  11
ATOM     11  C   UNL     1       2.030   6.690  -5.025  0.00  0.00    +0.126 C 
BRANCH  11  12
ATOM     12  N   UNL     1       3.391   6.315  -5.298  0.00  0.00    -0.216 NA
BRANCH  12  14
ATOM     13  C   UNL     1       5.003   5.068  -3.950  0.00  0.00    +0.019 C 
ATOM     14  C   UNL     1       4.219   6.316  -4.097  0.00  0.00    +0.073 C 
ATOM     15  C   UNL     1       5.184   7.475  -4.318  0.00  0.00    +0.019 C 
ENDBRANCH  12  14
ENDBRANCH  11  12
ENDBRANCH   9  11
ENDBRANCH   1   9
TORSDOF 4
ENDMDL
MODEL 6
REMARK VINA RESULT:      -5.5      2.660      5.018
REMARK  Name = 
REMARK  4 active torsions:
REMARK  status: ('A' for Active; 'I' for Inactive)
REMARK    1  A    between atoms: C_2  and  N_4
REMARK    2  A    between atoms: N_4  and  C_5
REMARK    3  A    between atoms: C_5  and  C_6
REMARK    4  A    between atoms: C_6  and  C_8
REMARK                            x       y       z     vdW  Elec       q    Type
REMARK                         _______ _______ _______ _____ _____    ______ ____
ROOT
ATOM      1  C   UNL     1      -0.001   5.689  -4.533  0.00  0.00    +0.015 A 
ATOM      2  C   UNL     1      -0.751   5.604  -5.655  0.00  0.00    +0.040 A 
ATOM      3  C   UNL     1      -2.086   5.966  -5.534  0.00  0.00    +0.199 A 
ATOM      4  O   UNL     1      -2.829   5.962  -6.720  0.00  0.00    -0.286 OA
ATOM      5  C   UNL     1      -2.680   5.606  -4.332  0.00  0.00    +0.084 A 
ATOM      6  C   UNL     1      -1.918   5.449  -3.183  0.00  0.00    +0.199 A 
ATOM      7  O   UNL     1      -2.489   4.838  -2.061  0.00  0.00    -0.286 OA
ATOM      8  C   UNL     1      -0.531   5.519  -3.257  0.00  0.00    +0.040 A 
ENDROOT
BRANCH   1   9
ATOM      9  C   UNL     1       1.536   5.097  -4.655  0.00  0.00    +0.192 C 
ATOM     10  O   UNL     1       1.199   4.246  -5.910  0.00  0.00    -0.217 OA
BRANCH   9  11
ATOM     11  C   UNL     1       2.037   6.399  -5.606  0.00  0.00    +0.126 C 
BRANCH  11  12
ATOM     12  N   UNL     1       2.955   5.728  -6.488  0.00  0.00    -0.216 NA
BRANCH  12  14
ATOM     13  C   UNL     1       3.108   5.706  -8.926  0.00  0.00    +0.019 C 
ATOM     14  C   UNL     1       3.242   6.506  -7.687  0.00  0.00    +0.073 C 
ATOM     15  C   UNL     1       2.167   7.588  -7.687  0.00  0.00    +0.019 C 
ENDBRANCH  12  14
ENDBRANCH  11  12
ENDBRANCH   9  11
ENDBRANCH   1   9
TORSDOF 4
ENDMDL
MODEL 7
REMARK VINA RESULT:      -5.4      2.921      5.603
REMARK  Name = 
REMARK  4 active torsions:
REMARK  status: ('A' for Active; 'I' for Inactive)
REMARK    1  A    between atoms: C_2  and  N_4
REMARK    2  A    between atoms: N_4  and  C_5
REMARK    3  A    between atoms: C_5  and  C_6
REMARK    4  A    between atoms: C_6  and  C_8
REMARK                            x       y       z     vdW  Elec       q    Type
REMARK                         _______ _______ _______ _____ _____    ______ ____
ROOT
ATOM      1  C   UNL     1      -0.484   5.962  -4.757  0.00  0.00    +0.015 A 
ATOM      2  C   UNL     1      -0.841   5.345  -3.608  0.00  0.00    +0.040 A 
ATOM      3  C   UNL     1      -2.058   5.724  -3.057  0.00  0.00    +0.199 A 
ATOM      4  O   UNL     1      -2.459   5.015  -1.920  0.00  0.00    -0.286 OA
ATOM      5  C   UNL     1      -2.362   7.072  -3.187  0.00  0.00    +0.084 A 
ATOM      6  C   UNL     1      -1.832   7.821  -4.228  0.00  0.00    +0.199 A 
ATOM      7  O   UNL     1      -1.938   9.216  -4.189  0.00  0.00    -0.286 OA
ATOM      8  C   UNL     1      -0.881   7.258  -5.073  0.00  0.00    +0.040 A 
ENDROOT
BRANCH   1   9
ATOM      9  C   UNL     1       1.036   5.623  -5.307  0.00  0.00    +0.192 C 
ATOM     10  O   UNL     1       1.095   6.903  -6.185  0.00  0.00    -0.217 OA
BRANCH   9  11
ATOM     11  C   UNL     1       1.760   6.418  -4.005  0.00  0.00    +0.126 C 
BRANCH  11  12
ATOM     12  N   UNL     1       2.831   7.094  -4.687  0.00  0.00    -0.216 NA
BRANCH  12  14
ATOM     13  C   UNL     1       5.144   7.678  -4.157  0.00  0.00    +0.019 C 
ATOM     14  C   UNL     1       4.143   6.595  -4.291  0.00  0.00    +0.073 C 
ATOM     15  C   UNL     1       3.902   5.982  -2.915  0.00  0.00    +0.019 C 
ENDBRANCH  12  14
ENDBRANCH  11  12
ENDBRANCH   9  11
ENDBRANCH   1   9
TORSDOF 4
ENDMDL
MODEL 8
REMARK VINA RESULT:      -5.3      4.131      6.858
REMARK  Name = 
REMARK  4 active torsions:
REMARK  status: ('A' for Active; 'I' for Inactive)
REMARK    1  A    between atoms: C_2  and  N_4
REMARK    2  A    between atoms: N_4  and  C_5
REMARK    3  A    between atoms: C_5  and  C_6
REMARK    4  A    between atoms: C_6  and  C_8
REMARK                            x       y       z     vdW  Elec       q    Type
REMARK                         _______ _______ _______ _____ _____    ______ ____
ROOT
ATOM      1  C   UNL     1       4.054   6.187  -7.992  0.00  0.00    +0.015 A 
ATOM      2  C   UNL     1       3.030   6.284  -8.869  0.00  0.00    +0.040 A 
ATOM      3  C   UNL     1       2.011   7.165  -8.534  0.00  0.00    +0.199 A 
ATOM      4  O   UNL     1       1.003   7.326  -9.491  0.00  0.00    -0.286 OA
ATOM      5  C   UNL     1       1.708   7.216  -7.180  0.00  0.00    +0.084 A 
ATOM      6  C   UNL     1       2.665   6.898  -6.226  0.00  0.00    +0.199 A 
ATOM      7  O   UNL     1       2.269   6.703  -4.898  0.00  0.00    -0.286 OA
ATOM      8  C   UNL     1       3.898   6.393  -6.624  0.00  0.00    +0.040 A 
ENDROOT
BRANCH   1   9
ATOM      9  C   UNL     1       5.170   5.015  -8.324  0.00  0.00    +0.192 C 
ATOM     10  O   UNL     1       4.130   4.109  -9.040  0.00  0.00    -0.217 OA
BRANCH   9  11
ATOM     11  C   UNL     1       5.613   5.749  -9.778  0.00  0.00    +0.126 C 
BRANCH  11  12
ATOM     12  N   UNL     1       7.044   5.756  -9.630  0.00  0.00    -0.216 NA
BRANCH  12  14
ATOM     13  C   UNL     1       8.336   6.001 -11.689  0.00  0.00    +0.019 C 
ATOM     14  C   UNL     1       7.692   6.688 -10.547  0.00  0.00    +0.073 C 
ATOM     15  C   UNL     1       6.543   7.539 -11.076  0.00  0.00    +0.019 C 
ENDBRANCH  12  14
ENDBRANCH  11  12
ENDBRANCH   9  11
ENDBRANCH   1   9
TORSDOF 4
ENDMDL
MODEL 9
REMARK VINA RESULT:      -5.3      4.519      6.183
REMARK  Name = 
REMARK  4 active torsions:
REMARK  status: ('A' for Active; 'I' for Inactive)
REMARK    1  A    between atoms: C_2  and  N_4
REMARK    2  A    between atoms: N_4  and  C_5
REMARK    3  A    between atoms: C_5  and  C_6
REMARK    4  A    between atoms: C_6  and  C_8
REMARK                            x       y       z     vdW  Elec       q    Type
REMARK                         _______ _______ _______ _____ _____    ______ ____
ROOT
ATOM      1  C   UNL     1       4.784   6.151  -9.975  0.00  0.00    +0.015 A 
ATOM      2  C   UNL     1       5.819   5.333  -9.678  0.00  0.00    +0.040 A 
ATOM      3  C   UNL     1       7.075   5.921  -9.619  0.00  0.00    +0.199 A 
ATOM      4  O   UNL     1       8.123   5.084  -9.222  0.00  0.00    -0.286 OA
ATOM      5  C   UNL     1       7.293   6.923 -10.556  0.00  0.00    +0.084 A 
ATOM      6  C   UNL     1       6.231   7.650 -11.076  0.00  0.00    +0.199 A 
ATOM      7  O   UNL     1       6.443   8.462 -12.196  0.00  0.00    -0.286 OA
ATOM      8  C   UNL     1       4.925   7.288 -10.765  0.00  0.00    +0.040 A 
ENDROOT
BRANCH   1   9
ATOM      9  C   UNL     1       3.329   5.407 -10.206  0.00  0.00    +0.192 C 
ATOM     10  O   UNL     1       3.606   4.338  -9.112  0.00  0.00    -0.217 OA
BRANCH   9  11
ATOM     11  C   UNL     1       2.555   6.419  -9.098  0.00  0.00    +0.126 C 
BRANCH  11  12
ATOM     12  N   UNL     1       1.191   6.007  -9.290  0.00  0.00    -0.216 NA
BRANCH  12  14
ATOM     13  C   UNL     1      -0.005   4.607 -10.897  0.00  0.00    +0.019 C 
ATOM     14  C   UNL     1       0.870   5.785 -10.695  0.00  0.00    +0.073 C 
ATOM     15  C   UNL     1       0.100   7.038 -11.098  0.00  0.00    +0.019 C 
ENDBRANCH  12  14
ENDBRANCH  11  12
ENDBRANCH   9  11
ENDBRANCH   1   9
TORSDOF 4
ENDMDL
