MODEL 1
REMARK VINA RESULT:      -7.8      0.000      0.000
REMARK  Name = 
REMARK  7 active torsions:
REMARK  status: ('A' for Active; 'I' for Inactive)
REMARK    1  A    between atoms: C_2  and  C_3
REMARK    2  A    between atoms: C_3  and  C_4
REMARK    3  A    between atoms: C_6  and  C_7
REMARK    4  A    between atoms: N_9  and  C_10
REMARK    5  A    between atoms: C_10  and  C_11
REMARK    6  A    between atoms: C_10  and  C_14
REMARK    7  A    between atoms: C_16  and  S_17
REMARK                            x       y       z     vdW  Elec       q    Type
REMARK                         _______ _______ _______ _____ _____    ______ ____
ROOT
ATOM      1  C   UNL     1       1.346   5.362  -6.763  0.00  0.00    +0.140 C 
ENDROOT
BRANCH   1   2
ATOM      2  C   UNL     1       1.957   6.758  -6.009  0.00  0.00    +0.170 C 
ATOM      3  C   UNL     1       3.454   6.047  -5.534  0.00  0.00    +0.213 C 
ATOM      4  O   UNL     1       3.000   4.656  -5.272  0.00  0.00    -0.218 OA
ATOM      5  C   UNL     1       3.315   6.722  -3.974  0.00  0.00    +0.218 C 
ATOM      6  O   UNL     1       4.687   6.235  -3.608  0.00  0.00    -0.217 OA
ATOM      7  C   UNL     1       2.549   5.412  -3.197  0.00  0.00    +0.222 C 
ATOM      8  O   UNL     1       2.065   6.357  -2.131  0.00  0.00    -0.217 OA
ATOM      9  C   UNL     1       1.152   5.394  -4.171  0.00  0.00    +0.195 C 
ATOM     10  O   UNL     1       1.219   6.715  -4.734  0.00  0.00    -0.341 OA
BRANCH   9  11
ATOM     11  S   UNL     1      -0.171   5.831  -2.847  0.00  0.00    -0.108 S 
ATOM     12  C   UNL     1      -1.416   6.922  -3.552  0.00  0.00    +0.072 C 
ENDBRANCH   9  11
ENDBRANCH   1   2
BRANCH   1  13
ATOM     13  C   UNL     1       0.006   6.158  -7.310  0.00  0.00    +0.102 C 
ATOM     14 CL   UNL     1       0.025   5.465  -9.030  0.00  0.00    -0.113 Cl
ATOM     15  C   UNL     1      -1.052   5.111  -6.800  0.00  0.00    +0.019 C 
ENDBRANCH   1  13
BRANCH   1  17
ATOM     16  C   UNL     1       2.740   4.593  -8.778  0.00  0.00    +0.256 C 
ATOM     17  N   UNL     1       2.123   5.608  -8.088  0.00  0.00    -0.202 NA
ATOM     18  O   UNL     1       2.567   3.456  -8.349  0.00  0.00    -0.272 OA
BRANCH  16  23
ATOM     19  C   UNL     1       4.657   6.897 -10.831  0.00  0.00    +0.018 C 
ATOM     20  C   UNL     1       4.694   5.425 -11.533  0.00  0.00    +0.073 C 
ATOM     21  N   UNL     1       3.394   4.985 -11.031  0.00  0.00    -0.265 NA
ATOM     22  C   UNL     1       2.605   6.161 -11.057  0.00  0.00    +0.090 C 
ATOM     23  C   UNL     1       4.088   4.793  -9.625  0.00  0.00    +0.137 C 
ATOM     24  C   UNL     1       4.112   6.410  -9.377  0.00  0.00    +0.027 C 
BRANCH  19  25
ATOM     25  C   UNL     1       6.225   6.806 -10.386  0.00  0.00    +0.001 C 
BRANCH  25  27
ATOM     26  C   UNL     1       6.558   8.449 -11.374  0.00  0.00    +0.000 C 
ATOM     27  C   UNL     1       6.793   7.820 -11.379  0.00  0.00    +0.000 C 
ENDBRANCH  25  27
ENDBRANCH  19  25
ENDBRANCH  16  23
ENDBRANCH   1  17
TORSDOF 7
ENDMDL
MODEL 2
REMARK VINA RESULT:      -7.5      3.213      7.374
REMARK  Name = 
REMARK  7 active torsions:
REMARK  status: ('A' for Active; 'I' for Inactive)
REMARK    1  A    between atoms: C_2  and  C_3
REMARK    2  A    between atoms: C_3  and  C_4
REMARK    3  A    between atoms: C_6  and  C_7
REMARK    4  A    between atoms: N_9  and  C_10
REMARK    5  A    between atoms: C_10  and  C_11
REMARK    6  A    between atoms: C_10  and  C_14
REMARK    7  A    between atoms: C_16  and  S_17
REMARK                            x       y       z     vdW  Elec       q    Type
REMARK                         _______ _______ _______ _____ _____    ______ ____
ROOT
ATOM      1  C   UNL     1       3.120   5.327  -8.421  0.00  0.00    +0.140 C 
ENDROOT
BRANCH   1   2
ATOM      2  C   UNL     1       2.444   6.723  -9.115  0.00  0.00    +0.170 C 
ATOM      3  C   UNL     1       0.908   6.016  -9.448  0.00  0.00    +0.213 C 
ATOM      4  O   UNL     1       1.333   4.623  -9.751  0.00  0.00    -0.218 OA
ATOM      5  C   UNL     1       0.902   6.690 -11.014  0.00  0.00    +0.218 C 
ATOM      6  O   UNL     1      -0.499   6.206 -11.250  0.00  0.00    -0.217 OA
ATOM      7  C   UNL     1       1.590   5.379 -11.860  0.00  0.00    +0.222 C 
ATOM      8  O   UNL     1       1.974   6.324 -12.965  0.00  0.00    -0.217 OA
ATOM      9  C   UNL     1       3.072   5.359 -11.019  0.00  0.00    +0.195 C 
ATOM     10  O   UNL     1       3.060   6.680 -10.453  0.00  0.00    -0.341 OA
BRANCH   9  11
ATOM     11  S   UNL     1       4.266   5.794 -12.461  0.00  0.00    -0.108 S 
ATOM     12  C   UNL     1       5.677   6.719 -11.838  0.00  0.00    +0.072 C 
ENDBRANCH   9  11
ENDBRANCH   1   2
BRANCH   1  13
ATOM     13  C   UNL     1       4.499   6.125  -7.985  0.00  0.00    +0.102 C 
ATOM     14 CL   UNL     1       4.553   5.528  -6.230  0.00  0.00    -0.113 Cl
ATOM     15  C   UNL     1       5.512   5.030  -8.486  0.00  0.00    +0.019 C 
ENDBRANCH   1  13
BRANCH   1  17
ATOM     16  C   UNL     1       1.945   4.538  -6.278  0.00  0.00    +0.256 C 
ATOM     17  N   UNL     1       2.457   5.564  -7.034  0.00  0.00    -0.202 NA
ATOM     18  O   UNL     1       2.125   3.401  -6.705  0.00  0.00    -0.272 OA
BRANCH  16  23
ATOM     19  C   UNL     1      -0.049   6.875  -4.339  0.00  0.00    +0.018 C 
ATOM     20  C   UNL     1       0.178   5.527  -3.450  0.00  0.00    +0.073 C 
ATOM     21  N   UNL     1       1.470   5.174  -4.036  0.00  0.00    -0.265 NA
ATOM     22  C   UNL     1       2.095   6.426  -4.256  0.00  0.00    +0.090 C 
ATOM     23  C   UNL     1       0.673   4.699  -5.315  0.00  0.00    +0.137 C 
ATOM     24  C   UNL     1       0.411   6.250  -5.769  0.00  0.00    +0.027 C 
BRANCH  19  25
ATOM     25  C   UNL     1      -1.626   6.537  -4.583  0.00  0.00    +0.001 C 
BRANCH  25  27
ATOM     26  C   UNL     1      -2.000   8.415  -4.231  0.00  0.00    +0.000 C 
ATOM     27  C   UNL     1      -2.139   7.972  -4.715  0.00  0.00    +0.000 C 
ENDBRANCH  25  27
ENDBRANCH  19  25
ENDBRANCH  16  23
ENDBRANCH   1  17
TORSDOF 7
ENDMDL
MODEL 3
REMARK VINA RESULT:      -7.4      3.432      7.136
REMARK  Name = 
REMARK  7 active torsions:
REMARK  status: ('A' for Active; 'I' for Inactive)
REMARK    1  A    between atoms: C_2  and  C_3
REMARK    2  A    between atoms: C_3  and  C_4
REMARK    3  A    between atoms: C_6  and  C_7
REMARK    4  A    between atoms: N_9  and  C_10
REMARK    5  A    between atoms: C_10  and  C_11
REMARK    6  A    between atoms: C_10  and  C_14
REMARK    7  A    between atoms: C_16  and  S_17
REMARK                            x       y       z     vdW  Elec       q    Type
REMARK                         _______ _______ _______ _____ _____    ______ ____
ROOT
ATOM      1  C   UNL     1       2.697   6.129  -9.704  0.00  0.00    +0.140 C 
ENDROOT
BRANCH   1   2
ATOM      2  C   UNL     1       3.964   5.014  -9.904  0.00  0.00    +0.170 C 
ATOM      3  C   UNL     1       5.230   6.151  -9.624  0.00  0.00    +0.213 C 
ATOM      4  O   UNL     1       4.611   7.367 -10.215  0.00  0.00    -0.218 OA
ATOM      5  C   UNL     1       6.101   5.558 -10.966  0.00  0.00    +0.218 C 
ATOM      6  O   UNL     1       7.270   6.439 -10.634  0.00  0.00    -0.217 OA
ATOM      7  C   UNL     1       5.514   6.638 -12.148  0.00  0.00    +0.222 C 
ATOM      8  O   UNL     1       5.925   5.658 -13.213  0.00  0.00    -0.217 OA
ATOM      9  C   UNL     1       3.873   6.196 -12.021  0.00  0.00    +0.195 C 
ATOM     10  O   UNL     1       4.004   4.919 -11.374  0.00  0.00    -0.341 OA
BRANCH   9  11
ATOM     11  S   UNL     1       3.594   5.478 -13.781  0.00  0.00    -0.108 S 
ATOM     12  C   UNL     1       1.862   5.046 -14.006  0.00  0.00    +0.072 C 
ENDBRANCH   9  11
ENDBRANCH   1   2
BRANCH   1  13
ATOM     13  C   UNL     1       1.545   4.972  -9.955  0.00  0.00    +0.102 C 
ATOM     14 CL   UNL     1       0.644   5.206  -8.352  0.00  0.00    -0.113 Cl
ATOM     15  C   UNL     1       0.543   5.881 -10.758  0.00  0.00    +0.019 C 
ENDBRANCH   1  13
BRANCH   1  17
ATOM     16  C   UNL     1       2.539   7.018  -7.300  0.00  0.00    +0.256 C 
ATOM     17  N   UNL     1       2.642   5.952  -8.159  0.00  0.00    -0.202 NA
ATOM     18  O   UNL     1       2.391   8.123  -7.815  0.00  0.00    -0.272 OA
BRANCH  16  23
ATOM     19  C   UNL     1       2.678   5.370  -4.066  0.00  0.00    +0.018 C 
ATOM     20  C   UNL     1       2.612   6.981  -3.822  0.00  0.00    +0.073 C 
ATOM     21  N   UNL     1       1.858   7.287  -5.037  0.00  0.00    -0.265 NA
ATOM     22  C   UNL     1       0.972   6.190  -5.171  0.00  0.00    +0.090 C 
ATOM     23  C   UNL     1       3.198   7.042  -5.838  0.00  0.00    +0.137 C 
ATOM     24  C   UNL     1       3.055   5.423  -5.648  0.00  0.00    +0.027 C 
BRANCH  19  25
ATOM     25  C   UNL     1       4.237   5.288  -3.593  0.00  0.00    +0.001 C 
BRANCH  25  27
ATOM     26  C   UNL     1       4.110   4.683  -1.747  0.00  0.00    +0.000 C 
ATOM     27  C   UNL     1       4.006   5.256  -2.082  0.00  0.00    +0.000 C 
ENDBRANCH  25  27
ENDBRANCH  19  25
ENDBRANCH  16  23
ENDBRANCH   1  17
TORSDOF 7
ENDMDL
MODEL 4
REMARK VINA RESULT:      -7.3      4.182      7.963
REMARK  Name = 
REMARK  7 active torsions:
REMARK  status: ('A' for Active; 'I' for Inactive)
REMARK    1  A    between atoms: C_2  and  C_3
REMARK    2  A    between atoms: C_3  and  C_4
REMARK    3  A    between atoms: C_6  and  C_7
REMARK    4  A    between atoms: N_9  and  C_10
REMARK    5  A    between atoms: C_10  and  C_11
REMARK    6  A    between atoms: C_10  and  C_14
REMARK    7  A    between atoms: C_16  and  S_17
REMARK                            x       y       z     vdW  Elec       q    Type
REMARK                         _______ _______ _______ _____ _____    ______ ____
ROOT
ATOM      1  C   UNL     1       2.911   5.662  -3.913  0.00  0.00    +0.140 C 
ENDROOT
BRANCH   1   2
ATOM      2  C   UNL     1       2.112   6.873  -4.798  0.00  0.00    +0.170 C 
ATOM      3  C   UNL     1       0.534   6.488  -4.219  0.00  0.00    +0.213 C 
ATOM      4  O   UNL     1       0.672   5.014  -4.076  0.00  0.00    -0.218 OA
ATOM      5  C   UNL     1      -0.104   6.591  -5.797  0.00  0.00    +0.218 C 
ATOM      6  O   UNL     1      -1.500   6.409  -5.276  0.00  0.00    -0.217 OA
ATOM      7  C   UNL     1       0.038   4.950  -6.238  0.00  0.00    +0.222 C 
ATOM      8  O   UNL     1      -0.029   5.358  -7.685  0.00  0.00    -0.217 OA
ATOM      9  C   UNL     1       1.731   4.850  -6.082  0.00  0.00    +0.195 C 
ATOM     10  O   UNL     1       2.073   6.246  -6.131  0.00  0.00    -0.341 OA
BRANCH   9  11
ATOM     11  S   UNL     1       2.203   4.487  -7.909  0.00  0.00    -0.108 S 
ATOM     12  C   UNL     1       3.465   5.643  -8.465  0.00  0.00    +0.072 C 
ENDBRANCH   9  11
ENDBRANCH   1   2
BRANCH   1  13
ATOM     13  C   UNL     1       4.359   5.988  -4.638  0.00  0.00    +0.102 C 
ATOM     14 CL   UNL     1       5.083   6.979  -3.248  0.00  0.00    -0.113 Cl
ATOM     15  C   UNL     1       5.088   4.665  -4.199  0.00  0.00    +0.019 C 
ENDBRANCH   1  13
BRANCH   1  17
ATOM     16  C   UNL     1       2.921   6.250  -1.413  0.00  0.00    +0.256 C 
ATOM     17  N   UNL     1       3.220   6.596  -2.708  0.00  0.00    -0.202 NA
ATOM     18  O   UNL     1       2.483   5.117  -1.237  0.00  0.00    -0.272 OA
BRANCH  16  23
ATOM     19  C   UNL     1       4.021   9.098   0.556  0.00  0.00    +0.018 C 
ATOM     20  C   UNL     1       3.212   8.075   1.534  0.00  0.00    +0.073 C 
ATOM     21  N   UNL     1       3.553   6.859   0.798  0.00  0.00    -0.265 NA
ATOM     22  C   UNL     1       4.879   7.091   0.357  0.00  0.00    +0.090 C 
ATOM     23  C   UNL     1       2.500   7.315  -0.289  0.00  0.00    +0.137 C 
ATOM     24  C   UNL     1       3.529   8.456  -0.855  0.00  0.00    +0.027 C 
BRANCH  19  25
ATOM     25  C   UNL     1       2.818  10.200   0.591  0.00  0.00    +0.001 C 
BRANCH  25  27
ATOM     26  C   UNL     1       3.839  11.797   0.151  0.00  0.00    +0.000 C 
ATOM     27  C   UNL     1       3.519  11.314  -0.187  0.00  0.00    +0.000 C 
ENDBRANCH  25  27
ENDBRANCH  19  25
ENDBRANCH  16  23
ENDBRANCH   1  17
TORSDOF 7
ENDMDL
MODEL 5
REMARK VINA RESULT:      -7.2      1.935      2.595
REMARK  Name = 
REMARK  7 active torsions:
REMARK  status: ('A' for Active; 'I' for Inactive)
REMARK    1  A    between atoms: C_2  and  C_3
REMARK    2  A    between atoms: C_3  and  C_4
REMARK    3  A    between atoms: C_6  and  C_7
REMARK    4  A    between atoms: N_9  and  C_10
REMARK    5  A    between atoms: C_10  and  C_11
REMARK    6  A    between atoms: C_10  and  C_14
REMARK    7  A    between atoms: C_16  and  S_17
REMARK                            x       y       z     vdW  Elec       q    Type
REMARK                         _______ _______ _______ _____ _____    ______ ____
ROOT
ATOM      1  C   UNL     1       1.736   5.534  -8.913  0.00  0.00    +0.140 C 
ENDROOT
BRANCH   1   2
ATOM      2  C   UNL     1       1.828   6.987  -8.036  0.00  0.00    +0.170 C 
ATOM      3  C   UNL     1       3.325   6.620  -7.263  0.00  0.00    +0.213 C 
ATOM      4  O   UNL     1       3.176   5.148  -7.114  0.00  0.00    -0.218 OA
ATOM      5  C   UNL     1       2.715   7.150  -5.761  0.00  0.00    +0.218 C 
ATOM      6  O   UNL     1       4.061   6.977  -5.120  0.00  0.00    -0.217 OA
ATOM      7  C   UNL     1       2.147   5.654  -5.173  0.00  0.00    +0.222 C 
ATOM      8  O   UNL     1       1.245   6.395  -4.225  0.00  0.00    -0.217 OA
ATOM      9  C   UNL     1       1.021   5.367  -6.420  0.00  0.00    +0.195 C 
ATOM     10  O   UNL     1       0.880   6.698  -6.944  0.00  0.00    -0.341 OA
BRANCH   9  11
ATOM     11  S   UNL     1      -0.607   5.404  -5.399  0.00  0.00    -0.108 S 
ATOM     12  C   UNL     1      -2.023   5.562  -6.498  0.00  0.00    +0.072 C 
ENDBRANCH   9  11
ENDBRANCH   1   2
BRANCH   1  13
ATOM     13  C   UNL     1       0.189   5.843  -9.401  0.00  0.00    +0.102 C 
ATOM     14 CL   UNL     1       0.624   6.917 -10.848  0.00  0.00    -0.113 Cl
ATOM     15  C   UNL     1       0.015   4.556 -10.289  0.00  0.00    +0.019 C 
ENDBRANCH   1  13
BRANCH   1  17
ATOM     16  C   UNL     1       3.463   5.633 -10.811  0.00  0.00    +0.256 C 
ATOM     17  N   UNL     1       2.345   6.151 -10.205  0.00  0.00    -0.202 NA
ATOM     18  O   UNL     1       3.910   4.592 -10.338  0.00  0.00    -0.272 OA
BRANCH  16  23
ATOM     19  C   UNL     1       6.995   6.398 -11.190  0.00  0.00    +0.018 C 
ATOM     20  C   UNL     1       6.160   7.799 -11.181  0.00  0.00    +0.073 C 
ATOM     21  N   UNL     1       5.070   7.320 -10.332  0.00  0.00    -0.265 NA
ATOM     22  C   UNL     1       5.711   6.453  -9.414  0.00  0.00    +0.090 C 
ATOM     23  C   UNL     1       4.540   6.530 -11.593  0.00  0.00    +0.137 C 
ATOM     24  C   UNL     1       5.724   5.411 -11.432  0.00  0.00    +0.027 C 
BRANCH  19  25
ATOM     25  C   UNL     1       7.330   6.523 -12.782  0.00  0.00    +0.001 C 
BRANCH  25  27
ATOM     26  C   UNL     1       9.097   5.889 -12.268  0.00  0.00    +0.000 C 
ATOM     27  C   UNL     1       8.674   5.794 -12.780  0.00  0.00    +0.000 C 
ENDBRANCH  25  27
ENDBRANCH  19  25
ENDBRANCH  16  23
ENDBRANCH   1  17
TORSDOF 7
ENDMDL
MODEL 6
REMARK VINA RESULT:      -7.0      2.333      3.887
REMARK  Name = 
REMARK  7 active torsions:
REMARK  status: ('A' for Active; 'I' for Inactive)
REMARK    1  A    between atoms: C_2  and  C_3
REMARK    2  A    between atoms: C_3  and  C_4
REMARK    3  A    between atoms: C_6  and  C_7
REMARK    4  A    between atoms: N_9  and  C_10
REMARK    5  A    between atoms: C_10  and  C_11
REMARK    6  A    between atoms: C_10  and  C_14
REMARK    7  A    between atoms: C_16  and  S_17
REMARK                            x       y       z     vdW  Elec       q    Type
REMARK                         _______ _______ _______ _____ _____    ______ ____
ROOT
ATOM      1  C   UNL     1       1.508   6.306  -4.380  0.00  0.00    +0.140 C 
ENDROOT
BRANCH   1   2
ATOM      2  C   UNL     1       0.317   5.106  -4.560  0.00  0.00    +0.170 C 
ATOM      3  C   UNL     1      -0.455   5.841  -5.914  0.00  0.00    +0.213 C 
ATOM      4  O   UNL     1      -0.253   7.274  -5.572  0.00  0.00    -0.218 OA
ATOM      5  C   UNL     1      -1.992   5.568  -5.226  0.00  0.00    +0.218 C 
ATOM      6  O   UNL     1      -2.670   6.065  -6.468  0.00  0.00    -0.217 OA
ATOM      7  C   UNL     1      -2.180   7.059  -4.421  0.00  0.00    +0.222 C 
ATOM      8  O   UNL     1      -3.206   6.420  -3.526  0.00  0.00    -0.217 OA
ATOM      9  C   UNL     1      -0.825   6.906  -3.401  0.00  0.00    +0.195 C 
ATOM     10  O   UNL     1      -0.609   5.487  -3.478  0.00  0.00    -0.341 OA
BRANCH   9  11
ATOM     11  S   UNL     1      -1.708   6.860  -1.695  0.00  0.00    -0.108 S 
ATOM     12  C   UNL     1      -0.562   6.316  -0.419  0.00  0.00    +0.072 C 
ENDBRANCH   9  11
ENDBRANCH   1   2
BRANCH   1  13
ATOM     13  C   UNL     1       2.073   5.636  -2.980  0.00  0.00    +0.102 C 
ATOM     14 CL   UNL     1       3.642   4.943  -3.686  0.00  0.00    -0.113 Cl
ATOM     15  C   UNL     1       2.782   6.928  -2.429  0.00  0.00    +0.019 C 
ENDBRANCH   1  13
BRANCH   1  17
ATOM     16  C   UNL     1       3.270   6.173  -6.243  0.00  0.00    +0.256 C 
ATOM     17  N   UNL     1       2.553   5.552  -5.250  0.00  0.00    -0.202 NA
ATOM     18  O   UNL     1       3.118   7.387  -6.350  0.00  0.00    -0.272 OA
BRANCH  16  23
ATOM     19  C   UNL     1       3.248   6.296  -9.874  0.00  0.00    +0.018 C 
ATOM     20  C   UNL     1       2.931   4.766  -9.407  0.00  0.00    +0.073 C 
ATOM     21  N   UNL     1       2.292   5.124  -8.141  0.00  0.00    -0.265 NA
ATOM     22  C   UNL     1       1.590   6.317  -8.441  0.00  0.00    +0.090 C 
ATOM     23  C   UNL     1       3.739   5.435  -7.588  0.00  0.00    +0.137 C 
ATOM     24  C   UNL     1       3.801   6.832  -8.440  0.00  0.00    +0.027 C 
BRANCH  19  25
ATOM     25  C   UNL     1       4.736   5.900 -10.415  0.00  0.00    +0.001 C 
BRANCH  25  27
ATOM     26  C   UNL     1       5.739   7.357 -11.227  0.00  0.00    +0.000 C 
ATOM     27  C   UNL     1       5.190   7.295 -10.845  0.00  0.00    +0.000 C 
ENDBRANCH  25  27
ENDBRANCH  19  25
ENDBRANCH  16  23
ENDBRANCH   1  17
TORSDOF 7
ENDMDL
MODEL 7
REMARK VINA RESULT:      -7.0      1.650      2.027
REMARK  Name = 
REMARK  7 active torsions:
REMARK  status: ('A' for Active; 'I' for Inactive)
REMARK    1  A    between atoms: C_2  and  C_3
REMARK    2  A    between atoms: C_3  and  C_4
REMARK    3  A    between atoms: C_6  and  C_7
REMARK    4  A    between atoms: N_9  and  C_10
REMARK    5  A    between atoms: C_10  and  C_11
REMARK    6  A    between atoms: C_10  and  C_14
REMARK    7  A    between atoms: C_16  and  S_17
REMARK                            x       y       z     vdW  Elec       q    Type
REMARK                         _______ _______ _______ _____ _____    ______ ____
ROOT
ATOM      1  C   UNL     1       0.789   5.521  -4.724  0.00  0.00    +0.140 C 
ENDROOT
BRANCH   1   2
ATOM      2  C   UNL     1       1.576   6.850  -4.015  0.00  0.00    +0.170 C 
ATOM      3  C   UNL     1       3.033   6.005  -3.651  0.00  0.00    +0.213 C 
ATOM      4  O   UNL     1       2.477   4.658  -3.358  0.00  0.00    -0.218 OA
ATOM      5  C   UNL     1       3.069   6.678  -2.084  0.00  0.00    +0.218 C 
ATOM      6  O   UNL     1       4.415   6.068  -1.820  0.00  0.00    -0.217 OA
ATOM      7  C   UNL     1       2.247   5.436  -1.254  0.00  0.00    +0.222 C 
ATOM      8  O   UNL     1       1.928   6.412  -0.155  0.00  0.00    -0.217 OA
ATOM      9  C   UNL     1       0.787   5.550  -2.124  0.00  0.00    +0.195 C 
ATOM     10  O   UNL     1       0.931   6.864  -2.689  0.00  0.00    -0.341 OA
BRANCH   9  11
ATOM     11  S   UNL     1      -0.392   6.094  -0.707  0.00  0.00    -0.108 S 
ATOM     12  C   UNL     1      -1.815   6.962  -1.384  0.00  0.00    +0.072 C 
ENDBRANCH   9  11
ENDBRANCH   1   2
BRANCH   1  13
ATOM     13  C   UNL     1      -0.503   6.441  -5.186  0.00  0.00    +0.102 C 
ATOM     14 CL   UNL     1      -0.613   5.806  -6.925  0.00  0.00    -0.113 Cl
ATOM     15  C   UNL     1      -1.621   5.467  -4.661  0.00  0.00    +0.019 C 
ENDBRANCH   1  13
BRANCH   1  17
ATOM     16  C   UNL     1       2.070   4.643  -6.769  0.00  0.00    +0.256 C 
ATOM     17  N   UNL     1       1.499   5.696  -6.096  0.00  0.00    -0.202 NA
ATOM     18  O   UNL     1       1.908   3.529  -6.279  0.00  0.00    -0.272 OA
BRANCH  16  23
ATOM     19  C   UNL     1       3.404   6.034  -9.848  0.00  0.00    +0.018 C 
ATOM     20  C   UNL     1       3.953   4.506  -9.690  0.00  0.00    +0.073 C 
ATOM     21  N   UNL     1       2.801   4.008  -8.941  0.00  0.00    -0.265 NA
ATOM     22  C   UNL     1       1.702   4.694  -9.514  0.00  0.00    +0.090 C 
ATOM     23  C   UNL     1       3.374   4.787  -7.692  0.00  0.00    +0.137 C 
ATOM     24  C   UNL     1       2.885   6.218  -8.318  0.00  0.00    +0.027 C 
BRANCH  19  25
ATOM     25  C   UNL     1       4.872   6.673  -9.535  0.00  0.00    +0.001 C 
BRANCH  25  27
ATOM     26  C   UNL     1       5.689   7.643 -11.012  0.00  0.00    +0.000 C 
ATOM     27  C   UNL     1       5.175   7.218 -10.931  0.00  0.00    +0.000 C 
ENDBRANCH  25  27
ENDBRANCH  19  25
ENDBRANCH  16  23
ENDBRANCH   1  17
TORSDOF 7
ENDMDL
MODEL 8
REMARK VINA RESULT:      -7.0      2.405      4.148
REMARK  Name = 
REMARK  7 active torsions:
REMARK  status: ('A' for Active; 'I' for Inactive)
REMARK    1  A    between atoms: C_2  and  C_3
REMARK    2  A    between atoms: C_3  and  C_4
REMARK    3  A    between atoms: C_6  and  C_7
REMARK    4  A    between atoms: N_9  and  C_10
REMARK    5  A    between atoms: C_10  and  C_11
REMARK    6  A    between atoms: C_10  and  C_14
REMARK    7  A    between atoms: C_16  and  S_17
REMARK                            x       y       z     vdW  Elec       q    Type
REMARK                         _______ _______ _______ _____ _____    ______ ____
ROOT
ATOM      1  C   UNL     1       1.937   6.123  -5.681  0.00  0.00    +0.140 C 
ENDROOT
BRANCH   1   2
ATOM      2  C   UNL     1       0.697   4.970  -5.531  0.00  0.00    +0.170 C 
ATOM      3  C   UNL     1      -0.594   6.078  -5.811  0.00  0.00    +0.213 C 
ATOM      4  O   UNL     1      -0.021   7.297  -5.181  0.00  0.00    -0.218 OA
ATOM      5  C   UNL     1      -1.474   5.432  -4.500  0.00  0.00    +0.218 C 
ATOM      6  O   UNL     1      -2.661   6.287  -4.837  0.00  0.00    -0.217 OA
ATOM      7  C   UNL     1      -0.940   6.500  -3.283  0.00  0.00    +0.222 C 
ATOM      8  O   UNL     1      -1.345   5.486  -2.248  0.00  0.00    -0.217 OA
ATOM      9  C   UNL     1       0.714   6.106  -3.387  0.00  0.00    +0.195 C 
ATOM     10  O   UNL     1       0.631   4.841  -4.064  0.00  0.00    -0.341 OA
BRANCH   9  11
ATOM     11  S   UNL     1       0.978   5.356  -1.638  0.00  0.00    -0.108 S 
ATOM     12  C   UNL     1       2.491   6.002  -0.909  0.00  0.00    +0.072 C 
ENDBRANCH   9  11
ENDBRANCH   1   2
BRANCH   1  13
ATOM     13  C   UNL     1       3.109   5.012  -5.334  0.00  0.00    +0.102 C 
ATOM     14 CL   UNL     1       4.212   5.399  -6.773  0.00  0.00    -0.113 Cl
ATOM     15  C   UNL     1       3.931   5.915  -4.342  0.00  0.00    +0.019 C 
ENDBRANCH   1  13
BRANCH   1  17
ATOM     16  C   UNL     1       2.116   6.965  -8.101  0.00  0.00    +0.256 C 
ATOM     17  N   UNL     1       2.090   5.915  -7.215  0.00  0.00    -0.202 NA
ATOM     18  O   UNL     1       2.109   8.092  -7.614  0.00  0.00    -0.272 OA
BRANCH  16  23
ATOM     19  C   UNL     1       1.977   4.967 -11.132  0.00  0.00    +0.018 C 
ATOM     20  C   UNL     1       2.209   6.526 -11.550  0.00  0.00    +0.073 C 
ATOM     21  N   UNL     1       2.929   6.904 -10.335  0.00  0.00    -0.265 NA
ATOM     22  C   UNL     1       3.698   5.755 -10.026  0.00  0.00    +0.090 C 
ATOM     23  C   UNL     1       1.534   6.875  -9.593  0.00  0.00    +0.137 C 
ATOM     24  C   UNL     1       1.530   5.239  -9.591  0.00  0.00    +0.027 C 
BRANCH  19  25
ATOM     25  C   UNL     1       0.442   4.970 -11.685  0.00  0.00    +0.001 C 
BRANCH  25  27
ATOM     26  C   UNL     1       0.607   4.287 -13.500  0.00  0.00    +0.000 C 
ATOM     27  C   UNL     1       0.748   4.859 -13.179  0.00  0.00    +0.000 C 
ENDBRANCH  25  27
ENDBRANCH  19  25
ENDBRANCH  16  23
ENDBRANCH   1  17
TORSDOF 7
ENDMDL
MODEL 9
REMARK VINA RESULT:      -6.8      4.449      6.164
REMARK  Name = 
REMARK  7 active torsions:
REMARK  status: ('A' for Active; 'I' for Inactive)
REMARK    1  A    between atoms: C_2  and  C_3
REMARK    2  A    between atoms: C_3  and  C_4
REMARK    3  A    between atoms: C_6  and  C_7
REMARK    4  A    between atoms: N_9  and  C_10
REMARK    5  A    between atoms: C_10  and  C_11
REMARK    6  A    between atoms: C_10  and  C_14
REMARK    7  A    between atoms: C_16  and  S_17
REMARK                            x       y       z     vdW  Elec       q    Type
REMARK                         _______ _______ _______ _____ _____    ______ ____
ROOT
ATOM      1  C   UNL     1       1.944   5.730 -11.713  0.00  0.00    +0.140 C 
ENDROOT
BRANCH   1   2
ATOM      2  C   UNL     1       2.798   6.928 -10.864  0.00  0.00    +0.170 C 
ATOM      3  C   UNL     1       4.342   6.525 -11.515  0.00  0.00    +0.213 C 
ATOM      4  O   UNL     1       4.180   5.053 -11.654  0.00  0.00    -0.218 OA
ATOM      5  C   UNL     1       5.054   6.616  -9.967  0.00  0.00    +0.218 C 
ATOM      6  O   UNL     1       6.422   6.418 -10.552  0.00  0.00    -0.217 OA
ATOM      7  C   UNL     1       4.911   4.976  -9.523  0.00  0.00    +0.222 C 
ATOM      8  O   UNL     1       5.049   5.380  -8.080  0.00  0.00    -0.217 OA
ATOM      9  C   UNL     1       3.211   4.898  -9.602  0.00  0.00    +0.195 C 
ATOM     10  O   UNL     1       2.890   6.298  -9.535  0.00  0.00    -0.341 OA
BRANCH   9  11
ATOM     11  S   UNL     1       2.819   4.536  -7.756  0.00  0.00    -0.108 S 
ATOM     12  C   UNL     1       1.601   5.709  -7.140  0.00  0.00    +0.072 C 
ENDBRANCH   9  11
ENDBRANCH   1   2
BRANCH   1  13
ATOM     13  C   UNL     1       0.551   6.031 -10.879  0.00  0.00    +0.102 C 
ATOM     14 CL   UNL     1      -0.256   7.087 -12.172  0.00  0.00    -0.113 Cl
ATOM     15  C   UNL     1      -0.217   4.733 -11.327  0.00  0.00    +0.019 C 
ENDBRANCH   1  13
BRANCH   1  17
ATOM     16  C   UNL     1       1.729   6.359 -14.194  0.00  0.00    +0.256 C 
ATOM     17  N   UNL     1       1.543   6.686 -12.873  0.00  0.00    -0.202 NA
ATOM     18  O   UNL     1       2.140   5.225 -14.424  0.00  0.00    -0.272 OA
BRANCH  16  23
ATOM     19  C   UNL     1       0.429   9.131 -16.148  0.00  0.00    +0.018 C 
ATOM     20  C   UNL     1       1.268   8.147 -17.141  0.00  0.00    +0.073 C 
ATOM     21  N   UNL     1       1.011   6.919 -16.391  0.00  0.00    -0.265 NA
ATOM     22  C   UNL     1      -0.315   7.082 -15.918  0.00  0.00    +0.090 C 
ATOM     23  C   UNL     1       2.064   7.438 -15.333  0.00  0.00    +0.137 C 
ATOM     24  C   UNL     1       0.990   8.525 -14.747  0.00  0.00    +0.027 C 
BRANCH  19  25
ATOM     25  C   UNL     1       1.569  10.296 -16.218  0.00  0.00    +0.001 C 
BRANCH  25  27
ATOM     26  C   UNL     1       0.596  11.822 -15.501  0.00  0.00    +0.000 C 
ATOM     27  C   UNL     1       0.924  11.292 -15.253  0.00  0.00    +0.000 C 
ENDBRANCH  25  27
ENDBRANCH  19  25
ENDBRANCH  16  23
ENDBRANCH   1  17
TORSDOF 7
ENDMDL
