MODEL 1
REMARK VINA RESULT:      -8.3      0.000      0.000
REMARK  Name = 
REMARK  5 active torsions:
REMARK  status: ('A' for Active; 'I' for Inactive)
REMARK    1  A    between atoms: C_2  and  C_3
REMARK    2  A    between atoms: C_3  and  C_4
REMARK    3  A    between atoms: C_7  and  C_8
REMARK    4  A    between atoms: C_20  and  C_21
REMARK    5  A    between atoms: N_24  and  C_25
REMARK                            x       y       z     vdW  Elec       q    Type
REMARK                         _______ _______ _______ _____ _____    ______ ____
ROOT
ATOM      1  C   UNL     1       1.914   6.574  -4.754  0.00  0.00    +0.028 A 
ATOM      2  C   UNL     1       0.939   6.422  -5.732  0.00  0.00    +0.062 A 
ATOM      3  C   UNL     1      -0.375   6.312  -5.299  0.00  0.00    +0.055 A 
ATOM      4  C   UNL     1      -1.263   5.772  -6.220  0.00  0.00    +0.199 A 
ATOM      5  C   UNL     1      -0.853   5.284  -7.449  0.00  0.00    +0.066 A 
ATOM      6  C   UNL     1       0.453   5.562  -7.838  0.00  0.00    +0.144 A 
ATOM      7  O   UNL     1      -2.396   5.392  -5.799  0.00  0.00    -0.286 OA
ATOM      8  C   UNL     1      -0.621   6.084  -3.951  0.00  0.00    +0.011 A 
ATOM      9  C   UNL     1       0.393   6.116  -3.002  0.00  0.00    +0.073 A 
ATOM     10  C   UNL     1       0.203   5.497  -1.772  0.00  0.00    +0.202 A 
ATOM     11  O   UNL     1      -0.976   5.344  -1.348  0.00  0.00    -0.286 OA
ATOM     12  C   UNL     1       1.201   4.744  -1.168  0.00  0.00    +0.086 A 
ATOM     13  C   UNL     1       2.467   4.803  -1.735  0.00  0.00    +0.228 A 
ATOM     14  O   UNL     1       2.686   5.645  -2.727  0.00  0.00    -0.447 OA
ATOM     15  N   UNL     1       1.249   6.320  -7.047  0.00  0.00    -0.322 N 
ATOM     16  C   UNL     1       1.709   6.173  -3.440  0.00  0.00    +0.146 A 
ENDROOT
BRANCH   6  17
ATOM     17  C   UNL     1       0.730   5.368  -9.267  0.00  0.00    +0.403 C 
ATOM     18  O   UNL     1      -0.073   6.111 -10.136  0.00  0.00    -0.239 OA
ATOM     19  O   UNL     1       1.296   4.298  -9.640  0.00  0.00    -0.239 OA
ENDBRANCH   6  17
BRANCH  13  20
ATOM     20  C   UNL     1       3.586   4.131  -1.062  0.00  0.00    +0.422 C 
ATOM     21  O   UNL     1       3.324   2.939  -0.384  0.00  0.00    -0.237 OA
ATOM     22  O   UNL     1       4.564   4.816  -0.641  0.00  0.00    -0.237 OA
ENDBRANCH  13  20
BRANCH  15  23
ATOM     23  C   UNL     1       2.655   6.376  -7.434  0.00  0.00    +0.106 C 
ATOM     24  C   UNL     1       2.786   7.590  -8.346  0.00  0.00    +0.026 C 
ENDBRANCH  15  23
BRANCH   1  25
ATOM     25  C   UNL     1       3.275   6.981  -5.149  0.00  0.00    +0.031 C 
BRANCH  25  27
ATOM     26  C   UNL     1       5.437   7.532  -4.080  0.00  0.00    +0.000 C 
ATOM     27  C   UNL     1       3.940   7.776  -4.044  0.00  0.00    +0.005 C 
ENDBRANCH  25  27
ENDBRANCH   1  25
TORSDOF 5
ENDMDL
MODEL 2
REMARK VINA RESULT:      -7.8      2.495      4.621
REMARK  Name = 
REMARK  5 active torsions:
REMARK  status: ('A' for Active; 'I' for Inactive)
REMARK    1  A    between atoms: C_2  and  C_3
REMARK    2  A    between atoms: C_3  and  C_4
REMARK    3  A    between atoms: C_7  and  C_8
REMARK    4  A    between atoms: C_20  and  C_21
REMARK    5  A    between atoms: N_24  and  C_25
REMARK                            x       y       z     vdW  Elec       q    Type
REMARK                         _______ _______ _______ _____ _____    ______ ____
ROOT
ATOM      1  C   UNL     1       0.961   6.198  -2.927  0.00  0.00    +0.028 A 
ATOM      2  C   UNL     1       1.790   6.015  -4.027  0.00  0.00    +0.062 A 
ATOM      3  C   UNL     1       3.075   5.556  -3.777  0.00  0.00    +0.055 A 
ATOM      4  C   UNL     1       3.990   5.760  -4.802  0.00  0.00    +0.199 A 
ATOM      5  C   UNL     1       3.672   6.458  -5.954  0.00  0.00    +0.066 A 
ATOM      6  C   UNL     1       2.330   6.757  -6.165  0.00  0.00    +0.144 A 
ATOM      7  O   UNL     1       5.221   5.620  -4.536  0.00  0.00    -0.286 OA
ATOM      8  C   UNL     1       3.551   5.569  -2.473  0.00  0.00    +0.011 A 
ATOM      9  C   UNL     1       2.733   5.878  -1.394  0.00  0.00    +0.073 A 
ATOM     10  C   UNL     1       3.304   6.277  -0.191  0.00  0.00    +0.202 A 
ATOM     11  O   UNL     1       4.484   5.913   0.069  0.00  0.00    -0.286 OA
ATOM     12  C   UNL     1       2.780   7.322   0.559  0.00  0.00    +0.086 A 
ATOM     13  C   UNL     1       1.541   7.818   0.171  0.00  0.00    +0.228 A 
ATOM     14  O   UNL     1       0.882   7.210  -0.796  0.00  0.00    -0.447 OA
ATOM     15  N   UNL     1       1.395   6.327  -5.285  0.00  0.00    -0.322 N 
ATOM     16  C   UNL     1       1.466   6.387  -1.647  0.00  0.00    +0.146 A 
ENDROOT
BRANCH   6  17
ATOM     17  C   UNL     1       1.988   7.149  -7.538  0.00  0.00    +0.403 C 
ATOM     18  O   UNL     1       2.058   6.124  -8.484  0.00  0.00    -0.239 OA
ATOM     19  O   UNL     1       2.097   8.366  -7.871  0.00  0.00    -0.239 OA
ENDBRANCH   6  17
BRANCH  13  20
ATOM     20  C   UNL     1       0.882   8.832   1.003  0.00  0.00    +0.422 C 
ATOM     21  O   UNL     1      -0.415   9.219   0.662  0.00  0.00    -0.237 OA
ATOM     22  O   UNL     1       1.583   9.689   1.616  0.00  0.00    -0.237 OA
ENDBRANCH  13  20
BRANCH  15  23
ATOM     23  C   UNL     1       0.053   6.870  -5.475  0.00  0.00    +0.106 C 
ATOM     24  C   UNL     1      -0.709   5.819  -6.274  0.00  0.00    +0.026 C 
ENDBRANCH  15  23
BRANCH   1  25
ATOM     25  C   UNL     1      -0.484   6.401  -3.138  0.00  0.00    +0.031 C 
BRANCH  25  27
ATOM     26  C   UNL     1      -2.672   5.247  -3.094  0.00  0.00    +0.000 C 
ATOM     27  C   UNL     1      -1.283   5.292  -2.485  0.00  0.00    +0.005 C 
ENDBRANCH  25  27
ENDBRANCH   1  25
TORSDOF 5
ENDMDL
MODEL 3
REMARK VINA RESULT:      -7.5      3.305      6.789
REMARK  Name = 
REMARK  5 active torsions:
REMARK  status: ('A' for Active; 'I' for Inactive)
REMARK    1  A    between atoms: C_2  and  C_3
REMARK    2  A    between atoms: C_3  and  C_4
REMARK    3  A    between atoms: C_7  and  C_8
REMARK    4  A    between atoms: C_20  and  C_21
REMARK    5  A    between atoms: N_24  and  C_25
REMARK                            x       y       z     vdW  Elec       q    Type
REMARK                         _______ _______ _______ _____ _____    ______ ____
ROOT
ATOM      1  C   UNL     1       1.834   6.239  -1.968  0.00  0.00    +0.028 A 
ATOM      2  C   UNL     1       1.620   6.822  -0.724  0.00  0.00    +0.062 A 
ATOM      3  C   UNL     1       0.427   6.519  -0.084  0.00  0.00    +0.055 A 
ATOM      4  C   UNL     1       0.057   7.392   0.930  0.00  0.00    +0.199 A 
ATOM      5  C   UNL     1       0.775   8.540   1.221  0.00  0.00    +0.066 A 
ATOM      6  C   UNL     1       2.019   8.680   0.617  0.00  0.00    +0.144 A 
ATOM      7  O   UNL     1      -1.134   7.335   1.358  0.00  0.00    -0.286 OA
ATOM      8  C   UNL     1      -0.585   5.901  -0.807  0.00  0.00    +0.011 A 
ATOM      9  C   UNL     1      -0.387   5.436  -2.101  0.00  0.00    +0.073 A 
ATOM     10  C   UNL     1      -1.483   5.207  -2.923  0.00  0.00    +0.202 A 
ATOM     11  O   UNL     1      -2.599   4.960  -2.390  0.00  0.00    -0.286 OA
ATOM     12  C   UNL     1      -1.485   5.576  -4.263  0.00  0.00    +0.086 A 
ATOM     13  C   UNL     1      -0.276   5.991  -4.805  0.00  0.00    +0.228 A 
ATOM     14  O   UNL     1       0.818   5.906  -4.072  0.00  0.00    -0.447 OA
ATOM     15  N   UNL     1       2.500   7.695  -0.179  0.00  0.00    -0.322 N 
ATOM     16  C   UNL     1       0.785   5.784  -2.758  0.00  0.00    +0.146 A 
ENDROOT
BRANCH   6  17
ATOM     17  C   UNL     1       2.895   9.691   1.223  0.00  0.00    +0.403 C 
ATOM     18  O   UNL     1       3.434   9.344   2.465  0.00  0.00    -0.239 OA
ATOM     19  O   UNL     1       2.766  10.901   0.871  0.00  0.00    -0.239 OA
ENDBRANCH   6  17
BRANCH  13  20
ATOM     20  C   UNL     1      -0.192   6.268  -6.244  0.00  0.00    +0.422 C 
ATOM     21  O   UNL     1      -1.049   5.570  -7.097  0.00  0.00    -0.237 OA
ATOM     22  O   UNL     1       0.903   6.659  -6.743  0.00  0.00    -0.237 OA
ENDBRANCH  13  20
BRANCH  15  23
ATOM     23  C   UNL     1       3.707   8.025  -0.932  0.00  0.00    +0.106 C 
ATOM     24  C   UNL     1       4.862   7.404  -0.156  0.00  0.00    +0.026 C 
ENDBRANCH  15  23
BRANCH   1  25
ATOM     25  C   UNL     1       3.181   6.284  -2.564  0.00  0.00    +0.031 C 
BRANCH  25  27
ATOM     26  C   UNL     1       4.430   4.759  -4.059  0.00  0.00    +0.000 C 
ATOM     27  C   UNL     1       3.750   4.887  -2.709  0.00  0.00    +0.005 C 
ENDBRANCH  25  27
ENDBRANCH   1  25
TORSDOF 5
ENDMDL
MODEL 4
REMARK VINA RESULT:      -7.4      2.582      6.289
REMARK  Name = 
REMARK  5 active torsions:
REMARK  status: ('A' for Active; 'I' for Inactive)
REMARK    1  A    between atoms: C_2  and  C_3
REMARK    2  A    between atoms: C_3  and  C_4
REMARK    3  A    between atoms: C_7  and  C_8
REMARK    4  A    between atoms: C_20  and  C_21
REMARK    5  A    between atoms: N_24  and  C_25
REMARK                            x       y       z     vdW  Elec       q    Type
REMARK                         _______ _______ _______ _____ _____    ______ ____
ROOT
ATOM      1  C   UNL     1       2.125   5.879  -3.412  0.00  0.00    +0.028 A 
ATOM      2  C   UNL     1       1.275   5.929  -2.314  0.00  0.00    +0.062 A 
ATOM      3  C   UNL     1       0.026   5.343  -2.458  0.00  0.00    +0.055 A 
ATOM      4  C   UNL     1      -0.929   5.741  -1.532  0.00  0.00    +0.199 A 
ATOM      5  C   UNL     1      -0.685   6.726  -0.590  0.00  0.00    +0.066 A 
ATOM      6  C   UNL     1       0.631   7.151  -0.443  0.00  0.00    +0.144 A 
ATOM      7  O   UNL     1      -2.142   5.463  -1.772  0.00  0.00    -0.286 OA
ATOM      8  C   UNL     1      -0.411   4.996  -3.730  0.00  0.00    +0.011 A 
ATOM      9  C   UNL     1       0.420   5.074  -4.840  0.00  0.00    +0.073 A 
ATOM     10  C   UNL     1      -0.136   5.120  -6.113  0.00  0.00    +0.202 A 
ATOM     11  O   UNL     1      -1.285   4.630  -6.289  0.00  0.00    -0.286 OA
ATOM     12  C   UNL     1       0.351   5.973  -7.095  0.00  0.00    +0.086 A 
ATOM     13  C   UNL     1       1.548   6.626  -6.828  0.00  0.00    +0.228 A 
ATOM     14  O   UNL     1       2.211   6.323  -5.729  0.00  0.00    -0.447 OA
ATOM     15  N   UNL     1       1.615   6.572  -1.171  0.00  0.00    -0.322 N 
ATOM     16  C   UNL     1       1.649   5.707  -4.706  0.00  0.00    +0.146 A 
ENDROOT
BRANCH   6  17
ATOM     17  C   UNL     1       0.908   7.897   0.791  0.00  0.00    +0.403 C 
ATOM     18  O   UNL     1       0.925   7.131   1.959  0.00  0.00    -0.239 OA
ATOM     19  O   UNL     1       0.675   9.142   0.818  0.00  0.00    -0.239 OA
ENDBRANCH   6  17
BRANCH  13  20
ATOM     20  C   UNL     1       2.173   7.436  -7.881  0.00  0.00    +0.422 C 
ATOM     21  O   UNL     1       3.262   6.894  -8.566  0.00  0.00    -0.237 OA
ATOM     22  O   UNL     1       2.124   8.699  -7.810  0.00  0.00    -0.237 OA
ENDBRANCH  13  20
BRANCH  15  23
ATOM     23  C   UNL     1       2.918   7.227  -1.105  0.00  0.00    +0.106 C 
ATOM     24  C   UNL     1       3.706   6.474  -0.040  0.00  0.00    +0.026 C 
ENDBRANCH  15  23
BRANCH   1  25
ATOM     25  C   UNL     1       3.549   6.218  -3.239  0.00  0.00    +0.031 C 
BRANCH  25  27
ATOM     26  C   UNL     1       5.126   4.846  -4.563  0.00  0.00    +0.000 C 
ATOM     27  C   UNL     1       4.403   4.967  -3.235  0.00  0.00    +0.005 C 
ENDBRANCH  25  27
ENDBRANCH   1  25
TORSDOF 5
ENDMDL
MODEL 5
REMARK VINA RESULT:      -7.3      2.769      6.381
REMARK  Name = 
REMARK  5 active torsions:
REMARK  status: ('A' for Active; 'I' for Inactive)
REMARK    1  A    between atoms: C_2  and  C_3
REMARK    2  A    between atoms: C_3  and  C_4
REMARK    3  A    between atoms: C_7  and  C_8
REMARK    4  A    between atoms: C_20  and  C_21
REMARK    5  A    between atoms: N_24  and  C_25
REMARK                            x       y       z     vdW  Elec       q    Type
REMARK                         _______ _______ _______ _____ _____    ______ ____
ROOT
ATOM      1  C   UNL     1       0.900   6.011  -2.812  0.00  0.00    +0.028 A 
ATOM      2  C   UNL     1      -0.239   6.191  -2.036  0.00  0.00    +0.062 A 
ATOM      3  C   UNL     1      -1.438   5.739  -2.566  0.00  0.00    +0.055 A 
ATOM      4  C   UNL     1      -2.583   6.270  -1.986  0.00  0.00    +0.199 A 
ATOM      5  C   UNL     1      -2.535   7.254  -1.014  0.00  0.00    +0.066 A 
ATOM      6  C   UNL     1      -1.292   7.539  -0.460  0.00  0.00    +0.144 A 
ATOM      7  O   UNL     1      -3.683   6.117  -2.596  0.00  0.00    -0.286 OA
ATOM      8  C   UNL     1      -1.493   5.399  -3.911  0.00  0.00    +0.011 A 
ATOM      9  C   UNL     1      -0.354   5.348  -4.704  0.00  0.00    +0.073 A 
ATOM     10  C   UNL     1      -0.476   5.411  -6.087  0.00  0.00    +0.202 A 
ATOM     11  O   UNL     1      -1.560   5.043  -6.616  0.00  0.00    -0.286 OA
ATOM     12  C   UNL     1       0.387   6.172  -6.866  0.00  0.00    +0.086 A 
ATOM     13  C   UNL     1       1.507   6.700  -6.235  0.00  0.00    +0.228 A 
ATOM     14  O   UNL     1       1.755   6.365  -4.984  0.00  0.00    -0.447 OA
ATOM     15  N   UNL     1      -0.202   6.832  -0.843  0.00  0.00    -0.322 N 
ATOM     16  C   UNL     1       0.835   5.848  -4.190  0.00  0.00    +0.146 A 
ENDROOT
BRANCH   6  17
ATOM     17  C   UNL     1      -1.330   8.292   0.800  0.00  0.00    +0.403 C 
ATOM     18  O   UNL     1      -2.120   7.729   1.806  0.00  0.00    -0.239 OA
ATOM     19  O   UNL     1      -1.066   9.531   0.780  0.00  0.00    -0.239 OA
ENDBRANCH   6  17
BRANCH  13  20
ATOM     20  C   UNL     1       2.517   7.401  -7.037  0.00  0.00    +0.422 C 
ATOM     21  O   UNL     1       2.092   8.440  -7.866  0.00  0.00    -0.237 OA
ATOM     22  O   UNL     1       3.567   6.790  -7.392  0.00  0.00    -0.237 OA
ENDBRANCH  13  20
BRANCH  15  23
ATOM     23  C   UNL     1       1.081   7.344  -0.370  0.00  0.00    +0.106 C 
ATOM     24  C   UNL     1       1.228   6.834   1.059  0.00  0.00    +0.026 C 
ENDBRANCH  15  23
BRANCH   1  25
ATOM     25  C   UNL     1       2.228   6.200  -2.200  0.00  0.00    +0.031 C 
BRANCH  25  27
ATOM     26  C   UNL     1       4.316   5.086  -2.921  0.00  0.00    +0.000 C 
ATOM     27  C   UNL     1       3.003   4.898  -2.186  0.00  0.00    +0.005 C 
ENDBRANCH  25  27
ENDBRANCH   1  25
TORSDOF 5
ENDMDL
MODEL 6
REMARK VINA RESULT:      -7.1      3.718      9.033
REMARK  Name = 
REMARK  5 active torsions:
REMARK  status: ('A' for Active; 'I' for Inactive)
REMARK    1  A    between atoms: C_2  and  C_3
REMARK    2  A    between atoms: C_3  and  C_4
REMARK    3  A    between atoms: C_7  and  C_8
REMARK    4  A    between atoms: C_20  and  C_21
REMARK    5  A    between atoms: N_24  and  C_25
REMARK                            x       y       z     vdW  Elec       q    Type
REMARK                         _______ _______ _______ _____ _____    ______ ____
ROOT
ATOM      1  C   UNL     1       2.410   6.343 -10.518  0.00  0.00    +0.028 A 
ATOM      2  C   UNL     1       3.360   6.239  -9.509  0.00  0.00    +0.062 A 
ATOM      3  C   UNL     1       4.689   6.170  -9.901  0.00  0.00    +0.055 A 
ATOM      4  C   UNL     1       5.567   5.674  -8.945  0.00  0.00    +0.199 A 
ATOM      5  C   UNL     1       5.137   5.190  -7.722  0.00  0.00    +0.066 A 
ATOM      6  C   UNL     1       3.811   5.427  -7.376  0.00  0.00    +0.144 A 
ATOM      7  O   UNL     1       6.725   5.329  -9.325  0.00  0.00    -0.286 OA
ATOM      8  C   UNL     1       4.984   5.931 -11.236  0.00  0.00    +0.011 A 
ATOM      9  C   UNL     1       4.000   5.913 -12.216  0.00  0.00    +0.073 A 
ATOM     10  C   UNL     1       4.250   5.285 -13.430  0.00  0.00    +0.202 A 
ATOM     11  O   UNL     1       5.445   5.167 -13.816  0.00  0.00    -0.286 OA
ATOM     12  C   UNL     1       3.298   4.488 -14.053  0.00  0.00    +0.086 A 
ATOM     13  C   UNL     1       2.013   4.510 -13.525  0.00  0.00    +0.228 A 
ATOM     14  O   UNL     1       1.734   5.358 -12.553  0.00  0.00    -0.447 OA
ATOM     15  N   UNL     1       3.014   6.145  -8.203  0.00  0.00    -0.322 N 
ATOM     16  C   UNL     1       2.669   5.930 -11.819  0.00  0.00    +0.146 A 
ENDROOT
BRANCH   6  17
ATOM     17  C   UNL     1       3.496   5.244  -5.953  0.00  0.00    +0.403 C 
ATOM     18  O   UNL     1       4.284   5.987  -5.069  0.00  0.00    -0.239 OA
ATOM     19  O   UNL     1       2.915   4.180  -5.588  0.00  0.00    -0.239 OA
ENDBRANCH   6  17
BRANCH  13  20
ATOM     20  C   UNL     1       0.939   3.790 -14.221  0.00  0.00    +0.422 C 
ATOM     21  O   UNL     1       1.152   2.449 -14.546  0.00  0.00    -0.237 OA
ATOM     22  O   UNL     1       0.136   4.428 -14.962  0.00  0.00    -0.237 OA
ENDBRANCH  13  20
BRANCH  15  23
ATOM     23  C   UNL     1       1.595   6.156  -7.859  0.00  0.00    +0.106 C 
ATOM     24  C   UNL     1       1.404   7.347  -6.927  0.00  0.00    +0.026 C 
ENDBRANCH  15  23
BRANCH   1  25
ATOM     25  C   UNL     1       1.025   6.707 -10.170  0.00  0.00    +0.031 C 
BRANCH  25  27
ATOM     26  C   UNL     1      -1.131   7.063 -11.331  0.00  0.00    +0.000 C 
ATOM     27  C   UNL     1       0.346   7.407 -11.330  0.00  0.00    +0.005 C 
ENDBRANCH  25  27
ENDBRANCH   1  25
TORSDOF 5
ENDMDL
MODEL 7
REMARK VINA RESULT:      -6.9      5.629      9.315
REMARK  Name = 
REMARK  5 active torsions:
REMARK  status: ('A' for Active; 'I' for Inactive)
REMARK    1  A    between atoms: C_2  and  C_3
REMARK    2  A    between atoms: C_3  and  C_4
REMARK    3  A    between atoms: C_7  and  C_8
REMARK    4  A    between atoms: C_20  and  C_21
REMARK    5  A    between atoms: N_24  and  C_25
REMARK                            x       y       z     vdW  Elec       q    Type
REMARK                         _______ _______ _______ _____ _____    ______ ____
ROOT
ATOM      1  C   UNL     1       2.332   5.974 -12.897  0.00  0.00    +0.028 A 
ATOM      2  C   UNL     1       2.859   6.277 -14.147  0.00  0.00    +0.062 A 
ATOM      3  C   UNL     1       4.197   5.976 -14.355  0.00  0.00    +0.055 A 
ATOM      4  C   UNL     1       4.795   6.631 -15.424  0.00  0.00    +0.199 A 
ATOM      5  C   UNL     1       4.133   7.590 -16.171  0.00  0.00    +0.066 A 
ATOM      6  C   UNL     1       2.764   7.719 -15.968  0.00  0.00    +0.144 A 
ATOM      7  O   UNL     1       6.060   6.616 -15.497  0.00  0.00    -0.286 OA
ATOM      8  C   UNL     1       4.993   5.662 -13.262  0.00  0.00    +0.011 A 
ATOM      9  C   UNL     1       4.462   5.486 -11.990  0.00  0.00    +0.073 A 
ATOM     10  C   UNL     1       5.292   5.581 -10.880  0.00  0.00    +0.202 A 
ATOM     11  O   UNL     1       6.524   5.350 -11.024  0.00  0.00    -0.286 OA
ATOM     12  C   UNL     1       4.899   6.244  -9.724  0.00  0.00    +0.086 A 
ATOM     13  C   UNL     1       3.567   6.629  -9.640  0.00  0.00    +0.228 A 
ATOM     14  O   UNL     1       2.730   6.251 -10.586  0.00  0.00    -0.447 OA
ATOM     15  N   UNL     1       2.127   6.894 -15.104  0.00  0.00    -0.322 N 
ATOM     16  C   UNL     1       3.137   5.837 -11.772  0.00  0.00    +0.146 A 
ENDROOT
BRANCH   6  17
ATOM     17  C   UNL     1       2.047   8.456 -17.017  0.00  0.00    +0.403 C 
ATOM     18  O   UNL     1       1.972   7.810 -18.253  0.00  0.00    -0.239 OA
ATOM     19  O   UNL     1       1.948   9.715 -16.920  0.00  0.00    -0.239 OA
ENDBRANCH   6  17
BRANCH  13  20
ATOM     20  C   UNL     1       3.068   7.216  -8.390  0.00  0.00    +0.422 C 
ATOM     21  O   UNL     1       3.427   6.603  -7.188  0.00  0.00    -0.237 OA
ATOM     22  O   UNL     1       1.976   7.856  -8.392  0.00  0.00    -0.237 OA
ENDBRANCH  13  20
BRANCH  15  23
ATOM     23  C   UNL     1       0.743   7.245 -14.800  0.00  0.00    +0.106 C 
ATOM     24  C   UNL     1      -0.110   6.464 -15.794  0.00  0.00    +0.026 C 
ENDBRANCH  15  23
BRANCH   1  25
ATOM     25  C   UNL     1       0.871   5.997 -12.704  0.00  0.00    +0.031 C 
BRANCH  25  27
ATOM     26  C   UNL     1      -0.196   4.539 -11.013  0.00  0.00    +0.000 C 
ATOM     27  C   UNL     1       0.344   4.603 -12.430  0.00  0.00    +0.005 C 
ENDBRANCH  25  27
ENDBRANCH   1  25
TORSDOF 5
ENDMDL
MODEL 8
REMARK VINA RESULT:      -6.7      2.847      6.007
REMARK  Name = 
REMARK  5 active torsions:
REMARK  status: ('A' for Active; 'I' for Inactive)
REMARK    1  A    between atoms: C_2  and  C_3
REMARK    2  A    between atoms: C_3  and  C_4
REMARK    3  A    between atoms: C_7  and  C_8
REMARK    4  A    between atoms: C_20  and  C_21
REMARK    5  A    between atoms: N_24  and  C_25
REMARK                            x       y       z     vdW  Elec       q    Type
REMARK                         _______ _______ _______ _____ _____    ______ ____
ROOT
ATOM      1  C   UNL     1       1.370   5.458  -6.094  0.00  0.00    +0.028 A 
ATOM      2  C   UNL     1       0.056   5.711  -5.718  0.00  0.00    +0.062 A 
ATOM      3  C   UNL     1      -0.939   5.280  -6.583  0.00  0.00    +0.055 A 
ATOM      4  C   UNL     1      -2.181   5.875  -6.405  0.00  0.00    +0.199 A 
ATOM      5  C   UNL     1      -2.391   6.898  -5.496  0.00  0.00    +0.066 A 
ATOM      6  C   UNL     1      -1.369   7.162  -4.590  0.00  0.00    +0.144 A 
ATOM      7  O   UNL     1      -3.043   5.736  -7.323  0.00  0.00    -0.286 OA
ATOM      8  C   UNL     1      -0.589   4.884  -7.867  0.00  0.00    +0.011 A 
ATOM      9  C   UNL     1       0.736   4.759  -8.263  0.00  0.00    +0.073 A 
ATOM     10  C   UNL     1       1.053   4.767  -9.616  0.00  0.00    +0.202 A 
ATOM     11  O   UNL     1       0.171   4.415 -10.446  0.00  0.00    -0.286 OA
ATOM     12  C   UNL     1       2.150   5.462 -10.108  0.00  0.00    +0.086 A 
ATOM     13  C   UNL     1       3.042   5.977  -9.176  0.00  0.00    +0.228 A 
ATOM     14  O   UNL     1       2.873   5.687  -7.900  0.00  0.00    -0.447 OA
ATOM     15  N   UNL     1      -0.249   6.401  -4.593  0.00  0.00    -0.322 N 
ATOM     16  C   UNL     1       1.729   5.239  -7.418  0.00  0.00    +0.146 A 
ENDROOT
BRANCH   6  17
ATOM     17  C   UNL     1      -1.761   7.970  -3.428  0.00  0.00    +0.403 C 
ATOM     18  O   UNL     1      -2.439   7.275  -2.423  0.00  0.00    -0.239 OA
ATOM     19  O   UNL     1      -1.886   9.222  -3.569  0.00  0.00    -0.239 OA
ENDBRANCH   6  17
BRANCH  13  20
ATOM     20  C   UNL     1       4.283   6.607  -9.642  0.00  0.00    +0.422 C 
ATOM     21  O   UNL     1       4.264   7.261 -10.875  0.00  0.00    -0.237 OA
ATOM     22  O   UNL     1       5.399   6.141  -9.269  0.00  0.00    -0.237 OA
ENDBRANCH  13  20
BRANCH  15  23
ATOM     23  C   UNL     1       0.846   6.887  -3.759  0.00  0.00    +0.106 C 
ATOM     24  C   UNL     1       0.804   6.044  -2.490  0.00  0.00    +0.026 C 
ENDBRANCH  15  23
BRANCH   1  25
ATOM     25  C   UNL     1       2.449   5.625  -5.104  0.00  0.00    +0.031 C 
BRANCH  25  27
ATOM     26  C   UNL     1       4.622   4.695  -4.373  0.00  0.00    +0.000 C 
ATOM     27  C   UNL     1       3.279   4.362  -4.995  0.00  0.00    +0.005 C 
ENDBRANCH  25  27
ENDBRANCH   1  25
TORSDOF 5
ENDMDL
MODEL 9
REMARK VINA RESULT:      -6.6      1.744      6.994
REMARK  Name = 
REMARK  5 active torsions:
REMARK  status: ('A' for Active; 'I' for Inactive)
REMARK    1  A    between atoms: C_2  and  C_3
REMARK    2  A    between atoms: C_3  and  C_4
REMARK    3  A    between atoms: C_7  and  C_8
REMARK    4  A    between atoms: C_20  and  C_21
REMARK    5  A    between atoms: N_24  and  C_25
REMARK                            x       y       z     vdW  Elec       q    Type
REMARK                         _______ _______ _______ _____ _____    ______ ____
ROOT
ATOM      1  C   UNL     1       0.660   6.804  -5.907  0.00  0.00    +0.028 A 
ATOM      2  C   UNL     1       1.464   6.677  -4.780  0.00  0.00    +0.062 A 
ATOM      3  C   UNL     1       2.821   6.914  -4.946  0.00  0.00    +0.055 A 
ATOM      4  C   UNL     1       3.640   6.405  -3.946  0.00  0.00    +0.199 A 
ATOM      5  C   UNL     1       3.152   5.631  -2.908  0.00  0.00    +0.066 A 
ATOM      6  C   UNL     1       1.771   5.565  -2.761  0.00  0.00    +0.144 A 
ATOM      7  O   UNL     1       4.885   6.344  -4.173  0.00  0.00    -0.286 OA
ATOM      8  C   UNL     1       3.338   6.988  -6.232  0.00  0.00    +0.011 A 
ATOM      9  C   UNL     1       2.521   6.987  -7.355  0.00  0.00    +0.073 A 
ATOM     10  C   UNL     1       3.056   6.653  -8.594  0.00  0.00    +0.202 A 
ATOM     11  O   UNL     1       4.292   6.819  -8.783  0.00  0.00    -0.286 OA
ATOM     12  C   UNL     1       2.378   5.837  -9.490  0.00  0.00    +0.086 A 
ATOM     13  C   UNL     1       1.055   5.536  -9.193  0.00  0.00    +0.228 A 
ATOM     14  O   UNL     1       0.481   6.122  -8.160  0.00  0.00    -0.447 OA
ATOM     15  N   UNL     1       0.967   6.278  -3.585  0.00  0.00    -0.322 N 
ATOM     16  C   UNL     1       1.173   6.697  -7.194  0.00  0.00    +0.146 A 
ENDROOT
BRANCH   6  17
ATOM     17  C   UNL     1       1.308   5.063  -1.461  0.00  0.00    +0.403 C 
ATOM     18  O   UNL     1       1.862   5.697  -0.346  0.00  0.00    -0.239 OA
ATOM     19  O   UNL     1       0.841   3.887  -1.390  0.00  0.00    -0.239 OA
ENDBRANCH   6  17
BRANCH  13  20
ATOM     20  C   UNL     1       0.253   4.786 -10.168  0.00  0.00    +0.422 C 
ATOM     21  O   UNL     1       0.648   3.484 -10.479  0.00  0.00    -0.237 OA
ATOM     22  O   UNL     1      -0.385   5.411 -11.065  0.00  0.00    -0.237 OA
ENDBRANCH  13  20
BRANCH  15  23
ATOM     23  C   UNL     1      -0.458   5.978  -3.491  0.00  0.00    +0.106 C 
ATOM     24  C   UNL     1      -1.006   6.904  -2.412  0.00  0.00    +0.026 C 
ENDBRANCH  15  23
BRANCH   1  25
ATOM     25  C   UNL     1      -0.804   6.851  -5.747  0.00  0.00    +0.031 C 
BRANCH  25  27
ATOM     26  C   UNL     1      -2.958   5.726  -6.213  0.00  0.00    +0.000 C 
ATOM     27  C   UNL     1      -1.453   5.637  -6.380  0.00  0.00    +0.005 C 
ENDBRANCH  25  27
ENDBRANCH   1  25
TORSDOF 5
ENDMDL
