MODEL 1
REMARK VINA RESULT:      -8.9      0.000      0.000
REMARK  Name = 
REMARK  7 active torsions:
REMARK  status: ('A' for Active; 'I' for Inactive)
REMARK    1  A    between atoms: N_7  and  C_8
REMARK    2  A    between atoms: C_11  and  O_12
REMARK    3  A    between atoms: O_12  and  C_13
REMARK    4  A    between atoms: C_13  and  C_14
REMARK    5  A    between atoms: C_17  and  C_18
REMARK    6  A    between atoms: C_17  and  C_24
REMARK    7  A    between atoms: C_18  and  N_19
REMARK                            x       y       z     vdW  Elec       q    Type
REMARK                         _______ _______ _______ _____ _____    ______ ____
ROOT
ATOM      1  C   UNL     1       1.851   5.578  -4.704  0.00  0.00    +0.191 C 
ATOM      2  O   UNL     1       2.565   6.537  -5.690  0.00  0.00    -0.325 OA
ATOM      3  C   UNL     1       1.544   6.435  -6.617  0.00  0.00    +0.230 C 
ATOM      4  O   UNL     1       1.750   5.093  -6.990  0.00  0.00    -0.327 OA
ATOM      5  C   UNL     1       1.818   4.350  -5.848  0.00  0.00    +0.178 C 
ENDROOT
BRANCH   3   6
ATOM      6  C   UNL     1       0.193   6.484  -6.005  0.00  0.00    +0.041 A 
ATOM      7  C   UNL     1      -0.846   5.657  -6.418  0.00  0.00    +0.059 A 
ATOM      8 CL   UNL     1      -0.857   5.236  -8.129  0.00  0.00    -0.082 Cl
ATOM      9  C   UNL     1      -1.976   5.506  -5.625  0.00  0.00    +0.023 A 
ATOM     10  C   UNL     1      -2.236   6.389  -4.584  0.00  0.00    +0.058 A 
ATOM     11 CL   UNL     1      -3.524   6.105  -3.421  0.00  0.00    -0.082 Cl
ATOM     12  C   UNL     1      -1.346   7.433  -4.376  0.00  0.00    +0.011 A 
ATOM     13  C   UNL     1      -0.075   7.256  -4.879  0.00  0.00    +0.002 A 
ENDBRANCH   3   6
BRANCH   1  14
ATOM     14  C   UNL     1       3.319   5.019  -4.105  0.00  0.00    +0.237 C 
BRANCH  14  15
ATOM     15  O   UNL     1       3.940   6.260  -3.908  0.00  0.00    -0.473 OA
BRANCH  15  19
ATOM     16  C   UNL     1       3.819   7.992  -0.125  0.00  0.00    +0.048 A 
ATOM     17  C   UNL     1       4.014   6.630  -0.267  0.00  0.00    +0.018 A 
ATOM     18  C   UNL     1       4.276   6.061  -1.505  0.00  0.00    +0.038 A 
ATOM     19  C   UNL     1       4.242   6.823  -2.665  0.00  0.00    +0.139 A 
ATOM     20  C   UNL     1       3.799   8.135  -2.520  0.00  0.00    +0.038 A 
ATOM     21  C   UNL     1       3.856   8.733  -1.290  0.00  0.00    +0.018 A 
BRANCH  16  27
ATOM     22  C   UNL     1      -0.216  10.321   2.394  0.00  0.00    +0.095 C 
ATOM     23  C   UNL     1      -0.102   9.663   1.554  0.00  0.00    +0.226 C 
ATOM     24  N   UNL     1       1.167   9.178   1.100  0.00  0.00    -0.276 N 
ATOM     25  C   UNL     1       2.064  10.162   0.556  0.00  0.00    +0.115 C 
ATOM     26  C   UNL     1       3.468  10.063   1.127  0.00  0.00    +0.112 C 
ATOM     27  N   UNL     1       3.763   8.630   1.158  0.00  0.00    -0.304 N 
ATOM     28  C   UNL     1       2.983   7.919   2.172  0.00  0.00    +0.112 C 
ATOM     29  C   UNL     1       1.565   7.886   1.612  0.00  0.00    +0.115 C 
ATOM     30  O   UNL     1      -1.085   9.337   0.823  0.00  0.00    -0.275 OA
ENDBRANCH  16  27
ENDBRANCH  15  19
ENDBRANCH  14  15
ENDBRANCH   1  14
BRANCH   3  31
ATOM     31  C   UNL     1       1.697   7.199  -7.868  0.00  0.00    +0.168 C 
BRANCH  31  32
ATOM     32  N   UNL     1       2.343   6.542  -8.966  0.00  0.00    -0.302 N 
ATOM     33  C   UNL     1       3.625   6.843  -9.300  0.00  0.00    +0.179 A 
ATOM     34  N   UNL     1       3.928   6.216 -10.442  0.00  0.00    -0.222 NA
ATOM     35  C   UNL     1       2.739   5.971 -11.037  0.00  0.00    +0.119 A 
ATOM     36  C   UNL     1       1.750   6.445 -10.183  0.00  0.00    +0.098 A 
ENDBRANCH  31  32
ENDBRANCH   3  31
TORSDOF 7
ENDMDL
MODEL 2
REMARK VINA RESULT:      -8.6      3.492      8.711
REMARK  Name = 
REMARK  7 active torsions:
REMARK  status: ('A' for Active; 'I' for Inactive)
REMARK    1  A    between atoms: N_7  and  C_8
REMARK    2  A    between atoms: C_11  and  O_12
REMARK    3  A    between atoms: O_12  and  C_13
REMARK    4  A    between atoms: C_13  and  C_14
REMARK    5  A    between atoms: C_17  and  C_18
REMARK    6  A    between atoms: C_17  and  C_24
REMARK    7  A    between atoms: C_18  and  N_19
REMARK                            x       y       z     vdW  Elec       q    Type
REMARK                         _______ _______ _______ _____ _____    ______ ____
ROOT
ATOM      1  C   UNL     1       3.889   8.440  -0.127  0.00  0.00    +0.191 C 
ATOM      2  O   UNL     1       2.367   8.172  -0.233  0.00  0.00    -0.325 OA
ATOM      3  C   UNL     1       2.080   9.071   0.778  0.00  0.00    +0.230 C 
ATOM      4  O   UNL     1       2.641   8.350   1.849  0.00  0.00    -0.327 OA
ATOM      5  C   UNL     1       3.905   7.985   1.490  0.00  0.00    +0.178 C 
ENDROOT
BRANCH   3   6
ATOM      6  C   UNL     1       2.866  10.327   0.680  0.00  0.00    +0.041 A 
ATOM      7  C   UNL     1       3.355  10.992   1.799  0.00  0.00    +0.059 A 
ATOM      8 CL   UNL     1       2.360  10.888   3.249  0.00  0.00    -0.082 Cl
ATOM      9  C   UNL     1       4.338  11.964   1.660  0.00  0.00    +0.023 A 
ATOM     10  C   UNL     1       4.626  12.509   0.415  0.00  0.00    +0.058 A 
ATOM     11 CL   UNL     1       6.006  13.568   0.157  0.00  0.00    -0.082 Cl
ATOM     12  C   UNL     1       3.891  12.068  -0.676  0.00  0.00    +0.011 A 
ATOM     13  C   UNL     1       3.287  10.836  -0.544  0.00  0.00    +0.002 A 
ENDBRANCH   3   6
BRANCH   1  14
ATOM     14  C   UNL     1       4.251   6.869  -0.602  0.00  0.00    +0.237 C 
BRANCH  14  15
ATOM     15  O   UNL     1       5.091   7.175  -1.681  0.00  0.00    -0.473 OA
BRANCH  15  19
ATOM     16  C   UNL     1       3.563   5.860  -5.323  0.00  0.00    +0.048 A 
ATOM     17  C   UNL     1       3.906   7.189  -5.145  0.00  0.00    +0.018 A 
ATOM     18  C   UNL     1       4.615   7.610  -4.029  0.00  0.00    +0.038 A 
ATOM     19  C   UNL     1       4.910   6.732  -2.995  0.00  0.00    +0.139 A 
ATOM     20  C   UNL     1       4.339   5.466  -3.087  0.00  0.00    +0.038 A 
ATOM     21  C   UNL     1       3.930   4.999  -4.307  0.00  0.00    +0.018 A 
BRANCH  16  27
ATOM     22  C   UNL     1      -1.454   5.275  -6.913  0.00  0.00    +0.095 C 
ATOM     23  C   UNL     1      -0.946   5.797  -6.125  0.00  0.00    +0.226 C 
ATOM     24  N   UNL     1       0.475   5.770  -5.952  0.00  0.00    -0.276 N 
ATOM     25  C   UNL     1       1.048   4.500  -5.593  0.00  0.00    +0.115 C 
ATOM     26  C   UNL     1       2.249   4.130  -6.446  0.00  0.00    +0.112 C 
ATOM     27  N   UNL     1       3.027   5.365  -6.558  0.00  0.00    -0.304 N 
ATOM     28  C   UNL     1       2.370   6.368  -7.397  0.00  0.00    +0.112 C 
ATOM     29  C   UNL     1       1.201   6.866  -6.553  0.00  0.00    +0.115 C 
ATOM     30  O   UNL     1      -1.580   6.403  -5.209  0.00  0.00    -0.275 OA
ENDBRANCH  16  27
ENDBRANCH  15  19
ENDBRANCH  14  15
ENDBRANCH   1  14
BRANCH   3  31
ATOM     31  C   UNL     1       0.663   9.242   1.142  0.00  0.00    +0.168 C 
BRANCH  31  32
ATOM     32  N   UNL     1      -0.237   8.182   0.797  0.00  0.00    -0.302 N 
ATOM     33  C   UNL     1      -1.362   8.430   0.076  0.00  0.00    +0.179 A 
ATOM     34  N   UNL     1      -2.097   7.313   0.031  0.00  0.00    -0.222 NA
ATOM     35  C   UNL     1      -1.696   6.583   1.096  0.00  0.00    +0.119 A 
ATOM     36  C   UNL     1      -0.688   7.301   1.727  0.00  0.00    +0.098 A 
ENDBRANCH  31  32
ENDBRANCH   3  31
TORSDOF 7
ENDMDL
MODEL 3
REMARK VINA RESULT:      -8.2      1.509      1.981
REMARK  Name = 
REMARK  7 active torsions:
REMARK  status: ('A' for Active; 'I' for Inactive)
REMARK    1  A    between atoms: N_7  and  C_8
REMARK    2  A    between atoms: C_11  and  O_12
REMARK    3  A    between atoms: O_12  and  C_13
REMARK    4  A    between atoms: C_13  and  C_14
REMARK    5  A    between atoms: C_17  and  C_18
REMARK    6  A    between atoms: C_17  and  C_24
REMARK    7  A    between atoms: C_18  and  N_19
REMARK                            x       y       z     vdW  Elec       q    Type
REMARK                         _______ _______ _______ _____ _____    ______ ____
ROOT
ATOM      1  C   UNL     1       2.270   5.302  -5.137  0.00  0.00    +0.191 C 
ATOM      2  O   UNL     1       3.062   6.220  -6.101  0.00  0.00    -0.325 OA
ATOM      3  C   UNL     1       2.069   6.165  -7.062  0.00  0.00    +0.230 C 
ATOM      4  O   UNL     1       2.219   4.813  -7.424  0.00  0.00    -0.327 OA
ATOM      5  C   UNL     1       2.213   4.072  -6.279  0.00  0.00    +0.178 C 
ENDROOT
BRANCH   3   6
ATOM      6  C   UNL     1       0.702   6.283  -6.494  0.00  0.00    +0.041 A 
ATOM      7  C   UNL     1      -0.386   5.591  -7.013  0.00  0.00    +0.059 A 
ATOM      8 CL   UNL     1      -0.362   5.318  -8.754  0.00  0.00    -0.082 Cl
ATOM      9  C   UNL     1      -1.557   5.476  -6.275  0.00  0.00    +0.023 A 
ATOM     10  C   UNL     1      -1.783   6.288  -5.171  0.00  0.00    +0.058 A 
ATOM     11 CL   UNL     1      -3.138   6.026  -4.082  0.00  0.00    -0.082 Cl
ATOM     12  C   UNL     1      -0.816   7.227  -4.842  0.00  0.00    +0.011 A 
ATOM     13  C   UNL     1       0.456   6.979  -5.315  0.00  0.00    +0.002 A 
ENDBRANCH   3   6
BRANCH   1  14
ATOM     14  C   UNL     1       3.687   4.673  -4.488  0.00  0.00    +0.237 C 
BRANCH  14  15
ATOM     15  O   UNL     1       4.037   5.762  -3.679  0.00  0.00    -0.473 OA
BRANCH  15  19
ATOM     16  C   UNL     1       3.023   7.291   0.058  0.00  0.00    +0.048 A 
ATOM     17  C   UNL     1       2.040   7.008  -0.874  0.00  0.00    +0.018 A 
ATOM     18  C   UNL     1       2.324   6.299  -2.033  0.00  0.00    +0.038 A 
ATOM     19  C   UNL     1       3.628   5.946  -2.354  0.00  0.00    +0.139 A 
ATOM     20  C   UNL     1       4.622   6.459  -1.526  0.00  0.00    +0.038 A 
ATOM     21  C   UNL     1       4.299   6.868  -0.260  0.00  0.00    +0.018 A 
BRANCH  16  27
ATOM     22  C   UNL     1       3.895  12.103   2.092  0.00  0.00    +0.095 C 
ATOM     23  C   UNL     1       3.896  11.663   1.113  0.00  0.00    +0.226 C 
ATOM     24  N   UNL     1       3.601  10.282   0.870  0.00  0.00    -0.276 N 
ATOM     25  C   UNL     1       4.545   9.330   1.391  0.00  0.00    +0.115 C 
ATOM     26  C   UNL     1       3.883   8.199   2.158  0.00  0.00    +0.112 C 
ATOM     27  N   UNL     1       2.720   7.826   1.353  0.00  0.00    -0.304 N 
ATOM     28  C   UNL     1       1.672   8.847   1.375  0.00  0.00    +0.112 C 
ATOM     29  C   UNL     1       2.228   9.985   0.526  0.00  0.00    +0.115 C 
ATOM     30  O   UNL     1       4.264  12.313   0.089  0.00  0.00    -0.275 OA
ENDBRANCH  16  27
ENDBRANCH  15  19
ENDBRANCH  14  15
ENDBRANCH   1  14
BRANCH   3  31
ATOM     31  C   UNL     1       2.300   6.915  -8.309  0.00  0.00    +0.168 C 
BRANCH  31  32
ATOM     32  N   UNL     1       3.010   6.245  -9.358  0.00  0.00    -0.302 N 
ATOM     33  C   UNL     1       4.338   6.460  -9.548  0.00  0.00    +0.179 A 
ATOM     34  N   UNL     1       4.714   5.846 -10.675  0.00  0.00    -0.222 NA
ATOM     35  C   UNL     1       3.579   5.707 -11.397  0.00  0.00    +0.119 A 
ATOM     36  C   UNL     1       2.542   6.227 -10.633  0.00  0.00    +0.098 A 
ENDBRANCH  31  32
ENDBRANCH   3  31
TORSDOF 7
ENDMDL
MODEL 4
REMARK VINA RESULT:      -8.1      2.694      9.200
REMARK  Name = 
REMARK  7 active torsions:
REMARK  status: ('A' for Active; 'I' for Inactive)
REMARK    1  A    between atoms: N_7  and  C_8
REMARK    2  A    between atoms: C_11  and  O_12
REMARK    3  A    between atoms: O_12  and  C_13
REMARK    4  A    between atoms: C_13  and  C_14
REMARK    5  A    between atoms: C_17  and  C_18
REMARK    6  A    between atoms: C_17  and  C_24
REMARK    7  A    between atoms: C_18  and  N_19
REMARK                            x       y       z     vdW  Elec       q    Type
REMARK                         _______ _______ _______ _____ _____    ______ ____
ROOT
ATOM      1  C   UNL     1       3.501   5.889  -6.137  0.00  0.00    +0.191 C 
ATOM      2  O   UNL     1       3.888   4.993  -4.934  0.00  0.00    -0.325 OA
ATOM      3  C   UNL     1       2.914   5.554  -4.129  0.00  0.00    +0.230 C 
ATOM      4  O   UNL     1       3.479   6.838  -3.999  0.00  0.00    -0.327 OA
ATOM      5  C   UNL     1       3.785   7.286  -5.250  0.00  0.00    +0.178 C 
ENDROOT
BRANCH   3   6
ATOM      6  C   UNL     1       1.620   5.750  -4.832  0.00  0.00    +0.041 A 
ATOM      7  C   UNL     1       0.958   4.715  -5.481  0.00  0.00    +0.059 A 
ATOM      8 CL   UNL     1       1.986   3.488  -6.216  0.00  0.00    -0.082 Cl
ATOM      9  C   UNL     1      -0.376   4.857  -5.841  0.00  0.00    +0.023 A 
ATOM     10  C   UNL     1      -0.979   6.109  -5.851  0.00  0.00    +0.058 A 
ATOM     11 CL   UNL     1      -2.712   6.307  -6.080  0.00  0.00    -0.082 Cl
ATOM     12  C   UNL     1      -0.206   7.209  -5.510  0.00  0.00    +0.011 A 
ATOM     13  C   UNL     1       0.919   6.949  -4.757  0.00  0.00    +0.002 A 
ENDBRANCH   3   6
BRANCH   1  14
ATOM     14  C   UNL     1       5.082   5.895  -6.707  0.00  0.00    +0.237 C 
BRANCH  14  15
ATOM     15  O   UNL     1       4.874   5.162  -7.883  0.00  0.00    -0.473 OA
BRANCH  15  19
ATOM     16  C   UNL     1       1.291   5.737  -9.923  0.00  0.00    +0.048 A 
ATOM     17  C   UNL     1       2.003   6.820  -9.437  0.00  0.00    +0.018 A 
ATOM     18  C   UNL     1       3.295   6.677  -8.951  0.00  0.00    +0.038 A 
ATOM     19  C   UNL     1       3.880   5.424  -8.832  0.00  0.00    +0.139 A 
ATOM     20  C   UNL     1       3.053   4.336  -9.093  0.00  0.00    +0.038 A 
ATOM     21  C   UNL     1       1.927   4.513  -9.851  0.00  0.00    +0.018 A 
BRANCH  16  27
ATOM     22  C   UNL     1       0.313   6.522 -15.068  0.00  0.00    +0.095 C 
ATOM     23  C   UNL     1       1.152   6.209 -14.477  0.00  0.00    +0.226 C 
ATOM     24  N   UNL     1       1.106   6.079 -13.052  0.00  0.00    -0.276 N 
ATOM     25  C   UNL     1       0.931   7.297 -12.308  0.00  0.00    +0.115 C 
ATOM     26  C   UNL     1      -0.155   7.195 -11.250  0.00  0.00    +0.112 C 
ATOM     27  N   UNL     1       0.049   5.888 -10.624  0.00  0.00    -0.304 N 
ATOM     28  C   UNL     1      -0.301   4.779 -11.513  0.00  0.00    +0.112 C 
ATOM     29  C   UNL     1       0.815   4.753 -12.552  0.00  0.00    +0.115 C 
ATOM     30  O   UNL     1       2.297   6.026 -14.989  0.00  0.00    -0.275 OA
ENDBRANCH  16  27
ENDBRANCH  15  19
ENDBRANCH  14  15
ENDBRANCH   1  14
BRANCH   3  31
ATOM     31  C   UNL     1       2.811   5.049  -2.749  0.00  0.00    +0.168 C 
BRANCH  31  32
ATOM     32  N   UNL     1       2.864   6.012  -1.690  0.00  0.00    -0.302 N 
ATOM     33  C   UNL     1       3.735   5.865  -0.658  0.00  0.00    +0.179 A 
ATOM     34  N   UNL     1       3.472   6.800   0.262  0.00  0.00    -0.222 NA
ATOM     35  C   UNL     1       2.187   7.159   0.042  0.00  0.00    +0.119 A 
ATOM     36  C   UNL     1       1.740   6.428  -1.051  0.00  0.00    +0.098 A 
ENDBRANCH  31  32
ENDBRANCH   3  31
TORSDOF 7
ENDMDL
MODEL 5
REMARK VINA RESULT:      -7.9      2.598      5.450
REMARK  Name = 
REMARK  7 active torsions:
REMARK  status: ('A' for Active; 'I' for Inactive)
REMARK    1  A    between atoms: N_7  and  C_8
REMARK    2  A    between atoms: C_11  and  O_12
REMARK    3  A    between atoms: O_12  and  C_13
REMARK    4  A    between atoms: C_13  and  C_14
REMARK    5  A    between atoms: C_17  and  C_18
REMARK    6  A    between atoms: C_17  and  C_24
REMARK    7  A    between atoms: C_18  and  N_19
REMARK                            x       y       z     vdW  Elec       q    Type
REMARK                         _______ _______ _______ _____ _____    ______ ____
ROOT
ATOM      1  C   UNL     1       0.863   5.362  -6.861  0.00  0.00    +0.191 C 
ATOM      2  O   UNL     1       1.459   6.195  -5.699  0.00  0.00    -0.325 OA
ATOM      3  C   UNL     1       2.735   5.719  -5.935  0.00  0.00    +0.230 C 
ATOM      4  O   UNL     1       2.525   4.385  -5.536  0.00  0.00    -0.327 OA
ATOM      5  C   UNL     1       1.411   3.929  -6.178  0.00  0.00    +0.178 C 
ENDROOT
BRANCH   3   6
ATOM      6  C   UNL     1       3.078   5.661  -7.379  0.00  0.00    +0.041 A 
ATOM      7  C   UNL     1       3.168   6.799  -8.172  0.00  0.00    +0.059 A 
ATOM      8 CL   UNL     1       2.072   8.114  -7.755  0.00  0.00    -0.082 Cl
ATOM      9  C   UNL     1       3.792   6.738  -9.411  0.00  0.00    +0.023 A 
ATOM     10  C   UNL     1       4.055   5.515 -10.015  0.00  0.00    +0.058 A 
ATOM     11 CL   UNL     1       5.039   5.384 -11.467  0.00  0.00    -0.082 Cl
ATOM     12  C   UNL     1       3.658   4.362  -9.353  0.00  0.00    +0.011 A 
ATOM     13  C   UNL     1       3.474   4.477  -7.992  0.00  0.00    +0.002 A 
ENDBRANCH   3   6
BRANCH   1  14
ATOM     14  C   UNL     1      -0.610   5.210  -6.066  0.00  0.00    +0.237 C 
BRANCH  14  15
ATOM     15  O   UNL     1      -0.378   6.133  -5.037  0.00  0.00    -0.473 OA
BRANCH  15  19
ATOM     16  C   UNL     1      -1.261   6.600  -0.996  0.00  0.00    +0.048 A 
ATOM     17  C   UNL     1      -2.002   7.265  -1.957  0.00  0.00    +0.018 A 
ATOM     18  C   UNL     1      -1.876   6.963  -3.306  0.00  0.00    +0.038 A 
ATOM     19  C   UNL     1      -0.920   6.060  -3.750  0.00  0.00    +0.139 A 
ATOM     20  C   UNL     1      -0.025   5.595  -2.791  0.00  0.00    +0.038 A 
ATOM     21  C   UNL     1      -0.365   5.659  -1.466  0.00  0.00    +0.018 A 
BRANCH  16  27
ATOM     22  C   UNL     1       0.932   9.776   2.630  0.00  0.00    +0.095 C 
ATOM     23  C   UNL     1       0.907   9.724   1.559  0.00  0.00    +0.226 C 
ATOM     24  N   UNL     1       0.193   8.714   0.836  0.00  0.00    -0.276 N 
ATOM     25  C   UNL     1       0.683   7.368   0.974  0.00  0.00    +0.115 C 
ATOM     26  C   UNL     1      -0.416   6.367   1.286  0.00  0.00    +0.112 C 
ATOM     27  N   UNL     1      -1.525   6.737   0.407  0.00  0.00    -0.304 N 
ATOM     28  C   UNL     1      -2.157   7.997   0.800  0.00  0.00    +0.112 C 
ATOM     29  C   UNL     1      -1.143   9.070   0.415  0.00  0.00    +0.115 C 
ATOM     30  O   UNL     1       1.601  10.500   0.836  0.00  0.00    -0.275 OA
ENDBRANCH  16  27
ENDBRANCH  15  19
ENDBRANCH  14  15
ENDBRANCH   1  14
BRANCH   3  31
ATOM     31  C   UNL     1       3.808   6.209  -5.052  0.00  0.00    +0.168 C 
BRANCH  31  32
ATOM     32  N   UNL     1       3.498   6.363  -3.662  0.00  0.00    -0.302 N 
ATOM     33  C   UNL     1       3.365   7.598  -3.111  0.00  0.00    +0.179 A 
ATOM     34  N   UNL     1       3.237   7.465  -1.786  0.00  0.00    -0.222 NA
ATOM     35  C   UNL     1       3.782   6.261  -1.499  0.00  0.00    +0.119 A 
ATOM     36  C   UNL     1       4.191   5.700  -2.702  0.00  0.00    +0.098 A 
ENDBRANCH  31  32
ENDBRANCH   3  31
TORSDOF 7
ENDMDL
MODEL 6
REMARK VINA RESULT:      -7.9      5.198     12.230
REMARK  Name = 
REMARK  7 active torsions:
REMARK  status: ('A' for Active; 'I' for Inactive)
REMARK    1  A    between atoms: N_7  and  C_8
REMARK    2  A    between atoms: C_11  and  O_12
REMARK    3  A    between atoms: O_12  and  C_13
REMARK    4  A    between atoms: C_13  and  C_14
REMARK    5  A    between atoms: C_17  and  C_18
REMARK    6  A    between atoms: C_17  and  C_24
REMARK    7  A    between atoms: C_18  and  N_19
REMARK                            x       y       z     vdW  Elec       q    Type
REMARK                         _______ _______ _______ _____ _____    ______ ____
ROOT
ATOM      1  C   UNL     1       2.327   5.653 -10.419  0.00  0.00    +0.191 C 
ATOM      2  O   UNL     1       1.646   6.710  -9.512  0.00  0.00    -0.325 OA
ATOM      3  C   UNL     1       2.576   6.528  -8.505  0.00  0.00    +0.230 C 
ATOM      4  O   UNL     1       2.201   5.225  -8.122  0.00  0.00    -0.327 OA
ATOM      5  C   UNL     1       2.141   4.461  -9.250  0.00  0.00    +0.178 C 
ENDROOT
BRANCH   3   6
ATOM      6  C   UNL     1       3.968   6.417  -9.009  0.00  0.00    +0.041 A 
ATOM      7  C   UNL     1       4.917   5.597  -8.410  0.00  0.00    +0.059 A 
ATOM      8 CL   UNL     1       4.778   5.410  -6.664  0.00  0.00    -0.082 Cl
ATOM      9  C   UNL     1       6.088   5.276  -9.085  0.00  0.00    +0.023 A 
ATOM     10  C   UNL     1       6.480   5.994 -10.208  0.00  0.00    +0.058 A 
ATOM     11 CL   UNL     1       7.826   5.485 -11.218  0.00  0.00    -0.082 Cl
ATOM     12  C   UNL     1       5.679   7.049 -10.620  0.00  0.00    +0.011 A 
ATOM     13  C   UNL     1       4.366   7.014 -10.201  0.00  0.00    +0.002 A 
ENDBRANCH   3   6
BRANCH   1  14
ATOM     14  C   UNL     1       0.859   5.234 -11.121  0.00  0.00    +0.237 C 
BRANCH  14  15
ATOM     15  O   UNL     1       1.244   5.336 -12.465  0.00  0.00    -0.473 OA
BRANCH  15  19
ATOM     16  C   UNL     1       0.428   8.054 -15.510  0.00  0.00    +0.048 A 
ATOM     17  C   UNL     1       0.414   6.694 -15.762  0.00  0.00    +0.018 A 
ATOM     18  C   UNL     1       0.465   5.766 -14.731  0.00  0.00    +0.038 A 
ATOM     19  C   UNL     1       0.644   6.168 -13.415  0.00  0.00    +0.139 A 
ATOM     20  C   UNL     1       0.903   7.521 -13.219  0.00  0.00    +0.038 A 
ATOM     21  C   UNL     1       0.540   8.423 -14.183  0.00  0.00    +0.018 A 
BRANCH  16  27
ATOM     22  C   UNL     1       3.722  10.679 -18.720  0.00  0.00    +0.095 C 
ATOM     23  C   UNL     1       3.783   9.818 -18.082  0.00  0.00    +0.226 C 
ATOM     24  N   UNL     1       2.678   9.327 -17.315  0.00  0.00    -0.276 N 
ATOM     25  C   UNL     1       2.207  10.182 -16.259  0.00  0.00    +0.115 C 
ATOM     26  C   UNL     1       0.699  10.362 -16.271  0.00  0.00    +0.112 C 
ATOM     27  N   UNL     1       0.160   9.026 -16.530  0.00  0.00    -0.304 N 
ATOM     28  C   UNL     1       0.412   8.575 -17.899  0.00  0.00    +0.112 C 
ATOM     29  C   UNL     1       1.906   8.271 -17.934  0.00  0.00    +0.115 C 
ATOM     30  O   UNL     1       4.881   9.220 -17.870  0.00  0.00    -0.275 OA
ENDBRANCH  16  27
ENDBRANCH  15  19
ENDBRANCH  14  15
ENDBRANCH   1  14
BRANCH   3  31
ATOM     31  C   UNL     1       2.410   7.339  -7.285  0.00  0.00    +0.168 C 
BRANCH  31  32
ATOM     32  N   UNL     1       1.732   6.733  -6.179  0.00  0.00    -0.302 N 
ATOM     33  C   UNL     1       0.402   6.930  -5.984  0.00  0.00    +0.179 A 
ATOM     34  N   UNL     1       0.056   6.393  -4.809  0.00  0.00    -0.222 NA
ATOM     35  C   UNL     1       1.204   6.334  -4.097  0.00  0.00    +0.119 A 
ATOM     36  C   UNL     1       2.218   6.820  -4.914  0.00  0.00    +0.098 A 
ENDBRANCH  31  32
ENDBRANCH   3  31
TORSDOF 7
ENDMDL
MODEL 7
REMARK VINA RESULT:      -7.9      1.708      2.325
REMARK  Name = 
REMARK  7 active torsions:
REMARK  status: ('A' for Active; 'I' for Inactive)
REMARK    1  A    between atoms: N_7  and  C_8
REMARK    2  A    between atoms: C_11  and  O_12
REMARK    3  A    between atoms: O_12  and  C_13
REMARK    4  A    between atoms: C_13  and  C_14
REMARK    5  A    between atoms: C_17  and  C_18
REMARK    6  A    between atoms: C_17  and  C_24
REMARK    7  A    between atoms: C_18  and  N_19
REMARK                            x       y       z     vdW  Elec       q    Type
REMARK                         _______ _______ _______ _____ _____    ______ ____
ROOT
ATOM      1  C   UNL     1       3.315   6.739  -4.289  0.00  0.00    +0.191 C 
ATOM      2  O   UNL     1       4.083   6.479  -5.609  0.00  0.00    -0.325 OA
ATOM      3  C   UNL     1       3.269   5.410  -5.939  0.00  0.00    +0.230 C 
ATOM      4  O   UNL     1       3.692   4.522  -4.931  0.00  0.00    -0.327 OA
ATOM      5  C   UNL     1       3.634   5.185  -3.741  0.00  0.00    +0.178 C 
ENDROOT
BRANCH   3   6
ATOM      6  C   UNL     1       1.832   5.669  -5.673  0.00  0.00    +0.041 A 
ATOM      7  C   UNL     1       1.044   6.445  -6.515  0.00  0.00    +0.059 A 
ATOM      8 CL   UNL     1       1.866   7.776  -7.326  0.00  0.00    -0.082 Cl
ATOM      9  C   UNL     1      -0.341   6.401  -6.413  0.00  0.00    +0.023 A 
ATOM     10  C   UNL     1      -0.953   5.844  -5.298  0.00  0.00    +0.058 A 
ATOM     11 CL   UNL     1      -2.688   5.564  -5.228  0.00  0.00    -0.082 Cl
ATOM     12  C   UNL     1      -0.142   5.355  -4.284  0.00  0.00    +0.011 A 
ATOM     13  C   UNL     1       1.149   5.029  -4.644  0.00  0.00    +0.002 A 
ENDBRANCH   3   6
BRANCH   1  14
ATOM     14  C   UNL     1       4.701   7.320  -3.537  0.00  0.00    +0.237 C 
BRANCH  14  15
ATOM     15  O   UNL     1       4.121   8.396  -2.851  0.00  0.00    -0.473 OA
BRANCH  15  19
ATOM     16  C   UNL     1       2.669   8.855   1.023  0.00  0.00    +0.048 A 
ATOM     17  C   UNL     1       2.813   7.594   0.473  0.00  0.00    +0.018 A 
ATOM     18  C   UNL     1       3.494   7.398  -0.720  0.00  0.00    +0.038 A 
ATOM     19  C   UNL     1       3.957   8.474  -1.464  0.00  0.00    +0.139 A 
ATOM     20  C   UNL     1       3.580   9.736  -1.014  0.00  0.00    +0.038 A 
ATOM     21  C   UNL     1       3.199   9.900   0.290  0.00  0.00    +0.018 A 
BRANCH  16  27
ATOM     22  C   UNL     1      -2.301   8.930   2.852  0.00  0.00    +0.095 C 
ATOM     23  C   UNL     1      -1.809   8.604   1.956  0.00  0.00    +0.226 C 
ATOM     24  N   UNL     1      -0.396   8.712   1.749  0.00  0.00    -0.276 N 
ATOM     25  C   UNL     1       0.131  10.046   1.652  0.00  0.00    +0.115 C 
ATOM     26  C   UNL     1       1.354  10.265   2.527  0.00  0.00    +0.112 C 
ATOM     27  N   UNL     1       2.166   9.061   2.350  0.00  0.00    -0.304 N 
ATOM     28  C   UNL     1       1.564   7.882   2.976  0.00  0.00    +0.112 C 
ATOM     29  C   UNL     1       0.378   7.537   2.082  0.00  0.00    +0.115 C 
ATOM     30  O   UNL     1      -2.460   8.185   0.952  0.00  0.00    -0.275 OA
ENDBRANCH  16  27
ENDBRANCH  15  19
ENDBRANCH  14  15
ENDBRANCH   1  14
BRANCH   3  31
ATOM     31  C   UNL     1       3.561   4.711  -7.202  0.00  0.00    +0.168 C 
BRANCH  31  32
ATOM     32  N   UNL     1       4.284   5.435  -8.204  0.00  0.00    -0.302 N 
ATOM     33  C   UNL     1       3.773   5.596  -9.453  0.00  0.00    +0.179 A 
ATOM     34  N   UNL     1       4.705   6.162 -10.228  0.00  0.00    -0.222 NA
ATOM     35  C   UNL     1       5.882   5.882  -9.625  0.00  0.00    +0.119 A 
ATOM     36  C   UNL     1       5.590   5.172  -8.467  0.00  0.00    +0.098 A 
ENDBRANCH  31  32
ENDBRANCH   3  31
TORSDOF 7
ENDMDL
MODEL 8
REMARK VINA RESULT:      -7.9      3.510      9.508
REMARK  Name = 
REMARK  7 active torsions:
REMARK  status: ('A' for Active; 'I' for Inactive)
REMARK    1  A    between atoms: N_7  and  C_8
REMARK    2  A    between atoms: C_11  and  O_12
REMARK    3  A    between atoms: O_12  and  C_13
REMARK    4  A    between atoms: C_13  and  C_14
REMARK    5  A    between atoms: C_17  and  C_18
REMARK    6  A    between atoms: C_17  and  C_24
REMARK    7  A    between atoms: C_18  and  N_19
REMARK                            x       y       z     vdW  Elec       q    Type
REMARK                         _______ _______ _______ _____ _____    ______ ____
ROOT
ATOM      1  C   UNL     1       4.269   7.833  -1.232  0.00  0.00    +0.191 C 
ATOM      2  O   UNL     1       2.841   7.252  -1.079  0.00  0.00    -0.325 OA
ATOM      3  C   UNL     1       2.768   7.626   0.250  0.00  0.00    +0.230 C 
ATOM      4  O   UNL     1       3.729   6.732   0.760  0.00  0.00    -0.327 OA
ATOM      5  C   UNL     1       4.853   6.848  -0.004  0.00  0.00    +0.178 C 
ENDROOT
BRANCH   3   6
ATOM      6  C   UNL     1       3.306   8.987   0.502  0.00  0.00    +0.041 A 
ATOM      7  C   UNL     1       4.060   9.296   1.628  0.00  0.00    +0.059 A 
ATOM      8 CL   UNL     1       3.643   8.415   3.096  0.00  0.00    -0.082 Cl
ATOM      9  C   UNL     1       4.804  10.468   1.671  0.00  0.00    +0.023 A 
ATOM     10  C   UNL     1       4.577  11.487   0.754  0.00  0.00    +0.058 A 
ATOM     11 CL   UNL     1       5.639  12.883   0.629  0.00  0.00    -0.082 Cl
ATOM     12  C   UNL     1       3.575  11.305  -0.189  0.00  0.00    +0.011 A 
ATOM     13  C   UNL     1       3.215   9.999  -0.447  0.00  0.00    +0.002 A 
ENDBRANCH   3   6
BRANCH   1  14
ATOM     14  C   UNL     1       4.671   6.681  -2.387  0.00  0.00    +0.237 C 
BRANCH  14  15
ATOM     15  O   UNL     1       3.559   6.841  -3.225  0.00  0.00    -0.473 OA
BRANCH  15  19
ATOM     16  C   UNL     1       2.312   5.491  -6.960  0.00  0.00    +0.048 A 
ATOM     17  C   UNL     1       2.595   6.831  -6.757  0.00  0.00    +0.018 A 
ATOM     18  C   UNL     1       3.217   7.271  -5.597  0.00  0.00    +0.038 A 
ATOM     19  C   UNL     1       3.476   6.398  -4.549  0.00  0.00    +0.139 A 
ATOM     20  C   UNL     1       2.957   5.114  -4.680  0.00  0.00    +0.038 A 
ATOM     21  C   UNL     1       2.643   4.639  -5.925  0.00  0.00    +0.018 A 
BRANCH  16  27
ATOM     22  C   UNL     1       4.742   5.397 -11.665  0.00  0.00    +0.095 C 
ATOM     23  C   UNL     1       5.033   5.562 -10.645  0.00  0.00    +0.226 C 
ATOM     24  N   UNL     1       4.114   5.512  -9.547  0.00  0.00    -0.276 N 
ATOM     25  C   UNL     1       3.107   6.539  -9.514  0.00  0.00    +0.115 C 
ATOM     26  C   UNL     1       1.711   5.991  -9.277  0.00  0.00    +0.112 C 
ATOM     27  N   UNL     1       1.873   4.984  -8.227  0.00  0.00    -0.304 N 
ATOM     28  C   UNL     1       2.579   3.792  -8.698  0.00  0.00    +0.112 C 
ATOM     29  C   UNL     1       4.027   4.243  -8.859  0.00  0.00    +0.115 C 
ATOM     30  O   UNL     1       6.208   5.922 -10.335  0.00  0.00    -0.275 OA
ENDBRANCH  16  27
ENDBRANCH  15  19
ENDBRANCH  14  15
ENDBRANCH   1  14
BRANCH   3  31
ATOM     31  C   UNL     1       1.527   7.296   0.972  0.00  0.00    +0.168 C 
BRANCH  31  32
ATOM     32  N   UNL     1       0.293   7.750   0.404  0.00  0.00    -0.302 N 
ATOM     33  C   UNL     1      -0.498   8.630   1.070  0.00  0.00    +0.179 A 
ATOM     34  N   UNL     1      -1.649   8.763   0.402  0.00  0.00    -0.222 NA
ATOM     35  C   UNL     1      -1.757   7.639  -0.342  0.00  0.00    +0.119 A 
ATOM     36  C   UNL     1      -0.618   6.880  -0.103  0.00  0.00    +0.098 A 
ENDBRANCH  31  32
ENDBRANCH   3  31
TORSDOF 7
ENDMDL
MODEL 9
REMARK VINA RESULT:      -7.8      3.380      8.978
REMARK  Name = 
REMARK  7 active torsions:
REMARK  status: ('A' for Active; 'I' for Inactive)
REMARK    1  A    between atoms: N_7  and  C_8
REMARK    2  A    between atoms: C_11  and  O_12
REMARK    3  A    between atoms: O_12  and  C_13
REMARK    4  A    between atoms: C_13  and  C_14
REMARK    5  A    between atoms: C_17  and  C_18
REMARK    6  A    between atoms: C_17  and  C_24
REMARK    7  A    between atoms: C_18  and  N_19
REMARK                            x       y       z     vdW  Elec       q    Type
REMARK                         _______ _______ _______ _____ _____    ______ ____
ROOT
ATOM      1  C   UNL     1       0.990   4.637  -5.995  0.00  0.00    +0.191 C 
ATOM      2  O   UNL     1       2.201   5.278  -5.272  0.00  0.00    -0.325 OA
ATOM      3  C   UNL     1       1.466   6.390  -4.903  0.00  0.00    +0.230 C 
ATOM      4  O   UNL     1       1.296   6.948  -6.184  0.00  0.00    -0.327 OA
ATOM      5  C   UNL     1       0.831   5.967  -7.008  0.00  0.00    +0.178 C 
ENDROOT
BRANCH   3   6
ATOM      6  C   UNL     1       0.102   6.053  -4.424  0.00  0.00    +0.041 A 
ATOM      7  C   UNL     1      -0.153   5.643  -3.120  0.00  0.00    +0.059 A 
ATOM      8 CL   UNL     1       1.122   4.704  -2.347  0.00  0.00    -0.082 Cl
ATOM      9  C   UNL     1      -1.452   5.648  -2.628  0.00  0.00    +0.023 A 
ATOM     10  C   UNL     1      -2.537   5.755  -3.488  0.00  0.00    +0.058 A 
ATOM     11 CL   UNL     1      -4.176   5.991  -2.898  0.00  0.00    -0.082 Cl
ATOM     12  C   UNL     1      -2.284   5.835  -4.850  0.00  0.00    +0.011 A 
ATOM     13  C   UNL     1      -1.025   6.269  -5.209  0.00  0.00    +0.002 A 
ENDBRANCH   3   6
BRANCH   1  14
ATOM     14  C   UNL     1       1.992   3.874  -7.107  0.00  0.00    +0.237 C 
BRANCH  14  15
ATOM     15  O   UNL     1       2.285   4.985  -7.909  0.00  0.00    -0.473 OA
BRANCH  15  19
ATOM     16  C   UNL     1       5.870   6.139  -9.682  0.00  0.00    +0.048 A 
ATOM     17  C   UNL     1       5.827   5.048  -8.831  0.00  0.00    +0.018 A 
ATOM     18  C   UNL     1       4.621   4.511  -8.403  0.00  0.00    +0.038 A 
ATOM     19  C   UNL     1       3.414   5.118  -8.723  0.00  0.00    +0.139 A 
ATOM     20  C   UNL     1       3.501   6.349  -9.367  0.00  0.00    +0.038 A 
ATOM     21  C   UNL     1       4.649   6.680 -10.034  0.00  0.00    +0.018 A 
BRANCH  16  27
ATOM     22  C   UNL     1       7.134   6.598 -14.804  0.00  0.00    +0.095 C 
ATOM     23  C   UNL     1       6.232   6.477 -14.236  0.00  0.00    +0.226 C 
ATOM     24  N   UNL     1       6.207   6.389 -12.806  0.00  0.00    -0.276 N 
ATOM     25  C   UNL     1       6.824   5.224 -12.232  0.00  0.00    +0.115 C 
ATOM     26  C   UNL     1       7.777   5.557 -11.097  0.00  0.00    +0.112 C 
ATOM     27  N   UNL     1       7.084   6.576 -10.308  0.00  0.00    -0.304 N 
ATOM     28  C   UNL     1       6.996   7.861 -11.004  0.00  0.00    +0.112 C 
ATOM     29  C   UNL     1       5.967   7.631 -12.105  0.00  0.00    +0.115 C 
ATOM     30  O   UNL     1       5.108   6.297 -14.796  0.00  0.00    -0.275 OA
ENDBRANCH  16  27
ENDBRANCH  15  19
ENDBRANCH  14  15
ENDBRANCH   1  14
BRANCH   3  31
ATOM     31  C   UNL     1       2.167   7.430  -4.129  0.00  0.00    +0.168 C 
BRANCH  31  32
ATOM     32  N   UNL     1       3.529   7.176  -3.767  0.00  0.00    -0.302 N 
ATOM     33  C   UNL     1       4.002   7.531  -2.544  0.00  0.00    +0.179 A 
ATOM     34  N   UNL     1       5.325   7.332  -2.522  0.00  0.00    -0.222 NA
ATOM     35  C   UNL     1       5.706   7.349  -3.819  0.00  0.00    +0.119 A 
ATOM     36  C   UNL     1       4.558   7.528  -4.580  0.00  0.00    +0.098 A 
ENDBRANCH  31  32
ENDBRANCH   3  31
TORSDOF 7
ENDMDL
