MODEL 1
REMARK VINA RESULT:      -8.2      0.000      0.000
REMARK  Name = 
REMARK  4 active torsions:
REMARK  status: ('A' for Active; 'I' for Inactive)
REMARK    1  A    between atoms: C_2  and  C_4
REMARK    2  A    between atoms: C_4  and  C_5
REMARK    3  A    between atoms: C_5  and  C_6
REMARK    4  A    between atoms: C_5  and  C_12
REMARK                            x       y       z     vdW  Elec       q    Type
REMARK                         _______ _______ _______ _____ _____    ______ ____
ROOT
ATOM      1  C   UNL     1       3.703   6.283  -7.678  0.00  0.00    +0.097 A 
ATOM      2  C   UNL     1       3.081   7.188  -8.434  0.00  0.00    +0.345 A 
ATOM      3  O   UNL     1       2.238   7.929  -7.871  0.00  0.00    -0.245 OA
ATOM      4  O   UNL     1       3.496   7.379  -9.676  0.00  0.00    -0.421 OA
ATOM      5  C   UNL     1       4.578   6.837 -10.149  0.00  0.00    +0.152 A 
ATOM      6  C   UNL     1       5.319   5.969  -9.356  0.00  0.00    +0.073 A 
ATOM      7  C   UNL     1       6.661   5.790  -9.658  0.00  0.00    +0.006 A 
ATOM      8  C   UNL     1       7.319   6.614 -10.565  0.00  0.00    +0.000 A 
ATOM      9  C   UNL     1       6.510   7.232 -11.510  0.00  0.00    +0.003 A 
ATOM     10  C   UNL     1       5.144   7.257 -11.337  0.00  0.00    +0.038 A 
ATOM     11  C   UNL     1       4.773   5.563  -8.144  0.00  0.00    +0.201 A 
ATOM     12  O   UNL     1       5.378   4.522  -7.484  0.00  0.00    -0.287 OA
ENDROOT
BRANCH   1  13
ATOM     13  C   UNL     1       2.981   5.674  -6.358  0.00  0.00    +0.061 C 
BRANCH  13  14
ATOM     14  C   UNL     1       3.249   6.997  -5.435  0.00  0.00    -0.018 A 
ATOM     15  C   UNL     1       4.580   7.189  -5.082  0.00  0.00    -0.004 A 
ATOM     16  C   UNL     1       4.934   7.817  -3.901  0.00  0.00    -0.000 A 
ATOM     17  C   UNL     1       4.151   7.550  -2.813  0.00  0.00    -0.000 A 
ATOM     18  C   UNL     1       2.880   7.087  -3.017  0.00  0.00    -0.000 A 
ATOM     19  C   UNL     1       2.455   6.834  -4.298  0.00  0.00    -0.004 A 
ENDBRANCH  13  14
BRANCH  13  20
ATOM     20  C   UNL     1       1.450   6.182  -6.767  0.00  0.00    +0.074 C 
BRANCH  20  22
ATOM     21  C   UNL     1      -0.898   5.221  -6.760  0.00  0.00    +0.072 C 
ATOM     22  C   UNL     1       0.581   5.014  -6.615  0.00  0.00    +0.152 C 
ATOM     23  O   UNL     1       0.865   4.008  -5.965  0.00  0.00    -0.296 OA
ENDBRANCH  20  22
ENDBRANCH  13  20
ENDBRANCH   1  13
TORSDOF 4
ENDMDL
MODEL 2
REMARK VINA RESULT:      -8.1      1.643      4.211
REMARK  Name = 
REMARK  4 active torsions:
REMARK  status: ('A' for Active; 'I' for Inactive)
REMARK    1  A    between atoms: C_2  and  C_4
REMARK    2  A    between atoms: C_4  and  C_5
REMARK    3  A    between atoms: C_5  and  C_6
REMARK    4  A    between atoms: C_5  and  C_12
REMARK                            x       y       z     vdW  Elec       q    Type
REMARK                         _______ _______ _______ _____ _____    ______ ____
ROOT
ATOM      1  C   UNL     1       2.449   6.239  -6.659  0.00  0.00    +0.097 A 
ATOM      2  C   UNL     1       3.164   5.128  -6.484  0.00  0.00    +0.345 A 
ATOM      3  O   UNL     1       2.730   4.287  -5.658  0.00  0.00    -0.245 OA
ATOM      4  O   UNL     1       4.180   4.886  -7.296  0.00  0.00    -0.421 OA
ATOM      5  C   UNL     1       4.424   5.601  -8.353  0.00  0.00    +0.152 A 
ATOM      6  C   UNL     1       3.634   6.709  -8.634  0.00  0.00    +0.073 A 
ATOM      7  C   UNL     1       3.575   7.156  -9.946  0.00  0.00    +0.006 A 
ATOM      8  C   UNL     1       4.089   6.402 -10.995  0.00  0.00    +0.000 A 
ATOM      9  C   UNL     1       5.089   5.500 -10.653  0.00  0.00    +0.003 A 
ATOM     10  C   UNL     1       5.304   5.180  -9.331  0.00  0.00    +0.038 A 
ATOM     11  C   UNL     1       2.723   7.125  -7.669  0.00  0.00    +0.201 A 
ATOM     12  O   UNL     1       2.129   8.351  -7.833  0.00  0.00    -0.287 OA
ENDROOT
BRANCH   1  13
ATOM     13  C   UNL     1       1.524   6.822  -5.459  0.00  0.00    +0.061 C 
BRANCH  13  14
ATOM     14  C   UNL     1       0.380   5.662  -5.594  0.00  0.00    -0.018 A 
ATOM     15  C   UNL     1      -0.360   5.721  -6.770  0.00  0.00    -0.004 A 
ATOM     16  C   UNL     1      -1.671   5.283  -6.825  0.00  0.00    -0.000 A 
ATOM     17  C   UNL     1      -2.442   5.536  -5.724  0.00  0.00    -0.000 A 
ATOM     18  C   UNL     1      -1.821   5.767  -4.528  0.00  0.00    -0.000 A 
ATOM     19  C   UNL     1      -0.449   5.815  -4.480  0.00  0.00    -0.004 A 
ENDBRANCH  13  14
BRANCH  13  20
ATOM     20  C   UNL     1       2.311   6.004  -4.242  0.00  0.00    +0.074 C 
BRANCH  20  22
ATOM     21  C   UNL     1       4.272   7.566  -3.854  0.00  0.00    +0.072 C 
ATOM     22  C   UNL     1       2.943   7.029  -3.409  0.00  0.00    +0.152 C 
ATOM     23  O   UNL     1       2.745   7.174  -2.203  0.00  0.00    -0.296 OA
ENDBRANCH  20  22
ENDBRANCH  13  20
ENDBRANCH   1  13
TORSDOF 4
ENDMDL
MODEL 3
REMARK VINA RESULT:      -8.0      1.865      6.064
REMARK  Name = 
REMARK  4 active torsions:
REMARK  status: ('A' for Active; 'I' for Inactive)
REMARK    1  A    between atoms: C_2  and  C_4
REMARK    2  A    between atoms: C_4  and  C_5
REMARK    3  A    between atoms: C_5  and  C_6
REMARK    4  A    between atoms: C_5  and  C_12
REMARK                            x       y       z     vdW  Elec       q    Type
REMARK                         _______ _______ _______ _____ _____    ______ ____
ROOT
ATOM      1  C   UNL     1       3.082   5.972  -8.625  0.00  0.00    +0.097 A 
ATOM      2  C   UNL     1       2.927   4.658  -8.468  0.00  0.00    +0.345 A 
ATOM      3  O   UNL     1       3.706   3.905  -9.103  0.00  0.00    -0.245 OA
ATOM      4  O   UNL     1       2.096   4.218  -7.537  0.00  0.00    -0.421 OA
ATOM      5  C   UNL     1       1.537   5.001  -6.664  0.00  0.00    +0.152 A 
ATOM      6  C   UNL     1       1.758   6.371  -6.724  0.00  0.00    +0.073 A 
ATOM      7  C   UNL     1       1.580   7.116  -5.567  0.00  0.00    +0.006 A 
ATOM      8  C   UNL     1       1.419   6.506  -4.327  0.00  0.00    +0.000 A 
ATOM      9  C   UNL     1       0.920   5.209  -4.358  0.00  0.00    +0.003 A 
ATOM     10  C   UNL     1       0.902   4.506  -5.541  0.00  0.00    +0.038 A 
ATOM     11  C   UNL     1       2.423   6.879  -7.835  0.00  0.00    +0.201 A 
ATOM     12  O   UNL     1       2.418   8.239  -8.020  0.00  0.00    -0.287 OA
ENDROOT
BRANCH   1  13
ATOM     13  C   UNL     1       3.693   6.572 -10.004  0.00  0.00    +0.061 C 
BRANCH  13  14
ATOM     14  C   UNL     1       5.005   5.596 -10.007  0.00  0.00    -0.018 A 
ATOM     15  C   UNL     1       6.062   6.056  -9.230  0.00  0.00    -0.004 A 
ATOM     16  C   UNL     1       7.376   5.758  -9.543  0.00  0.00    -0.000 A 
ATOM     17  C   UNL     1       7.692   5.735 -10.874  0.00  0.00    -0.000 A 
ATOM     18  C   UNL     1       6.688   5.555 -11.784  0.00  0.00    -0.000 A 
ATOM     19  C   UNL     1       5.388   5.480 -11.345  0.00  0.00    -0.004 A 
ENDBRANCH  13  14
BRANCH  13  20
ATOM     20  C   UNL     1       2.844   5.552 -11.009  0.00  0.00    +0.074 C 
BRANCH  20  22
ATOM     21  C   UNL     1       0.456   6.407 -10.998  0.00  0.00    +0.072 C 
ATOM     22  C   UNL     1       1.811   6.374 -11.641  0.00  0.00    +0.152 C 
ATOM     23  O   UNL     1       1.784   6.672 -12.835  0.00  0.00    -0.296 OA
ENDBRANCH  20  22
ENDBRANCH  13  20
ENDBRANCH   1  13
TORSDOF 4
ENDMDL
MODEL 4
REMARK VINA RESULT:      -7.7      1.710      6.207
REMARK  Name = 
REMARK  4 active torsions:
REMARK  status: ('A' for Active; 'I' for Inactive)
REMARK    1  A    between atoms: C_2  and  C_4
REMARK    2  A    between atoms: C_4  and  C_5
REMARK    3  A    between atoms: C_5  and  C_6
REMARK    4  A    between atoms: C_5  and  C_12
REMARK                            x       y       z     vdW  Elec       q    Type
REMARK                         _______ _______ _______ _____ _____    ______ ____
ROOT
ATOM      1  C   UNL     1       2.058   5.796  -6.579  0.00  0.00    +0.097 A 
ATOM      2  C   UNL     1       2.026   7.113  -6.378  0.00  0.00    +0.345 A 
ATOM      3  O   UNL     1       2.900   7.806  -6.955  0.00  0.00    -0.245 OA
ATOM      4  O   UNL     1       0.993   7.639  -5.739  0.00  0.00    -0.421 OA
ATOM      5  C   UNL     1      -0.067   6.954  -5.430  0.00  0.00    +0.152 A 
ATOM      6  C   UNL     1      -0.120   5.596  -5.718  0.00  0.00    +0.073 A 
ATOM      7  C   UNL     1      -1.367   5.000  -5.840  0.00  0.00    +0.006 A 
ATOM      8  C   UNL     1      -2.532   5.757  -5.908  0.00  0.00    +0.000 A 
ATOM      9  C   UNL     1      -2.460   7.020  -5.334  0.00  0.00    +0.003 A 
ATOM     10  C   UNL     1      -1.236   7.565  -5.019  0.00  0.00    +0.038 A 
ATOM     11  C   UNL     1       1.042   4.974  -6.162  0.00  0.00    +0.201 A 
ATOM     12  O   UNL     1       1.062   3.603  -6.204  0.00  0.00    -0.287 OA
ENDROOT
BRANCH   1  13
ATOM     13  C   UNL     1       3.458   5.047  -6.918  0.00  0.00    +0.061 C 
BRANCH  13  14
ATOM     14  C   UNL     1       3.721   5.873  -8.304  0.00  0.00    -0.018 A 
ATOM     15  C   UNL     1       3.022   5.386  -9.402  0.00  0.00    -0.004 A 
ATOM     16  C   UNL     1       3.514   5.510 -10.690  0.00  0.00    -0.000 A 
ATOM     17  C   UNL     1       4.865   5.362 -10.839  0.00  0.00    -0.000 A 
ATOM     18  C   UNL     1       5.670   5.553  -9.750  0.00  0.00    -0.000 A 
ATOM     19  C   UNL     1       5.098   5.810  -8.528  0.00  0.00    -0.004 A 
ENDBRANCH  13  14
BRANCH  13  20
ATOM     20  C   UNL     1       4.411   6.087  -6.034  0.00  0.00    +0.074 C 
BRANCH  20  22
ATOM     21  C   UNL     1       4.886   6.479  -3.573  0.00  0.00    +0.072 C 
ATOM     22  C   UNL     1       4.422   5.562  -4.667  0.00  0.00    +0.152 C 
ATOM     23  O   UNL     1       4.525   4.372  -4.373  0.00  0.00    -0.296 OA
ENDBRANCH  20  22
ENDBRANCH  13  20
ENDBRANCH   1  13
TORSDOF 4
ENDMDL
MODEL 5
REMARK VINA RESULT:      -7.7      2.655      7.022
REMARK  Name = 
REMARK  4 active torsions:
REMARK  status: ('A' for Active; 'I' for Inactive)
REMARK    1  A    between atoms: C_2  and  C_4
REMARK    2  A    between atoms: C_4  and  C_5
REMARK    3  A    between atoms: C_5  and  C_6
REMARK    4  A    between atoms: C_5  and  C_12
REMARK                            x       y       z     vdW  Elec       q    Type
REMARK                         _______ _______ _______ _____ _____    ______ ____
ROOT
ATOM      1  C   UNL     1       0.894   6.165  -7.774  0.00  0.00    +0.097 A 
ATOM      2  C   UNL     1       1.517   7.081  -7.033  0.00  0.00    +0.345 A 
ATOM      3  O   UNL     1       2.439   7.735  -7.581  0.00  0.00    -0.245 OA
ATOM      4  O   UNL     1       1.033   7.377  -5.838  0.00  0.00    -0.421 OA
ATOM      5  C   UNL     1      -0.110   6.929  -5.411  0.00  0.00    +0.152 A 
ATOM      6  C   UNL     1      -0.847   6.053  -6.198  0.00  0.00    +0.073 A 
ATOM      7  C   UNL     1      -2.215   5.970  -5.981  0.00  0.00    +0.006 A 
ATOM      8  C   UNL     1      -2.881   6.887  -5.176  0.00  0.00    +0.000 A 
ATOM      9  C   UNL     1      -2.101   7.520  -4.216  0.00  0.00    +0.003 A 
ATOM     10  C   UNL     1      -0.728   7.457  -4.293  0.00  0.00    +0.038 A 
ATOM     11  C   UNL     1      -0.247   5.538  -7.341  0.00  0.00    +0.201 A 
ATOM     12  O   UNL     1      -0.867   4.491  -7.977  0.00  0.00    -0.287 OA
ENDROOT
BRANCH   1  13
ATOM     13  C   UNL     1       1.664   5.431  -9.000  0.00  0.00    +0.061 C 
BRANCH  13  14
ATOM     14  C   UNL     1       1.407   6.643 -10.067  0.00  0.00    -0.018 A 
ATOM     15  C   UNL     1       0.078   6.803 -10.442  0.00  0.00    -0.004 A 
ATOM     16  C   UNL     1      -0.270   7.298 -11.686  0.00  0.00    -0.000 A 
ATOM     17  C   UNL     1       0.513   6.903 -12.736  0.00  0.00    -0.000 A 
ATOM     18  C   UNL     1       1.780   6.458 -12.479  0.00  0.00    -0.000 A 
ATOM     19  C   UNL     1       2.202   6.347 -11.176  0.00  0.00    -0.004 A 
ENDBRANCH  13  14
BRANCH  13  20
ATOM     20  C   UNL     1       3.175   6.005  -8.603  0.00  0.00    +0.074 C 
BRANCH  20  22
ATOM     21  C   UNL     1       5.534   5.080  -8.491  0.00  0.00    +0.072 C 
ATOM     22  C   UNL     1       4.055   4.836  -8.563  0.00  0.00    +0.152 C 
ATOM     23  O   UNL     1       3.771   3.728  -9.016  0.00  0.00    -0.296 OA
ENDBRANCH  20  22
ENDBRANCH  13  20
ENDBRANCH   1  13
TORSDOF 4
ENDMDL
MODEL 6
REMARK VINA RESULT:      -7.6      2.286      6.125
REMARK  Name = 
REMARK  4 active torsions:
REMARK  status: ('A' for Active; 'I' for Inactive)
REMARK    1  A    between atoms: C_2  and  C_4
REMARK    2  A    between atoms: C_4  and  C_5
REMARK    3  A    between atoms: C_5  and  C_6
REMARK    4  A    between atoms: C_5  and  C_12
REMARK                            x       y       z     vdW  Elec       q    Type
REMARK                         _______ _______ _______ _____ _____    ______ ____
ROOT
ATOM      1  C   UNL     1       3.549   6.006  -8.216  0.00  0.00    +0.097 A 
ATOM      2  C   UNL     1       2.857   7.094  -7.878  0.00  0.00    +0.345 A 
ATOM      3  O   UNL     1       1.950   7.467  -8.661  0.00  0.00    -0.245 OA
ATOM      4  O   UNL     1       3.035   7.618  -6.676  0.00  0.00    -0.421 OA
ATOM      5  C   UNL     1       3.738   7.037  -5.750  0.00  0.00    +0.152 A 
ATOM      6  C   UNL     1       4.390   5.842  -6.027  0.00  0.00    +0.073 A 
ATOM      7  C   UNL     1       4.711   5.009  -4.965  0.00  0.00    +0.006 A 
ATOM      8  C   UNL     1       4.201   5.228  -3.689  0.00  0.00    +0.000 A 
ATOM      9  C   UNL     1       3.828   6.536  -3.409  0.00  0.00    +0.003 A 
ATOM     10  C   UNL     1       3.689   7.447  -4.432  0.00  0.00    +0.038 A 
ATOM     11  C   UNL     1       4.421   5.402  -7.346  0.00  0.00    +0.201 A 
ATOM     12  O   UNL     1       5.269   4.370  -7.660  0.00  0.00    -0.287 OA
ENDROOT
BRANCH   1  13
ATOM     13  C   UNL     1       3.735   5.598  -9.776  0.00  0.00    +0.061 C 
BRANCH  13  14
ATOM     14  C   UNL     1       2.171   5.861 -10.173  0.00  0.00    -0.018 A 
ATOM     15  C   UNL     1       1.333   4.777  -9.945  0.00  0.00    -0.004 A 
ATOM     16  C   UNL     1       0.201   4.560 -10.713  0.00  0.00    -0.000 A 
ATOM     17  C   UNL     1       0.307   4.853 -12.044  0.00  0.00    -0.000 A 
ATOM     18  C   UNL     1       1.284   5.719 -12.450  0.00  0.00    -0.000 A 
ATOM     19  C   UNL     1       2.175   6.208 -11.526  0.00  0.00    -0.004 A 
ENDBRANCH  13  14
BRANCH  13  20
ATOM     20  C   UNL     1       4.193   7.116 -10.282  0.00  0.00    +0.074 C 
BRANCH  20  22
ATOM     21  C   UNL     1       6.244   8.104 -11.401  0.00  0.00    +0.072 C 
ATOM     22  C   UNL     1       5.633   7.042 -10.535  0.00  0.00    +0.152 C 
ATOM     23  O   UNL     1       6.299   6.008 -10.500  0.00  0.00    -0.296 OA
ENDBRANCH  20  22
ENDBRANCH  13  20
ENDBRANCH   1  13
TORSDOF 4
ENDMDL
MODEL 7
REMARK VINA RESULT:      -7.6      2.785      6.950
REMARK  Name = 
REMARK  4 active torsions:
REMARK  status: ('A' for Active; 'I' for Inactive)
REMARK    1  A    between atoms: C_2  and  C_4
REMARK    2  A    between atoms: C_4  and  C_5
REMARK    3  A    between atoms: C_5  and  C_6
REMARK    4  A    between atoms: C_5  and  C_12
REMARK                            x       y       z     vdW  Elec       q    Type
REMARK                         _______ _______ _______ _____ _____    ______ ____
ROOT
ATOM      1  C   UNL     1       1.282   6.026  -4.921  0.00  0.00    +0.097 A 
ATOM      2  C   UNL     1       0.653   6.938  -5.662  0.00  0.00    +0.345 A 
ATOM      3  O   UNL     1       1.045   7.090  -6.845  0.00  0.00    -0.245 OA
ATOM      4  O   UNL     1      -0.444   7.504  -5.186  0.00  0.00    -0.421 OA
ATOM      5  C   UNL     1      -1.027   7.105  -4.095  0.00  0.00    +0.152 A 
ATOM      6  C   UNL     1      -0.462   6.081  -3.346  0.00  0.00    +0.073 A 
ATOM      7  C   UNL     1      -1.289   5.353  -2.502  0.00  0.00    +0.006 A 
ATOM      8  C   UNL     1      -2.673   5.470  -2.562  0.00  0.00    +0.000 A 
ATOM      9  C   UNL     1      -3.152   6.667  -3.080  0.00  0.00    +0.003 A 
ATOM     10  C   UNL     1      -2.305   7.511  -3.761  0.00  0.00    +0.038 A 
ATOM     11  C   UNL     1       0.811   5.642  -3.691  0.00  0.00    +0.201 A 
ATOM     12  O   UNL     1       1.469   4.819  -2.811  0.00  0.00    -0.287 OA
ENDROOT
BRANCH   1  13
ATOM     13  C   UNL     1       2.833   5.650  -5.216  0.00  0.00    +0.061 C 
BRANCH  13  14
ATOM     14  C   UNL     1       2.629   5.492  -6.831  0.00  0.00    -0.018 A 
ATOM     15  C   UNL     1       2.338   4.198  -7.247  0.00  0.00    -0.004 A 
ATOM     16  C   UNL     1       2.710   3.737  -8.498  0.00  0.00    -0.000 A 
ATOM     17  C   UNL     1       3.922   4.163  -8.965  0.00  0.00    -0.000 A 
ATOM     18  C   UNL     1       4.465   5.303  -8.440  0.00  0.00    -0.000 A 
ATOM     19  C   UNL     1       3.818   5.942  -7.410  0.00  0.00    -0.004 A 
ENDBRANCH  13  14
BRANCH  13  20
ATOM     20  C   UNL     1       3.351   7.224  -5.364  0.00  0.00    +0.074 C 
BRANCH  20  22
ATOM     21  C   UNL     1       5.494   7.062  -4.016  0.00  0.00    +0.072 C 
ATOM     22  C   UNL     1       4.073   7.531  -4.128  0.00  0.00    +0.152 C 
ATOM     23  O   UNL     1       3.542   7.723  -3.035  0.00  0.00    -0.296 OA
ENDBRANCH  20  22
ENDBRANCH  13  20
ENDBRANCH   1  13
TORSDOF 4
ENDMDL
MODEL 8
REMARK VINA RESULT:      -7.5      2.983      5.144
REMARK  Name = 
REMARK  4 active torsions:
REMARK  status: ('A' for Active; 'I' for Inactive)
REMARK    1  A    between atoms: C_2  and  C_4
REMARK    2  A    between atoms: C_4  and  C_5
REMARK    3  A    between atoms: C_5  and  C_6
REMARK    4  A    between atoms: C_5  and  C_12
REMARK                            x       y       z     vdW  Elec       q    Type
REMARK                         _______ _______ _______ _____ _____    ______ ____
ROOT
ATOM      1  C   UNL     1       1.965   6.128  -6.302  0.00  0.00    +0.097 A 
ATOM      2  C   UNL     1       2.553   7.249  -6.719  0.00  0.00    +0.345 A 
ATOM      3  O   UNL     1       1.915   7.969  -7.525  0.00  0.00    -0.245 OA
ATOM      4  O   UNL     1       3.681   7.633  -6.143  0.00  0.00    -0.421 OA
ATOM      5  C   UNL     1       4.166   7.052  -5.086  0.00  0.00    +0.152 A 
ATOM      6  C   UNL     1       3.524   5.942  -4.552  0.00  0.00    +0.073 A 
ATOM      7  C   UNL     1       3.740   5.639  -3.216  0.00  0.00    +0.006 A 
ATOM      8  C   UNL     1       4.381   6.531  -2.362  0.00  0.00    +0.000 A 
ATOM      9  C   UNL     1       5.233   7.441  -2.976  0.00  0.00    +0.003 A 
ATOM     10  C   UNL     1       5.178   7.625  -4.339  0.00  0.00    +0.038 A 
ATOM     11  C   UNL     1       2.484   5.374  -5.280  0.00  0.00    +0.201 A 
ATOM     12  O   UNL     1       2.021   4.143  -4.887  0.00  0.00    -0.287 OA
ENDROOT
BRANCH   1  13
ATOM     13  C   UNL     1       0.881   5.367  -7.241  0.00  0.00    +0.061 C 
BRANCH  13  14
ATOM     14  C   UNL     1      -0.385   6.278  -6.749  0.00  0.00    -0.018 A 
ATOM     15  C   UNL     1      -0.355   6.622  -5.403  0.00  0.00    -0.004 A 
ATOM     16  C   UNL     1      -1.516   6.831  -4.680  0.00  0.00    -0.000 A 
ATOM     17  C   UNL     1      -2.569   6.009  -4.974  0.00  0.00    -0.000 A 
ATOM     18  C   UNL     1      -2.592   5.380  -6.187  0.00  0.00    -0.000 A 
ATOM     19  C   UNL     1      -1.528   5.529  -7.042  0.00  0.00    -0.004 A 
ENDBRANCH  13  14
BRANCH  13  20
ATOM     20  C   UNL     1       1.137   6.320  -8.581  0.00  0.00    +0.074 C 
BRANCH  20  22
ATOM     21  C   UNL     1       0.028   5.569 -10.736  0.00  0.00    +0.072 C 
ATOM     22  C   UNL     1       1.131   5.412  -9.730  0.00  0.00    +0.152 C 
ATOM     23  O   UNL     1       1.636   4.290  -9.740  0.00  0.00    -0.296 OA
ENDBRANCH  20  22
ENDBRANCH  13  20
ENDBRANCH   1  13
TORSDOF 4
ENDMDL
MODEL 9
REMARK VINA RESULT:      -7.5      2.089      5.927
REMARK  Name = 
REMARK  4 active torsions:
REMARK  status: ('A' for Active; 'I' for Inactive)
REMARK    1  A    between atoms: C_2  and  C_4
REMARK    2  A    between atoms: C_4  and  C_5
REMARK    3  A    between atoms: C_5  and  C_6
REMARK    4  A    between atoms: C_5  and  C_12
REMARK                            x       y       z     vdW  Elec       q    Type
REMARK                         _______ _______ _______ _____ _____    ______ ____
ROOT
ATOM      1  C   UNL     1       3.193   5.969  -8.618  0.00  0.00    +0.097 A 
ATOM      2  C   UNL     1       3.379   4.680  -8.338  0.00  0.00    +0.345 A 
ATOM      3  O   UNL     1       3.838   3.952  -9.253  0.00  0.00    -0.245 OA
ATOM      4  O   UNL     1       3.243   4.270  -7.088  0.00  0.00    -0.421 OA
ATOM      5  C   UNL     1       3.085   5.088  -6.091  0.00  0.00    +0.152 A 
ATOM      6  C   UNL     1       2.993   6.454  -6.327  0.00  0.00    +0.073 A 
ATOM      7  C   UNL     1       3.309   7.321  -5.291  0.00  0.00    +0.006 A 
ATOM      8  C   UNL     1       3.923   6.870  -4.127  0.00  0.00    +0.000 A 
ATOM      9  C   UNL     1       3.722   5.529  -3.824  0.00  0.00    +0.003 A 
ATOM     10  C   UNL     1       3.221   4.674  -4.780  0.00  0.00    +0.038 A 
ATOM     11  C   UNL     1       2.886   6.885  -7.644  0.00  0.00    +0.201 A 
ATOM     12  O   UNL     1       2.544   8.196  -7.866  0.00  0.00    -0.287 OA
ENDROOT
BRANCH   1  13
ATOM     13  C   UNL     1       2.885   6.448 -10.139  0.00  0.00    +0.061 C 
BRANCH  13  14
ATOM     14  C   UNL     1       4.344   5.995 -10.721  0.00  0.00    -0.018 A 
ATOM     15  C   UNL     1       5.335   6.962 -10.597  0.00  0.00    -0.004 A 
ATOM     16  C   UNL     1       6.385   7.045 -11.496  0.00  0.00    -0.000 A 
ATOM     17  C   UNL     1       6.084   6.787 -12.804  0.00  0.00    -0.000 A 
ATOM     18  C   UNL     1       4.963   6.058 -13.089  0.00  0.00    -0.000 A 
ATOM     19  C   UNL     1       4.134   5.672 -12.064  0.00  0.00    -0.004 A 
ENDBRANCH  13  14
BRANCH  13  20
ATOM     20  C   UNL     1       2.174   5.019 -10.612  0.00  0.00    +0.074 C 
BRANCH  20  22
ATOM     21  C   UNL     1       0.341   6.768 -10.752  0.00  0.00    +0.072 C 
ATOM     22  C   UNL     1       0.768   5.334 -10.873  0.00  0.00    +0.152 C 
ATOM     23  O   UNL     1      -0.164   4.541 -10.742  0.00  0.00    -0.296 OA
ENDBRANCH  20  22
ENDBRANCH  13  20
ENDBRANCH   1  13
TORSDOF 4
ENDMDL
