MODEL 1
REMARK VINA RESULT:      -7.6      0.000      0.000
REMARK  Name = 
REMARK  4 active torsions:
REMARK  status: ('A' for Active; 'I' for Inactive)
REMARK    1  A    between atoms: C_2  and  C_3
REMARK    2  A    between atoms: C_2  and  C_6
REMARK    3  A    between atoms: C_10  and  O_11
REMARK    4  A    between atoms: O_11  and  C_12
REMARK                            x       y       z     vdW  Elec       q    Type
REMARK                         _______ _______ _______ _____ _____    ______ ____
ROOT
ATOM      1  C   UNL     1      -1.093   5.740  -4.543  0.00  0.00    -0.009 A 
ATOM      2  C   UNL     1       0.161   5.183  -4.671  0.00  0.00    +0.034 A 
ATOM      3  C   UNL     1       0.639   4.935  -5.941  0.00  0.00    +0.145 A 
ATOM      4  C   UNL     1      -0.171   5.165  -7.046  0.00  0.00    +0.037 A 
ATOM      5  C   UNL     1      -1.511   5.435  -6.804  0.00  0.00    +0.003 A 
ATOM      6  C   UNL     1      -1.770   6.122  -5.626  0.00  0.00    -0.004 A 
ENDROOT
BRANCH   1   8
ATOM      7  C   UNL     1      -2.047   7.868  -3.821  0.00  0.00    +0.017 C 
ATOM      8  C   UNL     1      -1.315   6.528  -3.130  0.00  0.00    +0.126 C 
BRANCH   8   9
ATOM      9  C   UNL     1      -2.747   5.786  -2.847  0.00  0.00    +0.368 C 
ATOM     10  O   UNL     1      -3.780   6.658  -2.573  0.00  0.00    -0.245 OA
ATOM     11  O   UNL     1      -2.711   4.583  -2.623  0.00  0.00    -0.245 OA
ENDBRANCH   8   9
ENDBRANCH   1   8
BRANCH   3  12
ATOM     12  O   UNL     1       1.973   4.606  -6.061  0.00  0.00    -0.454 OA
BRANCH  12  13
ATOM     13  C   UNL     1       2.920   5.317  -5.337  0.00  0.00    +0.145 A 
ATOM     14  C   UNL     1       3.077   6.672  -5.570  0.00  0.00    +0.037 A 
ATOM     15  C   UNL     1       4.124   7.329  -4.962  0.00  0.00    +0.003 A 
ATOM     16  C   UNL     1       5.078   6.594  -4.311  0.00  0.00    +0.000 A 
ATOM     17  C   UNL     1       4.769   5.351  -3.828  0.00  0.00    +0.003 A 
ATOM     18  C   UNL     1       3.710   4.669  -4.400  0.00  0.00    +0.037 A 
ENDBRANCH  12  13
ENDBRANCH   3  12
TORSDOF 4
ENDMDL
MODEL 2
REMARK VINA RESULT:      -7.5      5.516      9.294
REMARK  Name = 
REMARK  4 active torsions:
REMARK  status: ('A' for Active; 'I' for Inactive)
REMARK    1  A    between atoms: C_2  and  C_3
REMARK    2  A    between atoms: C_2  and  C_6
REMARK    3  A    between atoms: C_10  and  O_11
REMARK    4  A    between atoms: O_11  and  C_12
REMARK                            x       y       z     vdW  Elec       q    Type
REMARK                         _______ _______ _______ _____ _____    ______ ____
ROOT
ATOM      1  C   UNL     1       5.714   5.962 -10.534  0.00  0.00    -0.009 A 
ATOM      2  C   UNL     1       4.375   6.281 -10.456  0.00  0.00    +0.034 A 
ATOM      3  C   UNL     1       3.753   6.191  -9.228  0.00  0.00    +0.145 A 
ATOM      4  C   UNL     1       4.450   5.707  -8.129  0.00  0.00    +0.037 A 
ATOM      5  C   UNL     1       5.690   5.130  -8.370  0.00  0.00    +0.003 A 
ATOM      6  C   UNL     1       6.400   5.680  -9.427  0.00  0.00    -0.004 A 
ENDROOT
BRANCH   1   8
ATOM      7  C   UNL     1       8.013   6.486 -11.164  0.00  0.00    +0.017 C 
ATOM      8  C   UNL     1       6.474   6.649 -11.806  0.00  0.00    +0.126 C 
BRANCH   8   9
ATOM      9  C   UNL     1       6.570   5.231 -12.619  0.00  0.00    +0.368 C 
ATOM     10  O   UNL     1       7.810   4.632 -12.546  0.00  0.00    -0.245 OA
ATOM     11  O   UNL     1       5.674   4.991 -13.418  0.00  0.00    -0.245 OA
ENDBRANCH   8   9
ENDBRANCH   1   8
BRANCH   3  12
ATOM     12  O   UNL     1       2.491   6.737  -9.118  0.00  0.00    -0.454 OA
BRANCH  12  13
ATOM     13  C   UNL     1       1.436   6.169  -9.820  0.00  0.00    +0.145 A 
ATOM     14  C   UNL     1       1.215   4.806  -9.728  0.00  0.00    +0.037 A 
ATOM     15  C   UNL     1       0.269   4.235 -10.551  0.00  0.00    +0.003 A 
ATOM     16  C   UNL     1      -0.277   4.988 -11.555  0.00  0.00    +0.000 A 
ATOM     17  C   UNL     1      -0.299   6.352 -11.449  0.00  0.00    +0.003 A 
ATOM     18  C   UNL     1       0.623   6.961 -10.615  0.00  0.00    +0.037 A 
ENDBRANCH  12  13
ENDBRANCH   3  12
TORSDOF 4
ENDMDL
MODEL 3
REMARK VINA RESULT:      -7.4      5.042      8.660
REMARK  Name = 
REMARK  4 active torsions:
REMARK  status: ('A' for Active; 'I' for Inactive)
REMARK    1  A    between atoms: C_2  and  C_3
REMARK    2  A    between atoms: C_2  and  C_6
REMARK    3  A    between atoms: C_10  and  O_11
REMARK    4  A    between atoms: O_11  and  C_12
REMARK                            x       y       z     vdW  Elec       q    Type
REMARK                         _______ _______ _______ _____ _____    ______ ____
ROOT
ATOM      1  C   UNL     1       5.606   6.061 -10.480  0.00  0.00    -0.009 A 
ATOM      2  C   UNL     1       4.382   6.661 -10.279  0.00  0.00    +0.034 A 
ATOM      3  C   UNL     1       3.818   6.589  -9.021  0.00  0.00    +0.145 A 
ATOM      4  C   UNL     1       4.441   5.853  -8.021  0.00  0.00    +0.037 A 
ATOM      5  C   UNL     1       5.501   5.041  -8.400  0.00  0.00    +0.003 A 
ATOM      6  C   UNL     1       6.265   5.522  -9.455  0.00  0.00    -0.004 A 
ENDROOT
BRANCH   1   8
ATOM      7  C   UNL     1       7.945   6.480 -11.037  0.00  0.00    +0.017 C 
ATOM      8  C   UNL     1       6.438   6.684 -11.740  0.00  0.00    +0.126 C 
BRANCH   8   9
ATOM      9  C   UNL     1       6.508   5.243 -12.513  0.00  0.00    +0.368 C 
ATOM     10  O   UNL     1       7.775   4.701 -12.562  0.00  0.00    -0.245 OA
ATOM     11  O   UNL     1       5.541   4.936 -13.198  0.00  0.00    -0.245 OA
ENDBRANCH   8   9
ENDBRANCH   1   8
BRANCH   3  12
ATOM     12  O   UNL     1       2.723   7.390  -8.773  0.00  0.00    -0.454 OA
BRANCH  12  13
ATOM     13  C   UNL     1       1.616   6.854  -8.128  0.00  0.00    +0.145 A 
ATOM     14  C   UNL     1       1.412   7.129  -6.787  0.00  0.00    +0.037 A 
ATOM     15  C   UNL     1       0.404   6.465  -6.124  0.00  0.00    +0.003 A 
ATOM     16  C   UNL     1      -0.229   5.426  -6.751  0.00  0.00    +0.000 A 
ATOM     17  C   UNL     1      -0.251   5.367  -8.118  0.00  0.00    +0.003 A 
ATOM     18  C   UNL     1       0.734   6.039  -8.820  0.00  0.00    +0.037 A 
ENDBRANCH  12  13
ENDBRANCH   3  12
TORSDOF 4
ENDMDL
MODEL 4
REMARK VINA RESULT:      -7.2      2.267      2.880
REMARK  Name = 
REMARK  4 active torsions:
REMARK  status: ('A' for Active; 'I' for Inactive)
REMARK    1  A    between atoms: C_2  and  C_3
REMARK    2  A    between atoms: C_2  and  C_6
REMARK    3  A    between atoms: C_10  and  O_11
REMARK    4  A    between atoms: O_11  and  C_12
REMARK                            x       y       z     vdW  Elec       q    Type
REMARK                         _______ _______ _______ _____ _____    ______ ____
ROOT
ATOM      1  C   UNL     1      -1.357   5.894  -4.406  0.00  0.00    -0.009 A 
ATOM      2  C   UNL     1      -0.190   5.307  -4.845  0.00  0.00    +0.034 A 
ATOM      3  C   UNL     1      -0.060   5.039  -6.192  0.00  0.00    +0.145 A 
ATOM      4  C   UNL     1      -1.121   5.281  -7.055  0.00  0.00    +0.037 A 
ATOM      5  C   UNL     1      -2.349   5.584  -6.480  0.00  0.00    +0.003 A 
ATOM      6  C   UNL     1      -2.281   6.284  -5.283  0.00  0.00    -0.004 A 
ENDROOT
BRANCH   1   8
ATOM      7  C   UNL     1      -2.816   7.083  -2.853  0.00  0.00    +0.017 C 
ATOM      8  C   UNL     1      -1.192   6.696  -2.993  0.00  0.00    +0.126 C 
BRANCH   8   9
ATOM      9  C   UNL     1      -1.354   5.330  -2.105  0.00  0.00    +0.368 C 
ATOM     10  O   UNL     1      -2.656   4.889  -1.996  0.00  0.00    -0.245 OA
ATOM     11  O   UNL     1      -0.399   5.007  -1.410  0.00  0.00    -0.245 OA
ENDBRANCH   8   9
ENDBRANCH   1   8
BRANCH   3  12
ATOM     12  O   UNL     1       1.191   4.679  -6.647  0.00  0.00    -0.454 OA
BRANCH  12  13
ATOM     13  C   UNL     1       1.771   5.389  -7.690  0.00  0.00    +0.145 A 
ATOM     14  C   UNL     1       2.048   4.741  -8.881  0.00  0.00    +0.037 A 
ATOM     15  C   UNL     1       2.765   5.414  -9.846  0.00  0.00    +0.003 A 
ATOM     16  C   UNL     1       3.341   6.614  -9.527  0.00  0.00    +0.000 A 
ATOM     17  C   UNL     1       2.824   7.368  -8.509  0.00  0.00    +0.003 A 
ATOM     18  C   UNL     1       2.080   6.731  -7.531  0.00  0.00    +0.037 A 
ENDBRANCH  12  13
ENDBRANCH   3  12
TORSDOF 4
ENDMDL
MODEL 5
REMARK VINA RESULT:      -7.1      4.013      5.812
REMARK  Name = 
REMARK  4 active torsions:
REMARK  status: ('A' for Active; 'I' for Inactive)
REMARK    1  A    between atoms: C_2  and  C_3
REMARK    2  A    between atoms: C_2  and  C_6
REMARK    3  A    between atoms: C_10  and  O_11
REMARK    4  A    between atoms: O_11  and  C_12
REMARK                            x       y       z     vdW  Elec       q    Type
REMARK                         _______ _______ _______ _____ _____    ______ ____
ROOT
ATOM      1  C   UNL     1       3.728   6.142  -5.898  0.00  0.00    -0.009 A 
ATOM      2  C   UNL     1       4.161   5.451  -7.010  0.00  0.00    +0.034 A 
ATOM      3  C   UNL     1       3.711   5.861  -8.249  0.00  0.00    +0.145 A 
ATOM      4  C   UNL     1       2.781   6.888  -8.347  0.00  0.00    +0.037 A 
ATOM      5  C   UNL     1       2.181   7.313  -7.169  0.00  0.00    +0.003 A 
ATOM      6  C   UNL     1       2.984   7.238  -6.039  0.00  0.00    -0.004 A 
ENDROOT
BRANCH   1   8
ATOM      7  C   UNL     1       5.020   7.645  -4.474  0.00  0.00    +0.017 C 
ATOM      8  C   UNL     1       4.728   6.001  -4.614  0.00  0.00    +0.126 C 
BRANCH   8   9
ATOM      9  C   UNL     1       3.490   6.043  -3.543  0.00  0.00    +0.368 C 
ATOM     10  O   UNL     1       3.597   7.054  -2.611  0.00  0.00    -0.245 OA
ATOM     11  O   UNL     1       2.776   5.051  -3.484  0.00  0.00    -0.245 OA
ENDBRANCH   8   9
ENDBRANCH   1   8
BRANCH   3  12
ATOM     12  O   UNL     1       4.333   5.321  -9.356  0.00  0.00    -0.454 OA
BRANCH  12  13
ATOM     13  C   UNL     1       5.377   6.010  -9.958  0.00  0.00    +0.145 A 
ATOM     14  C   UNL     1       6.681   5.714  -9.604  0.00  0.00    +0.037 A 
ATOM     15  C   UNL     1       7.694   6.511 -10.090  0.00  0.00    +0.003 A 
ATOM     16  C   UNL     1       7.369   7.672 -10.739  0.00  0.00    +0.000 A 
ATOM     17  C   UNL     1       6.147   7.796 -11.342  0.00  0.00    +0.003 A 
ATOM     18  C   UNL     1       5.110   6.996 -10.895  0.00  0.00    +0.037 A 
ENDBRANCH  12  13
ENDBRANCH   3  12
TORSDOF 4
ENDMDL
MODEL 6
REMARK VINA RESULT:      -7.0      2.314      5.990
REMARK  Name = 
REMARK  4 active torsions:
REMARK  status: ('A' for Active; 'I' for Inactive)
REMARK    1  A    between atoms: C_2  and  C_3
REMARK    2  A    between atoms: C_2  and  C_6
REMARK    3  A    between atoms: C_10  and  O_11
REMARK    4  A    between atoms: O_11  and  C_12
REMARK                            x       y       z     vdW  Elec       q    Type
REMARK                         _______ _______ _______ _____ _____    ______ ____
ROOT
ATOM      1  C   UNL     1       3.537   5.664  -7.549  0.00  0.00    -0.009 A 
ATOM      2  C   UNL     1       2.320   5.084  -7.260  0.00  0.00    +0.034 A 
ATOM      3  C   UNL     1       2.043   4.771  -5.945  0.00  0.00    +0.145 A 
ATOM      4  C   UNL     1       3.009   4.962  -4.965  0.00  0.00    +0.037 A 
ATOM      5  C   UNL     1       4.295   5.261  -5.395  0.00  0.00    +0.003 A 
ATOM      6  C   UNL     1       4.367   6.005  -6.565  0.00  0.00    -0.004 A 
ENDROOT
BRANCH   1   8
ATOM      7  C   UNL     1       2.707   5.361  -9.824  0.00  0.00    +0.017 C 
ATOM      8  C   UNL     1       3.536   6.518  -8.941  0.00  0.00    +0.126 C 
BRANCH   8   9
ATOM      9  C   UNL     1       2.166   7.320  -8.544  0.00  0.00    +0.368 C 
ATOM     10  O   UNL     1       1.120   7.097  -9.414  0.00  0.00    -0.245 OA
ATOM     11  O   UNL     1       2.273   8.226  -7.727  0.00  0.00    -0.245 OA
ENDBRANCH   8   9
ENDBRANCH   1   8
BRANCH   3  12
ATOM     12  O   UNL     1       0.744   4.419  -5.640  0.00  0.00    -0.454 OA
BRANCH  12  13
ATOM     13  C   UNL     1      -0.252   5.387  -5.668  0.00  0.00    +0.145 A 
ATOM     14  C   UNL     1      -0.124   6.516  -4.880  0.00  0.00    +0.037 A 
ATOM     15  C   UNL     1      -1.188   7.387  -4.797  0.00  0.00    +0.003 A 
ATOM     16  C   UNL     1      -2.391   7.015  -5.333  0.00  0.00    +0.000 A 
ATOM     17  C   UNL     1      -2.431   6.090  -6.342  0.00  0.00    +0.003 A 
ATOM     18  C   UNL     1      -1.369   5.212  -6.470  0.00  0.00    +0.037 A 
ENDBRANCH  12  13
ENDBRANCH   3  12
TORSDOF 4
ENDMDL
MODEL 7
REMARK VINA RESULT:      -6.8      3.585      5.136
REMARK  Name = 
REMARK  4 active torsions:
REMARK  status: ('A' for Active; 'I' for Inactive)
REMARK    1  A    between atoms: C_2  and  C_3
REMARK    2  A    between atoms: C_2  and  C_6
REMARK    3  A    between atoms: C_10  and  O_11
REMARK    4  A    between atoms: O_11  and  C_12
REMARK                            x       y       z     vdW  Elec       q    Type
REMARK                         _______ _______ _______ _____ _____    ______ ____
ROOT
ATOM      1  C   UNL     1       2.050   6.702  -6.227  0.00  0.00    -0.009 A 
ATOM      2  C   UNL     1       2.592   6.233  -7.404  0.00  0.00    +0.034 A 
ATOM      3  C   UNL     1       3.932   5.906  -7.422  0.00  0.00    +0.145 A 
ATOM      4  C   UNL     1       4.718   6.131  -6.299  0.00  0.00    +0.037 A 
ATOM      5  C   UNL     1       4.157   6.882  -5.274  0.00  0.00    +0.003 A 
ATOM      6  C   UNL     1       2.786   6.732  -5.116  0.00  0.00    -0.004 A 
ENDROOT
BRANCH   1   8
ATOM      7  C   UNL     1       0.315   5.579  -7.524  0.00  0.00    +0.017 C 
ATOM      8  C   UNL     1       0.435   6.488  -6.122  0.00  0.00    +0.126 C 
BRANCH   8   9
ATOM      9  C   UNL     1       0.589   5.162  -5.174  0.00  0.00    +0.368 C 
ATOM     10  O   UNL     1       0.898   4.013  -5.872  0.00  0.00    -0.245 OA
ATOM     11  O   UNL     1       0.151   5.243  -4.034  0.00  0.00    -0.245 OA
ENDBRANCH   8   9
ENDBRANCH   1   8
BRANCH   3  12
ATOM     12  O   UNL     1       4.400   5.220  -8.523  0.00  0.00    -0.454 OA
BRANCH  12  13
ATOM     13  C   UNL     1       5.279   5.846  -9.397  0.00  0.00    +0.145 A 
ATOM     14  C   UNL     1       6.633   5.577  -9.308  0.00  0.00    +0.037 A 
ATOM     15  C   UNL     1       7.506   6.322 -10.071  0.00  0.00    +0.003 A 
ATOM     16  C   UNL     1       7.031   7.419 -10.736  0.00  0.00    +0.000 A 
ATOM     17  C   UNL     1       5.706   7.494 -11.070  0.00  0.00    +0.003 A 
ATOM     18  C   UNL     1       4.802   6.744 -10.339  0.00  0.00    +0.037 A 
ENDBRANCH  12  13
ENDBRANCH   3  12
TORSDOF 4
ENDMDL
MODEL 8
REMARK VINA RESULT:      -6.7      4.321      5.379
REMARK  Name = 
REMARK  4 active torsions:
REMARK  status: ('A' for Active; 'I' for Inactive)
REMARK    1  A    between atoms: C_2  and  C_3
REMARK    2  A    between atoms: C_2  and  C_6
REMARK    3  A    between atoms: C_10  and  O_11
REMARK    4  A    between atoms: O_11  and  C_12
REMARK                            x       y       z     vdW  Elec       q    Type
REMARK                         _______ _______ _______ _____ _____    ______ ____
ROOT
ATOM      1  C   UNL     1       1.907   5.664  -8.123  0.00  0.00    -0.009 A 
ATOM      2  C   UNL     1       2.988   5.179  -8.827  0.00  0.00    +0.034 A 
ATOM      3  C   UNL     1       3.075   5.472 -10.173  0.00  0.00    +0.145 A 
ATOM      4  C   UNL     1       2.048   6.165 -10.801  0.00  0.00    +0.037 A 
ATOM      5  C   UNL     1       0.873   6.343 -10.084  0.00  0.00    +0.003 A 
ATOM      6  C   UNL     1       1.035   6.481  -8.712  0.00  0.00    -0.004 A 
ENDROOT
BRANCH   1   8
ATOM      7  C   UNL     1       0.982   6.934  -6.255  0.00  0.00    +0.017 C 
ATOM      8  C   UNL     1       2.181   5.794  -6.518  0.00  0.00    +0.126 C 
BRANCH   8   9
ATOM      9  C   UNL     1       1.187   4.542  -6.164  0.00  0.00    +0.368 C 
ATOM     10  O   UNL     1      -0.044   4.931  -5.678  0.00  0.00    -0.245 OA
ATOM     11  O   UNL     1       1.700   3.434  -6.085  0.00  0.00    -0.245 OA
ENDBRANCH   8   9
ENDBRANCH   1   8
BRANCH   3  12
ATOM     12  O   UNL     1       4.268   5.190 -10.805  0.00  0.00    -0.454 OA
BRANCH  12  13
ATOM     13  C   UNL     1       5.379   5.986 -10.558  0.00  0.00    +0.145 A 
ATOM     14  C   UNL     1       5.488   7.213 -11.185  0.00  0.00    +0.037 A 
ATOM     15  C   UNL     1       6.664   7.919 -11.056  0.00  0.00    +0.003 A 
ATOM     16  C   UNL     1       7.744   7.305 -10.481  0.00  0.00    +0.000 A 
ATOM     17  C   UNL     1       7.554   6.262  -9.614  0.00  0.00    +0.003 A 
ATOM     18  C   UNL     1       6.374   5.544  -9.700  0.00  0.00    +0.037 A 
ENDBRANCH  12  13
ENDBRANCH   3  12
TORSDOF 4
ENDMDL
MODEL 9
REMARK VINA RESULT:      -6.6      1.900      5.434
REMARK  Name = 
REMARK  4 active torsions:
REMARK  status: ('A' for Active; 'I' for Inactive)
REMARK    1  A    between atoms: C_2  and  C_3
REMARK    2  A    between atoms: C_2  and  C_6
REMARK    3  A    between atoms: C_10  and  O_11
REMARK    4  A    between atoms: O_11  and  C_12
REMARK                            x       y       z     vdW  Elec       q    Type
REMARK                         _______ _______ _______ _____ _____    ______ ____
ROOT
ATOM      1  C   UNL     1       1.673   5.592  -6.376  0.00  0.00    -0.009 A 
ATOM      2  C   UNL     1       0.413   5.611  -5.818  0.00  0.00    +0.034 A 
ATOM      3  C   UNL     1      -0.675   5.489  -6.658  0.00  0.00    +0.145 A 
ATOM      4  C   UNL     1      -0.489   5.438  -8.033  0.00  0.00    +0.037 A 
ATOM      5  C   UNL     1       0.781   5.731  -8.512  0.00  0.00    +0.003 A 
ATOM      6  C   UNL     1       1.825   5.355  -7.679  0.00  0.00    -0.004 A 
ENDROOT
BRANCH   1   8
ATOM      7  C   UNL     1       4.104   5.375  -6.407  0.00  0.00    +0.017 C 
ATOM      8  C   UNL     1       2.843   5.142  -5.329  0.00  0.00    +0.126 C 
BRANCH   8   9
ATOM      9  C   UNL     1       2.982   6.650  -4.708  0.00  0.00    +0.368 C 
ATOM     10  O   UNL     1       3.655   7.529  -5.530  0.00  0.00    -0.245 OA
ATOM     11  O   UNL     1       2.751   6.779  -3.513  0.00  0.00    -0.245 OA
ENDBRANCH   8   9
ENDBRANCH   1   8
BRANCH   3  12
ATOM     12  O   UNL     1      -1.904   5.269  -6.071  0.00  0.00    -0.454 OA
BRANCH  12  13
ATOM     13  C   UNL     1      -2.250   5.972  -4.925  0.00  0.00    +0.145 A 
ATOM     14  C   UNL     1      -2.012   7.333  -4.865  0.00  0.00    +0.037 A 
ATOM     15  C   UNL     1      -2.213   7.985  -3.668  0.00  0.00    +0.003 A 
ATOM     16  C   UNL     1      -2.450   7.245  -2.542  0.00  0.00    +0.000 A 
ATOM     17  C   UNL     1      -2.979   5.987  -2.652  0.00  0.00    +0.003 A 
ATOM     18  C   UNL     1      -2.816   5.308  -3.847  0.00  0.00    +0.037 A 
ENDBRANCH  12  13
ENDBRANCH   3  12
TORSDOF 4
ENDMDL
