MODEL 1
REMARK VINA RESULT:      -6.4      0.000      0.000
REMARK  Name = 
REMARK  3 active torsions:
REMARK  status: ('A' for Active; 'I' for Inactive)
REMARK    1  A    between atoms: N_2  and  N_3
REMARK    2  A    between atoms: N_7  and  C_8
REMARK    3  A    between atoms: C_13  and  C_14
REMARK                            x       y       z     vdW  Elec       q    Type
REMARK                         _______ _______ _______ _____ _____    ______ ____
ROOT
ATOM      1  C   UNL     1       0.596   5.124  -5.874  0.00  0.00    +0.189 C 
ATOM      2  C   UNL     1       0.497   6.081  -7.287  0.00  0.00    +0.292 C 
ATOM      3  O   UNL     1       1.469   7.229  -7.045  0.00  0.00    -0.188 OA
ATOM      4  O   UNL     1       1.459   5.071  -7.937  0.00  0.00    -0.324 OA
ATOM      5  C   UNL     1       2.724   5.875  -7.997  0.00  0.00    +0.184 C 
ATOM      6  C   UNL     1       3.290   5.725  -6.379  0.00  0.00    +0.214 C 
ATOM      7  O   UNL     1       2.782   6.931  -5.627  0.00  0.00    -0.218 OA
ATOM      8  C   UNL     1       2.205   4.634  -5.634  0.00  0.00    +0.210 C 
ATOM      9  O   UNL     1       2.190   3.542  -6.694  0.00  0.00    -0.218 OA
ENDROOT
BRANCH   1  13
ATOM     10  C   UNL     1       0.231   5.053  -2.058  0.00  0.00    +0.148 C 
ATOM     11  N   UNL     1      -0.461   5.411  -2.592  0.00  0.00    -0.127 N 
ATOM     12  C   UNL     1      -0.443   6.079  -3.853  0.00  0.00    +0.345 C 
ATOM     13  N   UNL     1       0.676   6.208  -4.751  0.00  0.00    -0.181 NA
ATOM     14  O   UNL     1      -1.514   6.209  -4.521  0.00  0.00    -0.249 OA
BRANCH  11  15
ATOM     15  N   UNL     1      -1.734   5.362  -1.981  0.00  0.00    +0.053 NA
ATOM     16  O   UNL     1      -2.626   4.659  -2.332  0.00  0.00    -0.126 OA
ENDBRANCH  11  15
ENDBRANCH   1  13
BRANCH   5  17
ATOM     17  C   UNL     1       3.702   4.569  -8.254  0.00  0.00    +0.214 C 
ATOM     18  O   UNL     1       4.105   4.235  -9.320  0.00  0.00    -0.218 OA
ENDBRANCH   5  17
TORSDOF 3
ENDMDL
MODEL 2
REMARK VINA RESULT:      -6.4      4.200      7.354
REMARK  Name = 
REMARK  3 active torsions:
REMARK  status: ('A' for Active; 'I' for Inactive)
REMARK    1  A    between atoms: N_2  and  N_3
REMARK    2  A    between atoms: N_7  and  C_8
REMARK    3  A    between atoms: C_13  and  C_14
REMARK                            x       y       z     vdW  Elec       q    Type
REMARK                         _______ _______ _______ _____ _____    ______ ____
ROOT
ATOM      1  C   UNL     1       3.780   5.097  -8.949  0.00  0.00    +0.189 C 
ATOM      2  C   UNL     1       3.585   5.431  -7.283  0.00  0.00    +0.292 C 
ATOM      3  O   UNL     1       3.265   6.920  -7.224  0.00  0.00    -0.188 OA
ATOM      4  O   UNL     1       2.158   4.874  -7.424  0.00  0.00    -0.324 OA
ATOM      5  C   UNL     1       1.346   6.132  -7.335  0.00  0.00    +0.184 C 
ATOM      6  C   UNL     1       1.512   6.749  -8.933  0.00  0.00    +0.214 C 
ATOM      7  O   UNL     1       2.670   7.718  -8.907  0.00  0.00    -0.218 OA
ATOM      8  C   UNL     1       2.368   5.538  -9.783  0.00  0.00    +0.210 C 
ATOM      9  O   UNL     1       1.556   4.322  -9.361  0.00  0.00    -0.218 OA
ENDROOT
BRANCH   1  13
ATOM     10  C   UNL     1       5.615   5.996 -12.192  0.00  0.00    +0.148 C 
ATOM     11  N   UNL     1       6.108   5.786 -11.413  0.00  0.00    -0.127 N 
ATOM     12  C   UNL     1       5.820   5.963 -10.028  0.00  0.00    +0.345 C 
ATOM     13  N   UNL     1       4.561   6.356  -9.445  0.00  0.00    -0.181 NA
ATOM     14  O   UNL     1       6.492   5.340  -9.152  0.00  0.00    -0.249 OA
BRANCH  11  15
ATOM     15  N   UNL     1       7.407   5.298 -11.677  0.00  0.00    +0.053 NA
ATOM     16  O   UNL     1       7.685   4.565 -12.570  0.00  0.00    -0.126 OA
ENDBRANCH  11  15
ENDBRANCH   1  13
BRANCH   5  17
ATOM     17  C   UNL     1      -0.027   5.451  -7.949  0.00  0.00    +0.214 C 
ATOM     18  O   UNL     1      -0.995   5.201  -7.307  0.00  0.00    -0.218 OA
ENDBRANCH   5  17
TORSDOF 3
ENDMDL
MODEL 3
REMARK VINA RESULT:      -6.2      3.341      6.637
REMARK  Name = 
REMARK  3 active torsions:
REMARK  status: ('A' for Active; 'I' for Inactive)
REMARK    1  A    between atoms: N_2  and  N_3
REMARK    2  A    between atoms: N_7  and  C_8
REMARK    3  A    between atoms: C_13  and  C_14
REMARK                            x       y       z     vdW  Elec       q    Type
REMARK                         _______ _______ _______ _____ _____    ______ ____
ROOT
ATOM      1  C   UNL     1       3.487   5.349  -7.627  0.00  0.00    +0.189 C 
ATOM      2  C   UNL     1       4.036   5.979  -6.135  0.00  0.00    +0.292 C 
ATOM      3  O   UNL     1       3.537   7.419  -6.118  0.00  0.00    -0.188 OA
ATOM      4  O   UNL     1       2.821   5.287  -5.491  0.00  0.00    -0.324 OA
ATOM      5  C   UNL     1       1.948   6.466  -5.180  0.00  0.00    +0.184 C 
ATOM      6  C   UNL     1       1.247   6.776  -6.721  0.00  0.00    +0.214 C 
ATOM      7  O   UNL     1       2.104   7.826  -7.385  0.00  0.00    -0.218 OA
ATOM      8  C   UNL     1       1.797   5.501  -7.717  0.00  0.00    +0.210 C 
ATOM      9  O   UNL     1       1.489   4.324  -6.802  0.00  0.00    -0.218 OA
ENDROOT
BRANCH   1  13
ATOM     10  C   UNL     1       3.261   5.802 -11.426  0.00  0.00    +0.148 C 
ATOM     11  N   UNL     1       4.107   5.751 -11.006  0.00  0.00    -0.127 N 
ATOM     12  C   UNL     1       4.548   6.139  -9.706  0.00  0.00    +0.345 C 
ATOM     13  N   UNL     1       3.725   6.550  -8.597  0.00  0.00    -0.181 NA
ATOM     14  O   UNL     1       5.651   5.707  -9.252  0.00  0.00    -0.249 OA
BRANCH  11  15
ATOM     15  N   UNL     1       5.139   5.300 -11.858  0.00  0.00    +0.053 NA
ATOM     16  O   UNL     1       4.969   4.830 -12.936  0.00  0.00    -0.126 OA
ENDBRANCH  11  15
ENDBRANCH   1  13
BRANCH   5  17
ATOM     17  C   UNL     1       0.581   5.566  -4.956  0.00  0.00    +0.214 C 
ATOM     18  O   UNL     1       0.139   5.275  -3.893  0.00  0.00    -0.218 OA
ENDBRANCH   5  17
TORSDOF 3
ENDMDL
MODEL 4
REMARK VINA RESULT:      -6.1      2.304      2.998
REMARK  Name = 
REMARK  3 active torsions:
REMARK  status: ('A' for Active; 'I' for Inactive)
REMARK    1  A    between atoms: N_2  and  N_3
REMARK    2  A    between atoms: N_7  and  C_8
REMARK    3  A    between atoms: C_13  and  C_14
REMARK                            x       y       z     vdW  Elec       q    Type
REMARK                         _______ _______ _______ _____ _____    ______ ____
ROOT
ATOM      1  C   UNL     1       1.538   6.410  -7.286  0.00  0.00    +0.189 C 
ATOM      2  C   UNL     1       3.154   6.478  -6.733  0.00  0.00    +0.292 C 
ATOM      3  O   UNL     1       3.494   5.040  -6.358  0.00  0.00    -0.188 OA
ATOM      4  O   UNL     1       3.573   6.455  -8.214  0.00  0.00    -0.324 OA
ATOM      5  C   UNL     1       4.124   5.065  -8.337  0.00  0.00    +0.184 C 
ATOM      6  C   UNL     1       2.677   4.147  -8.492  0.00  0.00    +0.214 C 
ATOM      7  O   UNL     1       2.310   3.676  -7.105  0.00  0.00    -0.218 OA
ATOM      8  C   UNL     1       1.426   5.309  -8.576  0.00  0.00    +0.210 C 
ATOM      9  O   UNL     1       2.026   6.239  -9.621  0.00  0.00    -0.218 OA
ENDROOT
BRANCH   1  13
ATOM     10  C   UNL     1      -2.071   5.427  -6.442  0.00  0.00    +0.148 C 
ATOM     11  N   UNL     1      -1.580   5.975  -5.849  0.00  0.00    -0.127 N 
ATOM     12  C   UNL     1      -0.185   6.054  -5.559  0.00  0.00    +0.345 C 
ATOM     13  N   UNL     1       0.888   5.411  -6.275  0.00  0.00    -0.181 NA
ATOM     14  O   UNL     1       0.284   7.062  -4.949  0.00  0.00    -0.249 OA
BRANCH  11  15
ATOM     15  N   UNL     1      -2.388   6.797  -5.033  0.00  0.00    +0.053 NA
ATOM     16  O   UNL     1      -2.909   7.803  -5.391  0.00  0.00    -0.126 OA
ENDBRANCH  11  15
ENDBRANCH   1  13
BRANCH   5  17
ATOM     17  C   UNL     1       4.081   5.048  -9.988  0.00  0.00    +0.214 C 
ATOM     18  O   UNL     1       5.018   5.268 -10.684  0.00  0.00    -0.218 OA
ENDBRANCH   5  17
TORSDOF 3
ENDMDL
MODEL 5
REMARK VINA RESULT:      -6.1      1.781      2.745
REMARK  Name = 
REMARK  3 active torsions:
REMARK  status: ('A' for Active; 'I' for Inactive)
REMARK    1  A    between atoms: N_2  and  N_3
REMARK    2  A    between atoms: N_7  and  C_8
REMARK    3  A    between atoms: C_13  and  C_14
REMARK                            x       y       z     vdW  Elec       q    Type
REMARK                         _______ _______ _______ _____ _____    ______ ____
ROOT
ATOM      1  C   UNL     1       1.194   6.633  -6.357  0.00  0.00    +0.189 C 
ATOM      2  C   UNL     1       2.819   6.436  -5.860  0.00  0.00    +0.292 C 
ATOM      3  O   UNL     1       3.162   4.997  -6.225  0.00  0.00    -0.188 OA
ATOM      4  O   UNL     1       3.216   7.129  -7.176  0.00  0.00    -0.324 OA
ATOM      5  C   UNL     1       3.763   5.972  -7.958  0.00  0.00    +0.184 C 
ATOM      6  C   UNL     1       2.313   5.232  -8.515  0.00  0.00    +0.214 C 
ATOM      7  O   UNL     1       1.965   4.152  -7.520  0.00  0.00    -0.218 OA
ATOM      8  C   UNL     1       1.063   6.286  -8.015  0.00  0.00    +0.210 C 
ATOM      9  O   UNL     1       1.649   7.606  -8.494  0.00  0.00    -0.218 OA
ENDROOT
BRANCH   1  13
ATOM     10  C   UNL     1      -2.403   5.353  -6.021  0.00  0.00    +0.148 C 
ATOM     11  N   UNL     1      -1.898   5.549  -5.246  0.00  0.00    -0.127 N 
ATOM     12  C   UNL     1      -0.497   5.482  -4.982  0.00  0.00    +0.345 C 
ATOM     13  N   UNL     1       0.558   5.268  -5.940  0.00  0.00    -0.181 NA
ATOM     14  O   UNL     1      -0.011   6.074  -3.971  0.00  0.00    -0.249 OA
BRANCH  11  15
ATOM     15  N   UNL     1      -2.685   5.872  -4.119  0.00  0.00    +0.053 NA
ATOM     16  O   UNL     1      -3.197   5.075  -3.402  0.00  0.00    -0.126 OA
ENDBRANCH  11  15
ENDBRANCH   1  13
BRANCH   5  17
ATOM     17  C   UNL     1       3.697   6.748  -9.414  0.00  0.00    +0.214 C 
ATOM     18  O   UNL     1       4.640   6.954 -10.106  0.00  0.00    -0.218 OA
ENDBRANCH   5  17
TORSDOF 3
ENDMDL
MODEL 6
REMARK VINA RESULT:      -6.1      1.795      2.276
REMARK  Name = 
REMARK  3 active torsions:
REMARK  status: ('A' for Active; 'I' for Inactive)
REMARK    1  A    between atoms: N_2  and  N_3
REMARK    2  A    between atoms: N_7  and  C_8
REMARK    3  A    between atoms: C_13  and  C_14
REMARK                            x       y       z     vdW  Elec       q    Type
REMARK                         _______ _______ _______ _____ _____    ______ ____
ROOT
ATOM      1  C   UNL     1       1.196   5.222  -7.796  0.00  0.00    +0.189 C 
ATOM      2  C   UNL     1       0.622   5.616  -9.358  0.00  0.00    +0.292 C 
ATOM      3  O   UNL     1       0.960   7.091  -9.533  0.00  0.00    -0.188 OA
ATOM      4  O   UNL     1       1.923   4.996  -9.900  0.00  0.00    -0.324 OA
ATOM      5  C   UNL     1       2.669   6.224 -10.331  0.00  0.00    +0.184 C 
ATOM      6  C   UNL     1       3.289   6.782  -8.826  0.00  0.00    +0.214 C 
ATOM      7  O   UNL     1       2.303   7.796  -8.299  0.00  0.00    -0.218 OA
ATOM      8  C   UNL     1       2.856   5.573  -7.698  0.00  0.00    +0.210 C 
ATOM      9  O   UNL     1       3.316   4.343  -8.467  0.00  0.00    -0.218 OA
ENDROOT
BRANCH   1  13
ATOM     10  C   UNL     1       1.025   6.036  -4.054  0.00  0.00    +0.148 C 
ATOM     11  N   UNL     1       0.229   5.895  -4.543  0.00  0.00    -0.127 N 
ATOM     12  C   UNL     1      -0.104   6.132  -5.909  0.00  0.00    +0.345 C 
ATOM     13  N   UNL     1       0.799   6.491  -6.974  0.00  0.00    -0.181 NA
ATOM     14  O   UNL     1      -1.133   5.592  -6.418  0.00  0.00    -0.249 OA
BRANCH  11  15
ATOM     15  N   UNL     1      -0.856   5.459  -3.750  0.00  0.00    +0.053 NA
ATOM     16  O   UNL     1      -0.759   5.047  -2.640  0.00  0.00    -0.126 OA
ENDBRANCH  11  15
ENDBRANCH   1  13
BRANCH   5  17
ATOM     17  C   UNL     1       4.133   5.464 -10.430  0.00  0.00    +0.214 C 
ATOM     18  O   UNL     1       4.673   5.183 -11.450  0.00  0.00    -0.218 OA
ENDBRANCH   5  17
TORSDOF 3
ENDMDL
MODEL 7
REMARK VINA RESULT:      -6.1      4.049      7.317
REMARK  Name = 
REMARK  3 active torsions:
REMARK  status: ('A' for Active; 'I' for Inactive)
REMARK    1  A    between atoms: N_2  and  N_3
REMARK    2  A    between atoms: N_7  and  C_8
REMARK    3  A    between atoms: C_13  and  C_14
REMARK                            x       y       z     vdW  Elec       q    Type
REMARK                         _______ _______ _______ _____ _____    ______ ____
ROOT
ATOM      1  C   UNL     1       3.533   6.611  -9.376  0.00  0.00    +0.189 C 
ATOM      2  C   UNL     1       1.956   6.248  -9.930  0.00  0.00    +0.292 C 
ATOM      3  O   UNL     1       1.769   4.768  -9.617  0.00  0.00    -0.188 OA
ATOM      4  O   UNL     1       1.445   6.849  -8.609  0.00  0.00    -0.324 OA
ATOM      5  C   UNL     1       1.011   5.613  -7.878  0.00  0.00    +0.184 C 
ATOM      6  C   UNL     1       2.519   5.024  -7.295  0.00  0.00    +0.214 C 
ATOM      7  O   UNL     1       3.016   4.023  -8.309  0.00  0.00    -0.218 OA
ATOM      8  C   UNL     1       3.655   6.228  -7.725  0.00  0.00    +0.210 C 
ATOM      9  O   UNL     1       2.909   7.458  -7.229  0.00  0.00    -0.218 OA
ENDROOT
BRANCH   1  13
ATOM     10  C   UNL     1       7.252   5.684  -9.439  0.00  0.00    +0.148 C 
ATOM     11  N   UNL     1       6.802   5.886 -10.245  0.00  0.00    -0.127 N 
ATOM     12  C   UNL     1       5.445   5.713 -10.647  0.00  0.00    +0.345 C 
ATOM     13  N   UNL     1       4.332   5.340  -9.811  0.00  0.00    -0.181 NA
ATOM     14  O   UNL     1       4.998   6.327 -11.663  0.00  0.00    -0.249 OA
BRANCH  11  15
ATOM     15  N   UNL     1       7.655   6.355 -11.269  0.00  0.00    +0.053 NA
ATOM     16  O   UNL     1       8.541   5.728 -11.750  0.00  0.00    -0.126 OA
ENDBRANCH  11  15
ENDBRANCH   1  13
BRANCH   5  17
ATOM     17  C   UNL     1       0.946   6.346  -6.399  0.00  0.00    +0.214 C 
ATOM     18  O   UNL     1      -0.055   6.720  -5.881  0.00  0.00    -0.218 OA
ENDBRANCH   5  17
TORSDOF 3
ENDMDL
MODEL 8
REMARK VINA RESULT:      -6.0      2.935      6.318
REMARK  Name = 
REMARK  3 active torsions:
REMARK  status: ('A' for Active; 'I' for Inactive)
REMARK    1  A    between atoms: N_2  and  N_3
REMARK    2  A    between atoms: N_7  and  C_8
REMARK    3  A    between atoms: C_13  and  C_14
REMARK                            x       y       z     vdW  Elec       q    Type
REMARK                         _______ _______ _______ _____ _____    ______ ____
ROOT
ATOM      1  C   UNL     1       1.985   4.841  -7.670  0.00  0.00    +0.189 C 
ATOM      2  C   UNL     1       2.051   3.795  -6.320  0.00  0.00    +0.292 C 
ATOM      3  O   UNL     1       2.815   4.580  -5.260  0.00  0.00    -0.188 OA
ATOM      4  O   UNL     1       0.621   4.264  -5.994  0.00  0.00    -0.324 OA
ATOM      5  C   UNL     1       0.868   5.131  -4.795  0.00  0.00    +0.184 C 
ATOM      6  C   UNL     1       1.421   6.580  -5.541  0.00  0.00    +0.214 C 
ATOM      7  O   UNL     1       2.929   6.508  -5.564  0.00  0.00    -0.218 OA
ATOM      8  C   UNL     1       1.246   6.303  -7.219  0.00  0.00    +0.210 C 
ATOM      9  O   UNL     1      -0.177   5.764  -7.231  0.00  0.00    -0.218 OA
ENDROOT
BRANCH   1  13
ATOM     10  C   UNL     1       4.007   6.905 -10.190  0.00  0.00    +0.148 C 
ATOM     11  N   UNL     1       4.221   5.996 -10.045  0.00  0.00    -0.127 N 
ATOM     12  C   UNL     1       4.101   5.162  -8.894  0.00  0.00    +0.345 C 
ATOM     13  N   UNL     1       3.415   5.472  -7.665  0.00  0.00    -0.181 NA
ATOM     14  O   UNL     1       4.171   3.901  -9.010  0.00  0.00    -0.249 OA
BRANCH  11  15
ATOM     15  N   UNL     1       4.867   5.381 -11.140  0.00  0.00    +0.053 NA
ATOM     16  O   UNL     1       4.457   5.385 -12.255  0.00  0.00    -0.126 OA
ENDBRANCH  11  15
ENDBRANCH   1  13
BRANCH   5  17
ATOM     17  C   UNL     1      -0.600   5.884  -4.868  0.00  0.00    +0.214 C 
ATOM     18  O   UNL     1      -1.535   5.597  -4.194  0.00  0.00    -0.218 OA
ENDBRANCH   5  17
TORSDOF 3
ENDMDL
MODEL 9
REMARK VINA RESULT:      -5.9      2.526      2.750
REMARK  Name = 
REMARK  3 active torsions:
REMARK  status: ('A' for Active; 'I' for Inactive)
REMARK    1  A    between atoms: N_2  and  N_3
REMARK    2  A    between atoms: N_7  and  C_8
REMARK    3  A    between atoms: C_13  and  C_14
REMARK                            x       y       z     vdW  Elec       q    Type
REMARK                         _______ _______ _______ _____ _____    ______ ____
ROOT
ATOM      1  C   UNL     1       1.271   4.989  -4.992  0.00  0.00    +0.189 C 
ATOM      2  C   UNL     1       0.130   5.893  -5.889  0.00  0.00    +0.292 C 
ATOM      3  O   UNL     1       0.854   7.186  -6.244  0.00  0.00    -0.188 OA
ATOM      4  O   UNL     1       0.534   5.038  -7.104  0.00  0.00    -0.324 OA
ATOM      5  C   UNL     1       1.316   6.033  -7.909  0.00  0.00    +0.184 C 
ATOM      6  C   UNL     1       2.830   6.005  -7.092  0.00  0.00    +0.214 C 
ATOM      7  O   UNL     1       2.802   7.127  -6.084  0.00  0.00    -0.218 OA
ATOM      8  C   UNL     1       2.675   4.767  -5.924  0.00  0.00    +0.210 C 
ATOM      9  O   UNL     1       2.099   3.668  -6.805  0.00  0.00    -0.218 OA
ENDROOT
BRANCH   1  13
ATOM     10  C   UNL     1       4.157   5.009  -2.469  0.00  0.00    +0.148 C 
ATOM     11  N   UNL     1       3.264   5.064  -2.165  0.00  0.00    -0.127 N 
ATOM     12  C   UNL     1       2.090   5.620  -2.754  0.00  0.00    +0.345 C 
ATOM     13  N   UNL     1       1.938   6.092  -4.108  0.00  0.00    -0.181 NA
ATOM     14  O   UNL     1       0.944   5.319  -2.301  0.00  0.00    -0.249 OA
BRANCH  11  15
ATOM     15  N   UNL     1       3.083   4.596  -0.844  0.00  0.00    +0.053 NA
ATOM     16  O   UNL     1       3.362   3.503  -0.471  0.00  0.00    -0.126 OA
ENDBRANCH  11  15
ENDBRANCH   1  13
BRANCH   5  17
ATOM     17  C   UNL     1       2.032   4.897  -8.869  0.00  0.00    +0.214 C 
ATOM     18  O   UNL     1       1.705   4.662  -9.987  0.00  0.00    -0.218 OA
ENDBRANCH   5  17
TORSDOF 3
ENDMDL
