MODEL 1
REMARK VINA RESULT:      -8.1      0.000      0.000
REMARK  Name = 
REMARK  5 active torsions:
REMARK  status: ('A' for Active; 'I' for Inactive)
REMARK    1  A    between atoms: CA_2  and  C_3
REMARK    2  A    between atoms: CA_2  and  C_21
REMARK    3  A    between atoms: C_3  and  C_4
REMARK    4  A    between atoms: C_8  and  O_9
REMARK    5  A    between atoms: O_9  and  C_10
REMARK                            x       y       z     vdW  Elec       q    Type
REMARK                         _______ _______ _______ _____ _____    ______ ____
ROOT
ATOM      1  C   UNL     1       4.444   6.093 -10.138  0.00  0.00    -0.019 A 
ATOM      2  C   UNL     1       3.255   5.550 -10.565  0.00  0.00    +0.005 A 
ATOM      3  C   UNL     1       2.275   5.111  -9.681  0.00  0.00    +0.065 A 
ATOM      4  I   UNL     1       0.266   4.958 -10.308  0.00  0.00    -0.039 I 
ATOM      5  C   UNL     1       2.639   4.993  -8.347  0.00  0.00    +0.156 A 
ATOM      6  C   UNL     1       3.746   5.667  -7.882  0.00  0.00    +0.065 A 
ATOM      7  I   UNL     1       4.029   5.793  -5.813  0.00  0.00    -0.039 I 
ATOM      8  C   UNL     1       4.667   6.198  -8.776  0.00  0.00    +0.005 A 
ENDROOT
BRANCH   1   9
ATOM      9  C   UNL     1       5.408   6.652 -11.141  0.00  0.00    +0.057 C 
BRANCH   9  11
ATOM     10  N   UNL     1       7.741   6.839 -11.001  0.00  0.00    -0.120 NA
ATOM     11  CA  UNL     1       6.708   5.611 -10.960  0.00  0.00    +0.199 C 
BRANCH  11  12
ATOM     12  C   UNL     1       6.854   5.385 -12.583  0.00  0.00    +0.382 C 
ATOM     13  OXT UNL     1       5.696   4.865 -13.165  0.00  0.00    -0.244 OA
ATOM     14  O   UNL     1       7.844   4.593 -12.699  0.00  0.00    -0.244 OA
ENDBRANCH  11  12
ENDBRANCH   9  11
ENDBRANCH   1   9
BRANCH   5  15
ATOM     15  O   UNL     1       1.752   4.317  -7.502  0.00  0.00    -0.453 OA
BRANCH  15  16
ATOM     16  C   UNL     1       0.857   5.037  -6.716  0.00  0.00    +0.146 A 
ATOM     17  C   UNL     1       1.048   5.048  -5.348  0.00  0.00    +0.046 A 
ATOM     18  C   UNL     1       0.036   5.410  -4.474  0.00  0.00    +0.072 A 
ATOM     19  I   UNL     1       0.345   5.471  -2.385  0.00  0.00    -0.039 I 
ATOM     20  C   UNL     1      -1.221   5.709  -4.961  0.00  0.00    +0.201 A 
ATOM     21  O   UNL     1      -2.337   5.397  -4.179  0.00  0.00    -0.286 OA
ATOM     22  C   UNL     1      -1.313   5.979  -6.316  0.00  0.00    +0.046 A 
ATOM     23  C   UNL     1      -0.395   5.416  -7.190  0.00  0.00    +0.041 A 
ENDBRANCH  15  16
ENDBRANCH   5  15
TORSDOF 5
ENDMDL
MODEL 2
REMARK VINA RESULT:      -8.0      3.311      8.237
REMARK  Name = 
REMARK  5 active torsions:
REMARK  status: ('A' for Active; 'I' for Inactive)
REMARK    1  A    between atoms: CA_2  and  C_3
REMARK    2  A    between atoms: CA_2  and  C_21
REMARK    3  A    between atoms: C_3  and  C_4
REMARK    4  A    between atoms: C_8  and  O_9
REMARK    5  A    between atoms: O_9  and  C_10
REMARK                            x       y       z     vdW  Elec       q    Type
REMARK                         _______ _______ _______ _____ _____    ______ ____
ROOT
ATOM      1  C   UNL     1      -0.240   5.395  -7.091  0.00  0.00    -0.019 A 
ATOM      2  C   UNL     1       1.004   5.243  -6.524  0.00  0.00    +0.005 A 
ATOM      3  C   UNL     1       2.163   5.133  -7.285  0.00  0.00    +0.065 A 
ATOM      4  I   UNL     1       4.039   5.605  -6.444  0.00  0.00    -0.039 I 
ATOM      5  C   UNL     1       2.002   4.917  -8.647  0.00  0.00    +0.156 A 
ATOM      6  C   UNL     1       0.800   5.218  -9.246  0.00  0.00    +0.065 A 
ATOM      7  I   UNL     1       0.722   5.262 -11.337  0.00  0.00    -0.039 I 
ATOM      8  C   UNL     1      -0.333   5.434  -8.472  0.00  0.00    +0.005 A 
ENDROOT
BRANCH   1   9
ATOM      9  C   UNL     1      -1.433   5.622  -6.213  0.00  0.00    +0.057 C 
BRANCH   9  11
ATOM     10  N   UNL     1      -1.749   5.452  -3.896  0.00  0.00    -0.120 NA
ATOM     11  CA  UNL     1      -0.711   6.240  -4.834  0.00  0.00    +0.199 C 
BRANCH  11  12
ATOM     12  C   UNL     1      -1.671   7.577  -4.835  0.00  0.00    +0.382 C 
ATOM     13  OXT UNL     1      -1.980   8.024  -3.549  0.00  0.00    -0.244 OA
ATOM     14  O   UNL     1      -2.708   7.215  -5.478  0.00  0.00    -0.244 OA
ENDBRANCH  11  12
ENDBRANCH   9  11
ENDBRANCH   1   9
BRANCH   5  15
ATOM     15  O   UNL     1       3.141   4.552  -9.373  0.00  0.00    -0.453 OA
BRANCH  15  16
ATOM     16  C   UNL     1       3.830   5.510 -10.110  0.00  0.00    +0.146 A 
ATOM     17  C   UNL     1       4.873   5.095 -10.914  0.00  0.00    +0.046 A 
ATOM     18  C   UNL     1       5.830   5.981 -11.383  0.00  0.00    +0.072 A 
ATOM     19  I   UNL     1       7.397   5.350 -12.650  0.00  0.00    -0.039 I 
ATOM     20  C   UNL     1       5.792   7.305 -10.994  0.00  0.00    +0.201 A 
ATOM     21  O   UNL     1       6.997   7.998 -10.851  0.00  0.00    -0.286 OA
ATOM     22  C   UNL     1       4.602   7.757 -10.448  0.00  0.00    +0.046 A 
ATOM     23  C   UNL     1       3.767   6.864  -9.794  0.00  0.00    +0.041 A 
ENDBRANCH  15  16
ENDBRANCH   5  15
TORSDOF 5
ENDMDL
MODEL 3
REMARK VINA RESULT:      -8.0      3.663      4.441
REMARK  Name = 
REMARK  5 active torsions:
REMARK  status: ('A' for Active; 'I' for Inactive)
REMARK    1  A    between atoms: CA_2  and  C_3
REMARK    2  A    between atoms: CA_2  and  C_21
REMARK    3  A    between atoms: C_3  and  C_4
REMARK    4  A    between atoms: C_8  and  O_9
REMARK    5  A    between atoms: O_9  and  C_10
REMARK                            x       y       z     vdW  Elec       q    Type
REMARK                         _______ _______ _______ _____ _____    ______ ____
ROOT
ATOM      1  C   UNL     1       0.870   5.942 -10.264  0.00  0.00    -0.019 A 
ATOM      2  C   UNL     1       0.165   5.693  -9.109  0.00  0.00    +0.005 A 
ATOM      3  C   UNL     1       0.789   5.361  -7.911  0.00  0.00    +0.065 A 
ATOM      4  I   UNL     1      -0.198   5.676  -6.073  0.00  0.00    -0.039 I 
ATOM      5  C   UNL     1       2.136   5.029  -7.975  0.00  0.00    +0.156 A 
ATOM      6  C   UNL     1       2.881   5.418  -9.065  0.00  0.00    +0.065 A 
ATOM      7  I   UNL     1       4.964   5.258  -8.944  0.00  0.00    -0.039 I 
ATOM      8  C   UNL     1       2.251   5.852 -10.224  0.00  0.00    +0.005 A 
ENDROOT
BRANCH   1   9
ATOM      9  C   UNL     1       0.145   6.407 -11.490  0.00  0.00    +0.057 C 
BRANCH   9  11
ATOM     10  N   UNL     1       0.675   7.867 -13.247  0.00  0.00    -0.120 NA
ATOM     11  CA  UNL     1       1.416   6.619 -12.560  0.00  0.00    +0.199 C 
BRANCH  11  12
ATOM     12  C   UNL     1       0.767   5.581 -13.660  0.00  0.00    +0.382 C 
ATOM     13  OXT UNL     1       0.693   4.268 -13.189  0.00  0.00    -0.244 OA
ATOM     14  O   UNL     1       1.531   5.683 -14.673  0.00  0.00    -0.244 OA
ENDBRANCH  11  12
ENDBRANCH   9  11
ENDBRANCH   1   9
BRANCH   5  15
ATOM     15  O   UNL     1       2.703   4.452  -6.833  0.00  0.00    -0.453 OA
BRANCH  15  16
ATOM     16  C   UNL     1       3.321   5.258  -5.882  0.00  0.00    +0.146 A 
ATOM     17  C   UNL     1       3.392   4.802  -4.581  0.00  0.00    +0.046 A 
ATOM     18  C   UNL     1       3.643   5.658  -3.521  0.00  0.00    +0.072 A 
ATOM     19  I   UNL     1       3.797   4.949  -1.537  0.00  0.00    -0.039 I 
ATOM     20  C   UNL     1       3.765   7.015  -3.745  0.00  0.00    +0.201 A 
ATOM     21  O   UNL     1       3.331   7.901  -2.754  0.00  0.00    -0.286 OA
ATOM     22  C   UNL     1       3.985   7.410  -5.053  0.00  0.00    +0.046 A 
ATOM     23  C   UNL     1       3.523   6.619  -6.094  0.00  0.00    +0.041 A 
ENDBRANCH  15  16
ENDBRANCH   5  15
TORSDOF 5
ENDMDL
MODEL 4
REMARK VINA RESULT:      -7.9      1.913      2.155
REMARK  Name = 
REMARK  5 active torsions:
REMARK  status: ('A' for Active; 'I' for Inactive)
REMARK    1  A    between atoms: CA_2  and  C_3
REMARK    2  A    between atoms: CA_2  and  C_21
REMARK    3  A    between atoms: C_3  and  C_4
REMARK    4  A    between atoms: C_8  and  O_9
REMARK    5  A    between atoms: O_9  and  C_10
REMARK                            x       y       z     vdW  Elec       q    Type
REMARK                         _______ _______ _______ _____ _____    ______ ____
ROOT
ATOM      1  C   UNL     1       4.810   5.337  -8.886  0.00  0.00    -0.019 A 
ATOM      2  C   UNL     1       3.547   5.181  -9.407  0.00  0.00    +0.005 A 
ATOM      3  C   UNL     1       2.415   5.094  -8.604  0.00  0.00    +0.065 A 
ATOM      4  I   UNL     1       0.513   5.559  -9.390  0.00  0.00    -0.039 I 
ATOM      5  C   UNL     1       2.622   4.905  -7.244  0.00  0.00    +0.156 A 
ATOM      6  C   UNL     1       3.845   5.213  -6.693  0.00  0.00    +0.065 A 
ATOM      7  I   UNL     1       3.995   5.300  -4.608  0.00  0.00    -0.039 I 
ATOM      8  C   UNL     1       4.952   5.405  -7.511  0.00  0.00    +0.005 A 
ENDROOT
BRANCH   1   9
ATOM      9  C   UNL     1       5.974   5.540  -9.809  0.00  0.00    +0.057 C 
BRANCH   9  11
ATOM     10  N   UNL     1       5.559   5.509 -12.117  0.00  0.00    -0.120 NA
ATOM     11  CA  UNL     1       5.313   6.579 -10.945  0.00  0.00    +0.199 C 
BRANCH  11  12
ATOM     12  C   UNL     1       6.763   7.297 -11.246  0.00  0.00    +0.382 C 
ATOM     13  OXT UNL     1       7.666   7.162 -10.190  0.00  0.00    -0.244 OA
ATOM     14  O   UNL     1       6.466   8.515 -11.470  0.00  0.00    -0.244 OA
ENDBRANCH  11  12
ENDBRANCH   9  11
ENDBRANCH   1   9
BRANCH   5  15
ATOM     15  O   UNL     1       1.506   4.563  -6.472  0.00  0.00    -0.453 OA
BRANCH  15  16
ATOM     16  C   UNL     1       0.856   5.538  -5.720  0.00  0.00    +0.146 A 
ATOM     17  C   UNL     1      -0.171   5.146  -4.886  0.00  0.00    +0.046 A 
ATOM     18  C   UNL     1      -1.097   6.052  -4.395  0.00  0.00    +0.072 A 
ATOM     19  I   UNL     1      -2.640   5.457  -3.081  0.00  0.00    -0.039 I 
ATOM     20  C   UNL     1      -1.044   7.374  -4.790  0.00  0.00    +0.201 A 
ATOM     21  O   UNL     1      -2.240   8.090  -4.904  0.00  0.00    -0.286 OA
ATOM     22  C   UNL     1       0.138   7.800  -5.372  0.00  0.00    +0.046 A 
ATOM     23  C   UNL     1       0.937   6.888  -6.045  0.00  0.00    +0.041 A 
ENDBRANCH  15  16
ENDBRANCH   5  15
TORSDOF 5
ENDMDL
MODEL 5
REMARK VINA RESULT:      -7.9      4.380      6.785
REMARK  Name = 
REMARK  5 active torsions:
REMARK  status: ('A' for Active; 'I' for Inactive)
REMARK    1  A    between atoms: CA_2  and  C_3
REMARK    2  A    between atoms: CA_2  and  C_21
REMARK    3  A    between atoms: C_3  and  C_4
REMARK    4  A    between atoms: C_8  and  O_9
REMARK    5  A    between atoms: O_9  and  C_10
REMARK                            x       y       z     vdW  Elec       q    Type
REMARK                         _______ _______ _______ _____ _____    ______ ____
ROOT
ATOM      1  C   UNL     1       2.085   6.699  -4.786  0.00  0.00    -0.019 A 
ATOM      2  C   UNL     1       2.938   6.367  -3.761  0.00  0.00    +0.005 A 
ATOM      3  C   UNL     1       2.489   5.820  -2.563  0.00  0.00    +0.065 A 
ATOM      4  I   UNL     1       3.799   4.701  -1.345  0.00  0.00    -0.039 I 
ATOM      5  C   UNL     1       1.122   5.863  -2.327  0.00  0.00    +0.156 A 
ATOM      6  C   UNL     1       0.255   6.039  -3.381  0.00  0.00    +0.065 A 
ATOM      7  I   UNL     1      -1.783   5.697  -3.051  0.00  0.00    -0.039 I 
ATOM      8  C   UNL     1       0.728   6.483  -4.609  0.00  0.00    +0.005 A 
ENDROOT
BRANCH   1   9
ATOM      9  C   UNL     1       2.643   7.175  -6.093  0.00  0.00    +0.057 C 
BRANCH   9  11
ATOM     10  N   UNL     1       3.257   5.404  -7.502  0.00  0.00    -0.120 NA
ATOM     11  CA  UNL     1       1.874   6.149  -7.170  0.00  0.00    +0.199 C 
BRANCH  11  12
ATOM     12  C   UNL     1       2.087   7.185  -8.431  0.00  0.00    +0.382 C 
ATOM     13  OXT UNL     1       3.246   6.919  -9.163  0.00  0.00    -0.244 OA
ATOM     14  O   UNL     1       2.119   8.336  -7.887  0.00  0.00    -0.244 OA
ENDBRANCH  11  12
ENDBRANCH   9  11
ENDBRANCH   1   9
BRANCH   5  15
ATOM     15  O   UNL     1       0.690   5.555  -1.032  0.00  0.00    -0.453 OA
BRANCH  15  16
ATOM     16  C   UNL     1       0.589   6.562  -0.076  0.00  0.00    +0.146 A 
ATOM     17  C   UNL     1      -0.622   6.740   0.563  0.00  0.00    +0.046 A 
ATOM     18  C   UNL     1      -0.926   7.913   1.235  0.00  0.00    +0.072 A 
ATOM     19  I   UNL     1      -2.761   8.164   2.251  0.00  0.00    -0.039 I 
ATOM     20  C   UNL     1      -0.033   8.967   1.221  0.00  0.00    +0.201 A 
ATOM     21  O   UNL     1      -0.533  10.272   1.245  0.00  0.00    -0.286 OA
ATOM     22  C   UNL     1       1.266   8.673   0.842  0.00  0.00    +0.046 A 
ATOM     23  C   UNL     1       1.505   7.607  -0.013  0.00  0.00    +0.041 A 
ENDBRANCH  15  16
ENDBRANCH   5  15
TORSDOF 5
ENDMDL
MODEL 6
REMARK VINA RESULT:      -7.7      3.258      8.568
REMARK  Name = 
REMARK  5 active torsions:
REMARK  status: ('A' for Active; 'I' for Inactive)
REMARK    1  A    between atoms: CA_2  and  C_3
REMARK    2  A    between atoms: CA_2  and  C_21
REMARK    3  A    between atoms: C_3  and  C_4
REMARK    4  A    between atoms: C_8  and  O_9
REMARK    5  A    between atoms: O_9  and  C_10
REMARK                            x       y       z     vdW  Elec       q    Type
REMARK                         _______ _______ _______ _____ _____    ______ ____
ROOT
ATOM      1  C   UNL     1      -0.705   5.676  -5.625  0.00  0.00    -0.019 A 
ATOM      2  C   UNL     1       0.446   5.265  -4.995  0.00  0.00    +0.005 A 
ATOM      3  C   UNL     1       1.591   4.902  -5.696  0.00  0.00    +0.065 A 
ATOM      4  I   UNL     1       3.479   4.965  -4.757  0.00  0.00    -0.039 I 
ATOM      5  C   UNL     1       1.457   4.713  -7.065  0.00  0.00    +0.156 A 
ATOM      6  C   UNL     1       0.380   5.261  -7.724  0.00  0.00    +0.065 A 
ATOM      7  I   UNL     1       0.420   5.303  -9.816  0.00  0.00    -0.039 I 
ATOM      8  C   UNL     1      -0.718   5.723  -7.009  0.00  0.00    +0.005 A 
ENDROOT
BRANCH   1   9
ATOM      9  C   UNL     1      -1.865   6.163  -4.810  0.00  0.00    +0.057 C 
BRANCH   9  11
ATOM     10  N   UNL     1      -2.707   4.800  -3.098  0.00  0.00    -0.120 NA
ATOM     11  CA  UNL     1      -1.394   5.708  -3.268  0.00  0.00    +0.199 C 
BRANCH  11  12
ATOM     12  C   UNL     1      -2.149   6.995  -2.573  0.00  0.00    +0.382 C 
ATOM     13  OXT UNL     1      -3.485   6.737  -2.259  0.00  0.00    -0.244 OA
ATOM     14  O   UNL     1      -2.031   7.927  -3.432  0.00  0.00    -0.244 OA
ENDBRANCH  11  12
ENDBRANCH   9  11
ENDBRANCH   1   9
BRANCH   5  15
ATOM     15  O   UNL     1       2.526   4.105  -7.731  0.00  0.00    -0.453 OA
BRANCH  15  16
ATOM     16  C   UNL     1       3.481   4.890  -8.372  0.00  0.00    +0.146 A 
ATOM     17  C   UNL     1       3.453   4.963  -9.750  0.00  0.00    +0.046 A 
ATOM     18  C   UNL     1       4.548   5.399 -10.479  0.00  0.00    +0.072 A 
ATOM     19  I   UNL     1       4.486   5.554 -12.585  0.00  0.00    -0.039 I 
ATOM     20  C   UNL     1       5.727   5.712  -9.832  0.00  0.00    +0.201 A 
ATOM     21  O   UNL     1       6.938   5.472 -10.489  0.00  0.00    -0.286 OA
ATOM     22  C   UNL     1       5.648   5.917  -8.465  0.00  0.00    +0.046 A 
ATOM     23  C   UNL     1       4.654   5.283  -7.734  0.00  0.00    +0.041 A 
ENDBRANCH  15  16
ENDBRANCH   5  15
TORSDOF 5
ENDMDL
MODEL 7
REMARK VINA RESULT:      -7.7      4.564      9.222
REMARK  Name = 
REMARK  5 active torsions:
REMARK  status: ('A' for Active; 'I' for Inactive)
REMARK    1  A    between atoms: CA_2  and  C_3
REMARK    2  A    between atoms: CA_2  and  C_21
REMARK    3  A    between atoms: C_3  and  C_4
REMARK    4  A    between atoms: C_8  and  O_9
REMARK    5  A    between atoms: O_9  and  C_10
REMARK                            x       y       z     vdW  Elec       q    Type
REMARK                         _______ _______ _______ _____ _____    ______ ____
ROOT
ATOM      1  C   UNL     1       0.000   6.205  -1.311  0.00  0.00    -0.019 A 
ATOM      2  C   UNL     1       1.239   5.723  -1.661  0.00  0.00    +0.005 A 
ATOM      3  C   UNL     1       1.580   5.425  -2.975  0.00  0.00    +0.065 A 
ATOM      4  I   UNL     1       3.605   5.379  -3.567  0.00  0.00    -0.039 I 
ATOM      5  C   UNL     1       0.544   5.378  -3.898  0.00  0.00    +0.156 A 
ATOM      6  C   UNL     1      -0.650   5.999  -3.611  0.00  0.00    +0.065 A 
ATOM      7  I   UNL     1      -2.029   6.254  -5.164  0.00  0.00    -0.039 I 
ATOM      8  C   UNL     1      -0.939   6.393  -2.311  0.00  0.00    +0.005 A 
ENDROOT
BRANCH   1   9
ATOM      9  C   UNL     1      -0.265   6.616   0.107  0.00  0.00    +0.057 C 
BRANCH   9  11
ATOM     10  N   UNL     1       1.283   7.217   1.762  0.00  0.00    -0.120 NA
ATOM     11  CA  UNL     1       0.891   7.809   0.322  0.00  0.00    +0.199 C 
BRANCH  11  12
ATOM     12  C   UNL     1      -0.193   8.844   1.002  0.00  0.00    +0.382 C 
ATOM     13  OXT UNL     1      -1.397   8.909   0.299  0.00  0.00    -0.244 OA
ATOM     14  O   UNL     1       0.413   9.965   1.016  0.00  0.00    -0.244 OA
ENDBRANCH  11  12
ENDBRANCH   9  11
ENDBRANCH   1   9
BRANCH   5  15
ATOM     15  O   UNL     1       0.834   4.834  -5.154  0.00  0.00    -0.453 OA
BRANCH  15  16
ATOM     16  C   UNL     1       0.975   5.670  -6.257  0.00  0.00    +0.146 A 
ATOM     17  C   UNL     1       0.628   5.181  -7.500  0.00  0.00    +0.046 A 
ATOM     18  C   UNL     1       1.067   5.781  -8.669  0.00  0.00    +0.072 A 
ATOM     19  I   UNL     1       0.496   5.057 -10.570  0.00  0.00    -0.039 I 
ATOM     20  C   UNL     1       1.927   6.860  -8.609  0.00  0.00    +0.201 A 
ATOM     21  O   UNL     1       2.875   7.021  -9.624  0.00  0.00    -0.286 OA
ATOM     22  C   UNL     1       2.023   7.508  -7.389  0.00  0.00    +0.046 A 
ATOM     23  C   UNL     1       1.780   6.805  -6.219  0.00  0.00    +0.041 A 
ENDBRANCH  15  16
ENDBRANCH   5  15
TORSDOF 5
ENDMDL
MODEL 8
REMARK VINA RESULT:      -7.6      5.421      9.981
REMARK  Name = 
REMARK  5 active torsions:
REMARK  status: ('A' for Active; 'I' for Inactive)
REMARK    1  A    between atoms: CA_2  and  C_3
REMARK    2  A    between atoms: CA_2  and  C_21
REMARK    3  A    between atoms: C_3  and  C_4
REMARK    4  A    between atoms: C_8  and  O_9
REMARK    5  A    between atoms: O_9  and  C_10
REMARK                            x       y       z     vdW  Elec       q    Type
REMARK                         _______ _______ _______ _____ _____    ______ ____
ROOT
ATOM      1  C   UNL     1      -1.059   7.425  -0.428  0.00  0.00    -0.019 A 
ATOM      2  C   UNL     1      -1.828   7.176  -1.540  0.00  0.00    +0.005 A 
ATOM      3  C   UNL     1      -1.434   6.290  -2.537  0.00  0.00    +0.065 A 
ATOM      4  I   UNL     1      -2.868   5.413  -3.812  0.00  0.00    -0.039 I 
ATOM      5  C   UNL     1      -0.115   5.857  -2.507  0.00  0.00    +0.156 A 
ATOM      6  C   UNL     1       0.609   5.962  -1.341  0.00  0.00    +0.065 A 
ATOM      7  I   UNL     1       2.433   4.944  -1.216  0.00  0.00    -0.039 I 
ATOM      8  C   UNL     1       0.153   6.767  -0.305  0.00  0.00    +0.005 A 
ENDROOT
BRANCH   1   9
ATOM      9  C   UNL     1      -1.594   8.302   0.664  0.00  0.00    +0.057 C 
BRANCH   9  11
ATOM     10  N   UNL     1      -1.410   8.152   2.996  0.00  0.00    -0.120 NA
ATOM     11  CA  UNL     1      -0.355   8.217   1.788  0.00  0.00    +0.199 C 
BRANCH  11  12
ATOM     12  C   UNL     1      -0.253   9.854   1.916  0.00  0.00    +0.382 C 
ATOM     13  OXT UNL     1      -1.484  10.491   1.746  0.00  0.00    -0.244 OA
ATOM     14  O   UNL     1       0.585  10.186   1.015  0.00  0.00    -0.244 OA
ENDBRANCH  11  12
ENDBRANCH   9  11
ENDBRANCH   1   9
BRANCH   5  15
ATOM     15  O   UNL     1       0.358   5.177  -3.636  0.00  0.00    -0.453 OA
BRANCH  15  16
ATOM     16  C   UNL     1       0.910   5.891  -4.695  0.00  0.00    +0.146 A 
ATOM     17  C   UNL     1       0.462   5.621  -5.972  0.00  0.00    +0.046 A 
ATOM     18  C   UNL     1       1.186   5.994  -7.093  0.00  0.00    +0.072 A 
ATOM     19  I   UNL     1       0.476   5.620  -9.047  0.00  0.00    -0.039 I 
ATOM     20  C   UNL     1       2.420   6.597  -6.947  0.00  0.00    +0.201 A 
ATOM     21  O   UNL     1       3.405   6.353  -7.908  0.00  0.00    -0.286 OA
ATOM     22  C   UNL     1       2.711   7.119  -5.698  0.00  0.00    +0.046 A 
ATOM     23  C   UNL     1       2.119   6.568  -4.571  0.00  0.00    +0.041 A 
ENDBRANCH  15  16
ENDBRANCH   5  15
TORSDOF 5
ENDMDL
MODEL 9
REMARK VINA RESULT:      -7.6      4.477      6.831
REMARK  Name = 
REMARK  5 active torsions:
REMARK  status: ('A' for Active; 'I' for Inactive)
REMARK    1  A    between atoms: CA_2  and  C_3
REMARK    2  A    between atoms: CA_2  and  C_21
REMARK    3  A    between atoms: C_3  and  C_4
REMARK    4  A    between atoms: C_8  and  O_9
REMARK    5  A    between atoms: O_9  and  C_10
REMARK                            x       y       z     vdW  Elec       q    Type
REMARK                         _______ _______ _______ _____ _____    ______ ____
ROOT
ATOM      1  C   UNL     1       2.016   6.658  -4.857  0.00  0.00    -0.019 A 
ATOM      2  C   UNL     1       2.832   6.388  -3.784  0.00  0.00    +0.005 A 
ATOM      3  C   UNL     1       2.342   5.890  -2.581  0.00  0.00    +0.065 A 
ATOM      4  I   UNL     1       3.617   4.851  -1.260  0.00  0.00    -0.039 I 
ATOM      5  C   UNL     1       0.966   5.921  -2.402  0.00  0.00    +0.156 A 
ATOM      6  C   UNL     1       0.140   6.034  -3.498  0.00  0.00    +0.065 A 
ATOM      7  I   UNL     1      -1.904   5.674  -3.235  0.00  0.00    -0.039 I 
ATOM      8  C   UNL     1       0.657   6.428  -4.726  0.00  0.00    +0.005 A 
ENDROOT
BRANCH   1   9
ATOM      9  C   UNL     1       2.621   7.083  -6.162  0.00  0.00    +0.057 C 
BRANCH   9  11
ATOM     10  N   UNL     1       2.878   5.256  -7.609  0.00  0.00    -0.120 NA
ATOM     11  CA  UNL     1       1.665   6.246  -7.253  0.00  0.00    +0.199 C 
BRANCH  11  12
ATOM     12  C   UNL     1       2.069   7.247  -8.495  0.00  0.00    +0.382 C 
ATOM     13  OXT UNL     1       3.280   6.903  -9.098  0.00  0.00    -0.244 OA
ATOM     14  O   UNL     1       2.112   8.403  -7.962  0.00  0.00    -0.244 OA
ENDBRANCH  11  12
ENDBRANCH   9  11
ENDBRANCH   1   9
BRANCH   5  15
ATOM     15  O   UNL     1       0.486   5.666  -1.113  0.00  0.00    -0.453 OA
BRANCH  15  16
ATOM     16  C   UNL     1       0.081   6.722  -0.302  0.00  0.00    +0.146 A 
ATOM     17  C   UNL     1       1.049   7.552   0.227  0.00  0.00    +0.046 A 
ATOM     18  C   UNL     1       0.791   8.376   1.310  0.00  0.00    +0.072 A 
ATOM     19  I   UNL     1       2.262   9.678   2.088  0.00  0.00    -0.039 I 
ATOM     20  C   UNL     1      -0.442   8.333   1.930  0.00  0.00    +0.201 A 
ATOM     21  O   UNL     1      -0.511   8.564   3.308  0.00  0.00    -0.286 OA
ATOM     22  C   UNL     1      -1.471   7.735   1.223  0.00  0.00    +0.046 A 
ATOM     23  C   UNL     1      -1.178   6.751   0.290  0.00  0.00    +0.041 A 
ENDBRANCH  15  16
ENDBRANCH   5  15
TORSDOF 5
ENDMDL
