MODEL 1
REMARK VINA RESULT:     -10.9      0.000      0.000
REMARK  Name = 
REMARK  13 active torsions:
REMARK  status: ('A' for Active; 'I' for Inactive)
REMARK    1  A    between atoms: C_2  and  N_5
REMARK    2  A    between atoms: C_6  and  C_8
REMARK    3  A    between atoms: N_17  and  C_18
REMARK    4  A    between atoms: C_18  and  C_19
REMARK    5  A    between atoms: C_19  and  C_21
REMARK    6  A    between atoms: C_21  and  C_22
REMARK    7  A    between atoms: C_21  and  N_29
REMARK    8  A    between atoms: C_22  and  C_23
REMARK    9  A    between atoms: C_30  and  C_32
REMARK   10  A    between atoms: C_32  and  C_33
REMARK   11  A    between atoms: C_32  and  N_37
REMARK   12  A    between atoms: C_33  and  C_34
REMARK   13  A    between atoms: C_38  and  C_40
REMARK                            x       y       z     vdW  Elec       q    Type
REMARK                         _______ _______ _______ _____ _____    ______ ____
ROOT
ATOM      1  C   UNL     1       2.864   6.032 -10.220  0.00  0.00    +0.131 C 
ENDROOT
BRANCH   1   2
ATOM      2  N   UNL     1       2.403   6.798 -11.514  0.00  0.00    -0.203 NA
ATOM      3  C   UNL     1       2.331   6.183 -12.764  0.00  0.00    +0.262 C 
ATOM      4  O   UNL     1       3.444   5.610 -12.975  0.00  0.00    -0.271 OA
BRANCH   3   5
ATOM      5  C   UNL     1       1.021   5.245 -13.097  0.00  0.00    +0.182 C 
BRANCH   5   6
ATOM      6  N   UNL     1       0.466   6.112 -14.321  0.00  0.00    -0.192 NA
ATOM      7  C   UNL     1       0.414   7.468 -14.204  0.00  0.00    +0.283 C 
ATOM      8  O   UNL     1      -0.170   7.863 -13.177  0.00  0.00    -0.267 OA
BRANCH   7   9
ATOM      9  C   UNL     1       0.734   8.510 -15.190  0.00  0.00    +0.136 A 
ATOM     10  N   UNL     1       0.782   9.749 -14.632  0.00  0.00    -0.241 NA
ATOM     11  C   UNL     1       0.915  10.850 -15.411  0.00  0.00    +0.081 A 
ATOM     12  C   UNL     1       1.317  10.656 -16.716  0.00  0.00    +0.018 A 
ATOM     13  C   UNL     1       0.999  11.610 -17.666  0.00  0.00    +0.001 A 
ATOM     14  C   UNL     1      -0.025  12.509 -17.383  0.00  0.00    +0.000 A 
ATOM     15  C   UNL     1      -0.287  12.858 -16.084  0.00  0.00    +0.002 A 
ATOM     16  C   UNL     1       1.869   9.428 -17.018  0.00  0.00    +0.003 A 
ATOM     17  C   UNL     1       0.275  12.044 -15.109  0.00  0.00    +0.019 A 
ATOM     18  C   UNL     1       1.639   8.313 -16.216  0.00  0.00    +0.024 A 
ENDBRANCH   7   9
ENDBRANCH   5   6
BRANCH   5  19
ATOM     19  C   UNL     1       1.868   4.213 -14.112  0.00  0.00    +0.120 C 
BRANCH  19  20
ATOM     20  C   UNL     1       0.962   3.028 -14.236  0.00  0.00    +0.263 C 
ATOM     21  O   UNL     1      -0.051   3.220 -14.978  0.00  0.00    -0.272 OA
ATOM     22  N   UNL     1       1.636   1.782 -14.459  0.00  0.00    -0.088 NA
ENDBRANCH  19  20
ENDBRANCH   5  19
ENDBRANCH   3   5
ENDBRANCH   1   2
BRANCH   1  23
ATOM     23  C   UNL     1       1.485   6.548  -9.264  0.00  0.00    +0.188 C 
ATOM     24  O   UNL     1       2.341   7.258  -8.214  0.00  0.00    -0.220 OA
BRANCH  23  25
ATOM     25  C   UNL     1       1.443   5.142  -8.384  0.00  0.00    +0.107 C 
BRANCH  25  27
ATOM     26  C   UNL     1       1.427   4.477  -6.215  0.00  0.00    +0.137 C 
ATOM     27  N   UNL     1       2.164   5.496  -7.208  0.00  0.00    -0.264 NA
ATOM     28  C   UNL     1       3.419   4.890  -7.204  0.00  0.00    +0.072 C 
ATOM     29  C   UNL     1       4.306   5.413  -5.939  0.00  0.00    +0.016 C 
ATOM     30  C   UNL     1       3.416   4.507  -4.765  0.00  0.00    +0.003 C 
ATOM     31  C   UNL     1       3.895   5.389  -3.474  0.00  0.00    +0.000 C 
ATOM     32  C   UNL     1       4.962   6.324  -3.844  0.00  0.00    +0.000 C 
ATOM     33  C   UNL     1       4.253   7.478  -4.555  0.00  0.00    +0.000 C 
ATOM     34  C   UNL     1       3.522   6.837  -5.719  0.00  0.00    +0.001 C 
ATOM     35  C   UNL     1       2.006   5.323  -4.893  0.00  0.00    +0.025 C 
BRANCH  26  37
ATOM     36  N   UNL     1      -0.314   6.233  -5.369  0.00  0.00    -0.208 NA
ATOM     37  C   UNL     1       0.029   5.316  -6.333  0.00  0.00    +0.256 C 
ATOM     38  O   UNL     1      -0.899   4.563  -6.769  0.00  0.00    -0.272 OA
BRANCH  36  40
ATOM     39  C   UNL     1      -2.401   6.437  -5.970  0.00  0.00    +0.022 C 
ATOM     40  C   UNL     1      -1.709   6.603  -5.139  0.00  0.00    +0.079 C 
ATOM     41  C   UNL     1      -1.634   8.054  -4.673  0.00  0.00    +0.022 C 
ATOM     42  C   UNL     1      -2.098   5.821  -3.883  0.00  0.00    +0.022 C 
ENDBRANCH  36  40
ENDBRANCH  26  37
ENDBRANCH  25  27
ENDBRANCH  23  25
ENDBRANCH   1  23
BRANCH   1  43
ATOM     43  C   UNL     1       3.870   7.212  -9.656  0.00  0.00    +0.051 C 
BRANCH  43  44
ATOM     44  C   UNL     1       5.190   6.761 -10.148  0.00  0.00    -0.020 A 
ATOM     45  C   UNL     1       5.917   5.733  -9.600  0.00  0.00    -0.004 A 
ATOM     46  C   UNL     1       7.295   5.626  -9.706  0.00  0.00    -0.000 A 
ATOM     47  C   UNL     1       7.894   6.643 -10.440  0.00  0.00    -0.000 A 
ATOM     48  C   UNL     1       7.177   7.371 -11.363  0.00  0.00    -0.000 A 
ATOM     49  C   UNL     1       5.812   7.424 -11.193  0.00  0.00    -0.004 A 
ENDBRANCH  43  44
ENDBRANCH   1  43
TORSDOF 13
ENDMDL
MODEL 2
REMARK VINA RESULT:     -10.8      4.252     11.264
REMARK  Name = 
REMARK  13 active torsions:
REMARK  status: ('A' for Active; 'I' for Inactive)
REMARK    1  A    between atoms: C_2  and  N_5
REMARK    2  A    between atoms: C_6  and  C_8
REMARK    3  A    between atoms: N_17  and  C_18
REMARK    4  A    between atoms: C_18  and  C_19
REMARK    5  A    between atoms: C_19  and  C_21
REMARK    6  A    between atoms: C_21  and  C_22
REMARK    7  A    between atoms: C_21  and  N_29
REMARK    8  A    between atoms: C_22  and  C_23
REMARK    9  A    between atoms: C_30  and  C_32
REMARK   10  A    between atoms: C_32  and  C_33
REMARK   11  A    between atoms: C_32  and  N_37
REMARK   12  A    between atoms: C_33  and  C_34
REMARK   13  A    between atoms: C_38  and  C_40
REMARK                            x       y       z     vdW  Elec       q    Type
REMARK                         _______ _______ _______ _____ _____    ______ ____
ROOT
ATOM      1  C   UNL     1       2.881   6.115  -4.257  0.00  0.00    +0.131 C 
ENDROOT
BRANCH   1   2
ATOM      2  N   UNL     1       2.043   5.071  -3.430  0.00  0.00    -0.203 NA
ATOM      3  C   UNL     1       0.930   5.436  -2.671  0.00  0.00    +0.262 C 
ATOM      4  O   UNL     1       1.274   6.405  -1.925  0.00  0.00    -0.271 OA
BRANCH   3   5
ATOM      5  C   UNL     1      -0.501   5.666  -3.450  0.00  0.00    +0.182 C 
BRANCH   5   6
ATOM      6  N   UNL     1      -1.143   6.672  -2.385  0.00  0.00    -0.192 NA
ATOM      7  C   UNL     1      -1.513   6.198  -1.162  0.00  0.00    +0.283 C 
ATOM      8  O   UNL     1      -2.249   5.194  -1.214  0.00  0.00    -0.267 OA
BRANCH   7   9
ATOM      9  C   UNL     1      -1.364   6.807   0.166  0.00  0.00    +0.136 A 
ATOM     10  N   UNL     1      -0.993   8.113   0.095  0.00  0.00    -0.241 NA
ATOM     11  C   UNL     1      -0.663   8.797   1.218  0.00  0.00    +0.081 A 
ATOM     12  C   UNL     1      -1.020   8.237   2.427  0.00  0.00    +0.018 A 
ATOM     13  C   UNL     1      -0.313   8.587   3.564  0.00  0.00    +0.001 A 
ATOM     14  C   UNL     1       0.947   9.156   3.410  0.00  0.00    +0.000 A 
ATOM     15  C   UNL     1       1.231   9.891   2.288  0.00  0.00    +0.002 A 
ATOM     16  C   UNL     1      -1.961   7.229   2.388  0.00  0.00    +0.003 A 
ATOM     17  C   UNL     1       0.347   9.749   1.226  0.00  0.00    +0.019 A 
ATOM     18  C   UNL     1      -2.209   6.512   1.221  0.00  0.00    +0.024 A 
ENDBRANCH   7   9
ENDBRANCH   5   6
BRANCH   5  19
ATOM     19  C   UNL     1       0.080   6.920  -4.400  0.00  0.00    +0.120 C 
BRANCH  19  20
ATOM     20  C   UNL     1      -1.079   7.247  -5.290  0.00  0.00    +0.263 C 
ATOM     21  O   UNL     1      -1.685   6.231  -5.754  0.00  0.00    -0.272 OA
ATOM     22  N   UNL     1      -1.941   8.278  -4.791  0.00  0.00    -0.088 NA
ENDBRANCH  19  20
ENDBRANCH   5  19
ENDBRANCH   3   5
ENDBRANCH   1   2
BRANCH   1  23
ATOM     23  C   UNL     1       3.094   5.047  -5.635  0.00  0.00    +0.188 C 
ATOM     24  O   UNL     1       4.513   4.637  -5.237  0.00  0.00    -0.220 OA
BRANCH  23  25
ATOM     25  C   UNL     1       3.644   6.264  -6.619  0.00  0.00    +0.107 C 
BRANCH  25  27
ATOM     26  C   UNL     1       3.439   4.786  -8.327  0.00  0.00    +0.137 C 
ATOM     27  N   UNL     1       2.800   6.141  -7.758  0.00  0.00    -0.264 NA
ATOM     28  C   UNL     1       1.558   5.625  -7.392  0.00  0.00    +0.072 C 
ATOM     29  C   UNL     1       0.536   5.625  -8.663  0.00  0.00    +0.016 C 
ATOM     30  C   UNL     1       1.308   4.296  -9.457  0.00  0.00    +0.003 C 
ATOM     31  C   UNL     1       0.685   4.602 -10.938  0.00  0.00    +0.000 C 
ATOM     32  C   UNL     1      -0.347   5.640 -10.869  0.00  0.00    +0.000 C 
ATOM     33  C   UNL     1       0.421   6.959 -10.759  0.00  0.00    +0.000 C 
ATOM     34  C   UNL     1       1.277   6.815  -9.515  0.00  0.00    +0.001 C 
ATOM     35  C   UNL     1       2.714   5.049  -9.811  0.00  0.00    +0.025 C 
BRANCH  26  37
ATOM     36  N   UNL     1       4.957   6.228  -9.889  0.00  0.00    -0.208 NA
ATOM     37  C   UNL     1       4.832   5.556  -8.698  0.00  0.00    +0.256 C 
ATOM     38  O   UNL     1       5.830   4.864  -8.319  0.00  0.00    -0.272 OA
BRANCH  36  40
ATOM     39  C   UNL     1       7.132   6.375  -9.825  0.00  0.00    +0.022 C 
ATOM     40  C   UNL     1       6.268   6.467 -10.489  0.00  0.00    +0.079 C 
ATOM     41  C   UNL     1       6.130   7.840 -11.143  0.00  0.00    +0.022 C 
ATOM     42  C   UNL     1       6.321   5.491 -11.666  0.00  0.00    +0.022 C 
ENDBRANCH  36  40
ENDBRANCH  26  37
ENDBRANCH  25  27
ENDBRANCH  23  25
ENDBRANCH   1  23
BRANCH   1  43
ATOM     43  C   UNL     1       4.342   5.755  -3.581  0.00  0.00    +0.051 C 
BRANCH  43  44
ATOM     44  C   UNL     1       4.435   6.748  -2.488  0.00  0.00    -0.020 A 
ATOM     45  C   UNL     1       4.735   6.447  -1.183  0.00  0.00    -0.004 A 
ATOM     46  C   UNL     1       4.351   7.231  -0.106  0.00  0.00    -0.000 A 
ATOM     47  C   UNL     1       3.646   8.377  -0.454  0.00  0.00    -0.000 A 
ATOM     48  C   UNL     1       3.756   8.925  -1.713  0.00  0.00    -0.000 A 
ATOM     49  C   UNL     1       4.149   8.083  -2.728  0.00  0.00    -0.004 A 
ENDBRANCH  43  44
ENDBRANCH   1  43
TORSDOF 13
ENDMDL
MODEL 3
REMARK VINA RESULT:      -9.9      2.596      4.783
REMARK  Name = 
REMARK  13 active torsions:
REMARK  status: ('A' for Active; 'I' for Inactive)
REMARK    1  A    between atoms: C_2  and  N_5
REMARK    2  A    between atoms: C_6  and  C_8
REMARK    3  A    between atoms: N_17  and  C_18
REMARK    4  A    between atoms: C_18  and  C_19
REMARK    5  A    between atoms: C_19  and  C_21
REMARK    6  A    between atoms: C_21  and  C_22
REMARK    7  A    between atoms: C_21  and  N_29
REMARK    8  A    between atoms: C_22  and  C_23
REMARK    9  A    between atoms: C_30  and  C_32
REMARK   10  A    between atoms: C_32  and  C_33
REMARK   11  A    between atoms: C_32  and  N_37
REMARK   12  A    between atoms: C_33  and  C_34
REMARK   13  A    between atoms: C_38  and  C_40
REMARK                            x       y       z     vdW  Elec       q    Type
REMARK                         _______ _______ _______ _____ _____    ______ ____
ROOT
ATOM      1  C   UNL     1       2.669   6.006 -10.307  0.00  0.00    +0.131 C 
ENDROOT
BRANCH   1   2
ATOM      2  N   UNL     1       3.458   5.012 -11.238  0.00  0.00    -0.203 NA
ATOM      3  C   UNL     1       4.492   5.431 -12.076  0.00  0.00    +0.262 C 
ATOM      4  O   UNL     1       4.061   6.414 -12.756  0.00  0.00    -0.271 OA
BRANCH   3   5
ATOM      5  C   UNL     1       5.979   5.675 -11.415  0.00  0.00    +0.182 C 
BRANCH   5   6
ATOM      6  N   UNL     1       6.619   6.453 -12.657  0.00  0.00    -0.192 NA
ATOM      7  C   UNL     1       6.773   5.798 -13.842  0.00  0.00    +0.283 C 
ATOM      8  O   UNL     1       7.368   4.708 -13.742  0.00  0.00    -0.267 OA
BRANCH   7   9
ATOM      9  C   UNL     1       6.551   6.273 -15.215  0.00  0.00    +0.136 A 
ATOM     10  N   UNL     1       5.945   7.490 -15.246  0.00  0.00    -0.241 NA
ATOM     11  C   UNL     1       5.525   8.020 -16.421  0.00  0.00    +0.081 A 
ATOM     12  C   UNL     1       6.011   7.451 -17.580  0.00  0.00    +0.018 A 
ATOM     13  C   UNL     1       5.282   7.582 -18.749  0.00  0.00    +0.001 A 
ATOM     14  C   UNL     1       3.935   7.918 -18.655  0.00  0.00    +0.000 A 
ATOM     15  C   UNL     1       3.492   8.666 -17.595  0.00  0.00    +0.002 A 
ATOM     16  C   UNL     1       7.119   6.640 -17.454  0.00  0.00    +0.003 A 
ATOM     17  C   UNL     1       4.358   8.765 -16.513  0.00  0.00    +0.019 A 
ATOM     18  C   UNL     1       7.463   6.065 -16.233  0.00  0.00    +0.024 A 
ENDBRANCH   7   9
ENDBRANCH   5   6
BRANCH   5  19
ATOM     19  C   UNL     1       5.538   7.102 -10.651  0.00  0.00    +0.120 C 
BRANCH  19  20
ATOM     20  C   UNL     1       6.630   8.052 -11.032  0.00  0.00    +0.263 C 
ATOM     21  O   UNL     1       6.229   9.222 -11.319  0.00  0.00    -0.272 OA
ATOM     22  N   UNL     1       7.782   8.009 -10.179  0.00  0.00    -0.088 NA
ENDBRANCH  19  20
ENDBRANCH   5  19
ENDBRANCH   3   5
ENDBRANCH   1   2
BRANCH   1  23
ATOM     23  C   UNL     1       3.062   5.140  -8.831  0.00  0.00    +0.188 C 
ATOM     24  O   UNL     1       2.150   3.955  -9.154  0.00  0.00    -0.220 OA
BRANCH  23  25
ATOM     25  C   UNL     1       1.879   5.902  -7.951  0.00  0.00    +0.107 C 
BRANCH  25  27
ATOM     26  C   UNL     1       1.840   4.839  -5.948  0.00  0.00    +0.137 C 
ATOM     27  N   UNL     1       2.511   6.092  -6.690  0.00  0.00    -0.264 NA
ATOM     28  C   UNL     1       3.820   5.612  -6.723  0.00  0.00    +0.072 C 
ATOM     29  C   UNL     1       4.597   5.964  -5.332  0.00  0.00    +0.016 C 
ATOM     30  C   UNL     1       3.754   4.774  -4.402  0.00  0.00    +0.003 C 
ATOM     31  C   UNL     1       4.089   5.435  -2.943  0.00  0.00    +0.000 C 
ATOM     32  C   UNL     1       5.069   6.517  -3.070  0.00  0.00    +0.000 C 
ATOM     33  C   UNL     1       4.278   7.715  -3.595  0.00  0.00    +0.000 C 
ATOM     34  C   UNL     1       3.664   7.243  -4.900  0.00  0.00    +0.001 C 
ATOM     35  C   UNL     1       2.276   5.467  -4.460  0.00  0.00    +0.025 C 
BRANCH  26  37
ATOM     36  N   UNL     1      -0.024   6.391  -4.977  0.00  0.00    -0.208 NA
ATOM     37  C   UNL     1       0.371   5.554  -5.992  0.00  0.00    +0.256 C 
ATOM     38  O   UNL     1      -0.499   4.742  -6.441  0.00  0.00    -0.272 OA
BRANCH  36  40
ATOM     39  C   UNL     1      -2.154   6.203  -5.409  0.00  0.00    +0.022 C 
ATOM     40  C   UNL     1      -1.440   6.623  -4.696  0.00  0.00    +0.079 C 
ATOM     41  C   UNL     1      -1.539   8.138  -4.535  0.00  0.00    +0.022 C 
ATOM     42  C   UNL     1      -1.631   6.079  -3.279  0.00  0.00    +0.022 C 
ENDBRANCH  36  40
ENDBRANCH  26  37
ENDBRANCH  25  27
ENDBRANCH  23  25
ENDBRANCH   1  23
BRANCH   1  43
ATOM     43  C   UNL     1       1.191   5.297 -10.490  0.00  0.00    +0.051 C 
BRANCH  43  44
ATOM     44  C   UNL     1       0.805   5.725 -11.852  0.00  0.00    -0.020 A 
ATOM     45  C   UNL     1       0.753   4.896 -12.946  0.00  0.00    -0.004 A 
ATOM     46  C   UNL     1       0.883   5.340 -14.252  0.00  0.00    -0.000 A 
ATOM     47  C   UNL     1       1.052   6.714 -14.377  0.00  0.00    -0.000 A 
ATOM     48  C   UNL     1       0.635   7.575 -13.386  0.00  0.00    -0.000 A 
ATOM     49  C   UNL     1       0.524   7.057 -12.115  0.00  0.00    -0.004 A 
ENDBRANCH  43  44
ENDBRANCH   1  43
TORSDOF 13
ENDMDL
MODEL 4
REMARK VINA RESULT:      -9.8      5.421     10.425
REMARK  Name = 
REMARK  13 active torsions:
REMARK  status: ('A' for Active; 'I' for Inactive)
REMARK    1  A    between atoms: C_2  and  N_5
REMARK    2  A    between atoms: C_6  and  C_8
REMARK    3  A    between atoms: N_17  and  C_18
REMARK    4  A    between atoms: C_18  and  C_19
REMARK    5  A    between atoms: C_19  and  C_21
REMARK    6  A    between atoms: C_21  and  C_22
REMARK    7  A    between atoms: C_21  and  N_29
REMARK    8  A    between atoms: C_22  and  C_23
REMARK    9  A    between atoms: C_30  and  C_32
REMARK   10  A    between atoms: C_32  and  C_33
REMARK   11  A    between atoms: C_32  and  N_37
REMARK   12  A    between atoms: C_33  and  C_34
REMARK   13  A    between atoms: C_38  and  C_40
REMARK                            x       y       z     vdW  Elec       q    Type
REMARK                         _______ _______ _______ _____ _____    ______ ____
ROOT
ATOM      1  C   UNL     1       3.268   8.932   0.414  0.00  0.00    +0.131 C 
ENDROOT
BRANCH   1   2
ATOM      2  N   UNL     1       3.440   8.862  -1.149  0.00  0.00    -0.203 NA
ATOM      3  C   UNL     1       4.057   7.786  -1.788  0.00  0.00    +0.262 C 
ATOM      4  O   UNL     1       5.176   7.591  -1.220  0.00  0.00    -0.271 OA
BRANCH   3   5
ATOM      5  C   UNL     1       3.179   6.415  -2.026  0.00  0.00    +0.182 C 
BRANCH   5   6
ATOM      6  N   UNL     1       3.735   6.078  -3.486  0.00  0.00    -0.192 NA
ATOM      7  C   UNL     1       2.851   5.829  -4.493  0.00  0.00    +0.283 C 
ATOM      8  O   UNL     1       2.000   4.964  -4.212  0.00  0.00    -0.267 OA
BRANCH   7   9
ATOM      9  C   UNL     1       2.884   6.252  -5.899  0.00  0.00    +0.136 A 
ATOM     10  N   UNL     1       3.167   5.221  -6.740  0.00  0.00    -0.241 NA
ATOM     11  C   UNL     1       3.387   5.447  -8.058  0.00  0.00    +0.081 A 
ATOM     12  C   UNL     1       3.004   6.673  -8.561  0.00  0.00    +0.018 A 
ATOM     13  C   UNL     1       3.621   7.153  -9.702  0.00  0.00    +0.001 A 
ATOM     14  C   UNL     1       4.846   6.606 -10.072  0.00  0.00    +0.000 A 
ATOM     15  C   UNL     1       5.140   5.309  -9.743  0.00  0.00    +0.002 A 
ATOM     16  C   UNL     1       2.138   7.416  -7.786  0.00  0.00    +0.003 A 
ATOM     17  C   UNL     1       4.328   4.724  -8.779  0.00  0.00    +0.019 A 
ATOM     18  C   UNL     1       2.005   7.184  -6.420  0.00  0.00    +0.024 A 
ENDBRANCH   7   9
ENDBRANCH   5   6
BRANCH   5  19
ATOM     19  C   UNL     1       4.308   5.421  -1.283  0.00  0.00    +0.120 C 
BRANCH  19  20
ATOM     20  C   UNL     1       3.559   4.141  -1.076  0.00  0.00    +0.263 C 
ATOM     21  O   UNL     1       4.184   3.275  -0.387  0.00  0.00    -0.272 OA
ATOM     22  N   UNL     1       2.182   4.307  -0.716  0.00  0.00    -0.088 NA
ENDBRANCH  19  20
ENDBRANCH   5  19
ENDBRANCH   3   5
ENDBRANCH   1   2
BRANCH   1  23
ATOM     23  C   UNL     1       1.556   9.316   0.339  0.00  0.00    +0.188 C 
ATOM     24  O   UNL     1       1.475   9.737   1.807  0.00  0.00    -0.220 OA
BRANCH  23  25
ATOM     25  C   UNL     1       1.092   7.760   0.685  0.00  0.00    +0.107 C 
BRANCH  25  27
ATOM     26  C   UNL     1      -0.722   6.454   1.072  0.00  0.00    +0.137 C 
ATOM     27  N   UNL     1      -0.185   7.950   1.284  0.00  0.00    -0.264 NA
ATOM     28  C   UNL     1      -0.082   7.917   2.674  0.00  0.00    +0.072 C 
ATOM     29  C   UNL     1      -1.512   8.286   3.366  0.00  0.00    +0.016 C 
ATOM     30  C   UNL     1      -2.244   6.767   2.981  0.00  0.00    +0.003 C 
ATOM     31  C   UNL     1      -3.789   7.276   3.160  0.00  0.00    +0.000 C 
ATOM     32  C   UNL     1      -3.834   8.618   3.748  0.00  0.00    +0.000 C 
ATOM     33  C   UNL     1      -3.499   9.570   2.599  0.00  0.00    +0.000 C 
ATOM     34  C   UNL     1      -2.135   9.127   2.103  0.00  0.00    +0.001 C 
ATOM     35  C   UNL     1      -2.291   6.960   1.359  0.00  0.00    +0.025 C 
BRANCH  26  37
ATOM     36  N   UNL     1      -1.959   7.049  -1.151  0.00  0.00    -0.208 NA
ATOM     37  C   UNL     1      -0.786   6.668  -0.548  0.00  0.00    +0.256 C 
ATOM     38  O   UNL     1      -0.098   5.774  -1.136  0.00  0.00    -0.272 OA
BRANCH  36  40
ATOM     39  C   UNL     1      -1.644   5.930  -2.997  0.00  0.00    +0.022 C 
ATOM     40  C   UNL     1      -2.216   6.753  -2.560  0.00  0.00    +0.079 C 
ATOM     41  C   UNL     1      -2.012   8.094  -3.260  0.00  0.00    +0.022 C 
ATOM     42  C   UNL     1      -3.727   6.520  -2.621  0.00  0.00    +0.022 C 
ENDBRANCH  36  40
ENDBRANCH  26  37
ENDBRANCH  25  27
ENDBRANCH  23  25
ENDBRANCH   1  23
BRANCH   1  43
ATOM     43  C   UNL     1       3.751  10.500   0.583  0.00  0.00    +0.051 C 
BRANCH  43  44
ATOM     44  C   UNL     1       4.826  10.390   1.592  0.00  0.00    -0.020 A 
ATOM     45  C   UNL     1       5.556  11.449   2.074  0.00  0.00    -0.004 A 
ATOM     46  C   UNL     1       6.831  11.325   2.603  0.00  0.00    -0.000 A 
ATOM     47  C   UNL     1       7.316  10.023   2.632  0.00  0.00    -0.000 A 
ATOM     48  C   UNL     1       6.460   8.944   2.614  0.00  0.00    -0.000 A 
ATOM     49  C   UNL     1       5.209   9.149   2.077  0.00  0.00    -0.004 A 
ENDBRANCH  43  44
ENDBRANCH   1  43
TORSDOF 13
ENDMDL
MODEL 5
REMARK VINA RESULT:      -9.8      4.103     11.275
REMARK  Name = 
REMARK  13 active torsions:
REMARK  status: ('A' for Active; 'I' for Inactive)
REMARK    1  A    between atoms: C_2  and  N_5
REMARK    2  A    between atoms: C_6  and  C_8
REMARK    3  A    between atoms: N_17  and  C_18
REMARK    4  A    between atoms: C_18  and  C_19
REMARK    5  A    between atoms: C_19  and  C_21
REMARK    6  A    between atoms: C_21  and  C_22
REMARK    7  A    between atoms: C_21  and  N_29
REMARK    8  A    between atoms: C_22  and  C_23
REMARK    9  A    between atoms: C_30  and  C_32
REMARK   10  A    between atoms: C_32  and  C_33
REMARK   11  A    between atoms: C_32  and  N_37
REMARK   12  A    between atoms: C_33  and  C_34
REMARK   13  A    between atoms: C_38  and  C_40
REMARK                            x       y       z     vdW  Elec       q    Type
REMARK                         _______ _______ _______ _____ _____    ______ ____
ROOT
ATOM      1  C   UNL     1       1.949   6.367  -5.312  0.00  0.00    +0.131 C 
ENDROOT
BRANCH   1   2
ATOM      2  N   UNL     1       2.339   7.152  -4.006  0.00  0.00    -0.203 NA
ATOM      3  C   UNL     1       2.383   6.543  -2.751  0.00  0.00    +0.262 C 
ATOM      4  O   UNL     1       1.281   5.936  -2.579  0.00  0.00    -0.271 OA
BRANCH   3   5
ATOM      5  C   UNL     1       3.709   5.647  -2.366  0.00  0.00    +0.182 C 
BRANCH   5   6
ATOM      6  N   UNL     1       4.296   6.635  -1.254  0.00  0.00    -0.192 NA
ATOM      7  C   UNL     1       4.110   7.978  -1.393  0.00  0.00    +0.283 C 
ATOM      8  O   UNL     1       4.459   8.422  -2.504  0.00  0.00    -0.267 OA
BRANCH   7   9
ATOM      9  C   UNL     1       3.779   8.991  -0.382  0.00  0.00    +0.136 A 
ATOM     10  N   UNL     1       3.774  10.250  -0.898  0.00  0.00    -0.241 NA
ATOM     11  C   UNL     1       3.638  11.325  -0.085  0.00  0.00    +0.081 A 
ATOM     12  C   UNL     1       3.191  11.095   1.200  0.00  0.00    +0.018 A 
ATOM     13  C   UNL     1       3.497  12.009   2.192  0.00  0.00    +0.001 A 
ATOM     14  C   UNL     1       4.548  12.895   1.973  0.00  0.00    +0.000 A 
ATOM     15  C   UNL     1       4.858  13.283   0.696  0.00  0.00    +0.002 A 
ATOM     16  C   UNL     1       2.605   9.869   1.440  0.00  0.00    +0.003 A 
ATOM     17  C   UNL     1       4.311  12.515  -0.325  0.00  0.00    +0.019 A 
ATOM     18  C   UNL     1       2.837   8.778   0.608  0.00  0.00    +0.024 A 
ENDBRANCH   7   9
ENDBRANCH   5   6
BRANCH   5  19
ATOM     19  C   UNL     1       2.900   4.721  -1.226  0.00  0.00    +0.120 C 
BRANCH  19  20
ATOM     20  C   UNL     1       3.830   3.571  -0.991  0.00  0.00    +0.263 C 
ATOM     21  O   UNL     1       4.920   3.889  -0.423  0.00  0.00    -0.272 OA
ATOM     22  N   UNL     1       3.202   2.396  -0.461  0.00  0.00    -0.088 NA
ENDBRANCH  19  20
ENDBRANCH   5  19
ENDBRANCH   3   5
ENDBRANCH   1   2
BRANCH   1  23
ATOM     23  C   UNL     1       3.365   6.894  -6.207  0.00  0.00    +0.188 C 
ATOM     24  O   UNL     1       2.551   7.484  -7.360  0.00  0.00    -0.220 OA
BRANCH  23  25
ATOM     25  C   UNL     1       3.540   5.437  -6.982  0.00  0.00    +0.107 C 
BRANCH  25  27
ATOM     26  C   UNL     1       3.468   4.522  -9.056  0.00  0.00    +0.137 C 
ATOM     27  N   UNL     1       2.726   5.606  -8.137  0.00  0.00    -0.264 NA
ATOM     28  C   UNL     1       1.517   4.928  -7.986  0.00  0.00    +0.072 C 
ATOM     29  C   UNL     1       0.520   5.244  -9.238  0.00  0.00    +0.016 C 
ATOM     30  C   UNL     1       1.397   4.260 -10.359  0.00  0.00    +0.003 C 
ATOM     31  C   UNL     1       0.780   4.953 -11.707  0.00  0.00    +0.000 C 
ATOM     32  C   UNL     1      -0.323   5.859 -11.373  0.00  0.00    +0.000 C 
ATOM     33  C   UNL     1       0.349   7.129 -10.850  0.00  0.00    +0.000 C 
ATOM     34  C   UNL     1       1.191   6.676  -9.673  0.00  0.00    +0.001 C 
ATOM     35  C   UNL     1       2.753   5.169 -10.423  0.00  0.00    +0.025 C 
BRANCH  26  37
ATOM     36  N   UNL     1       5.084   6.187 -10.259  0.00  0.00    -0.208 NA
ATOM     37  C   UNL     1       4.811   5.452  -9.131  0.00  0.00    +0.256 C 
ATOM     38  O   UNL     1       5.790   4.855  -8.581  0.00  0.00    -0.272 OA
BRANCH  36  40
ATOM     39  C   UNL     1       7.169   6.590  -9.763  0.00  0.00    +0.022 C 
ATOM     40  C   UNL     1       6.450   6.590 -10.587  0.00  0.00    +0.079 C 
ATOM     41  C   UNL     1       6.281   7.947 -11.266  0.00  0.00    +0.022 C 
ATOM     42  C   UNL     1       6.854   5.646 -11.722  0.00  0.00    +0.022 C 
ENDBRANCH  36  40
ENDBRANCH  26  37
ENDBRANCH  25  27
ENDBRANCH  23  25
ENDBRANCH   1  23
BRANCH   1  43
ATOM     43  C   UNL     1       0.955   7.528  -5.935  0.00  0.00    +0.051 C 
BRANCH  43  44
ATOM     44  C   UNL     1      -0.384   7.040  -5.538  0.00  0.00    -0.020 A 
ATOM     45  C   UNL     1      -0.937   5.855  -5.955  0.00  0.00    -0.004 A 
ATOM     46  C   UNL     1      -2.303   5.623  -6.010  0.00  0.00    -0.000 A 
ATOM     47  C   UNL     1      -3.083   6.691  -5.584  0.00  0.00    -0.000 A 
ATOM     48  C   UNL     1      -2.572   7.654  -4.743  0.00  0.00    -0.000 A 
ATOM     49  C   UNL     1      -1.206   7.820  -4.740  0.00  0.00    -0.004 A 
ENDBRANCH  43  44
ENDBRANCH   1  43
TORSDOF 13
ENDMDL
MODEL 6
REMARK VINA RESULT:      -9.6      3.931     11.503
REMARK  Name = 
REMARK  13 active torsions:
REMARK  status: ('A' for Active; 'I' for Inactive)
REMARK    1  A    between atoms: C_2  and  N_5
REMARK    2  A    between atoms: C_6  and  C_8
REMARK    3  A    between atoms: N_17  and  C_18
REMARK    4  A    between atoms: C_18  and  C_19
REMARK    5  A    between atoms: C_19  and  C_21
REMARK    6  A    between atoms: C_21  and  C_22
REMARK    7  A    between atoms: C_21  and  N_29
REMARK    8  A    between atoms: C_22  and  C_23
REMARK    9  A    between atoms: C_30  and  C_32
REMARK   10  A    between atoms: C_32  and  C_33
REMARK   11  A    between atoms: C_32  and  N_37
REMARK   12  A    between atoms: C_33  and  C_34
REMARK   13  A    between atoms: C_38  and  C_40
REMARK                            x       y       z     vdW  Elec       q    Type
REMARK                         _______ _______ _______ _____ _____    ______ ____
ROOT
ATOM      1  C   UNL     1       1.461   6.307  -5.285  0.00  0.00    +0.131 C 
ENDROOT
BRANCH   1   2
ATOM      2  N   UNL     1       1.630   7.361  -4.129  0.00  0.00    -0.203 NA
ATOM      3  C   UNL     1       2.114   7.017  -2.867  0.00  0.00    +0.262 C 
ATOM      4  O   UNL     1       1.438   6.024  -2.453  0.00  0.00    -0.271 OA
BRANCH   3   5
ATOM      5  C   UNL     1       3.739   6.846  -2.676  0.00  0.00    +0.182 C 
BRANCH   5   6
ATOM      6  N   UNL     1       3.782   7.133  -1.103  0.00  0.00    -0.192 NA
ATOM      7  C   UNL     1       3.360   8.342  -0.637  0.00  0.00    +0.283 C 
ATOM      8  O   UNL     1       3.892   9.314  -1.205  0.00  0.00    -0.267 OA
BRANCH   7   9
ATOM      9  C   UNL     1       2.562   8.663   0.554  0.00  0.00    +0.136 A 
ATOM     10  N   UNL     1       1.317   8.118   0.503  0.00  0.00    -0.241 NA
ATOM     11  C   UNL     1       0.390   8.430   1.441  0.00  0.00    +0.081 A 
ATOM     12  C   UNL     1       0.838   9.041   2.594  0.00  0.00    +0.018 A 
ATOM     13  C   UNL     1      -0.043   9.812   3.331  0.00  0.00    +0.001 A 
ATOM     14  C   UNL     1      -1.200  10.272   2.709  0.00  0.00    +0.000 A 
ATOM     15  C   UNL     1      -1.760   9.547   1.690  0.00  0.00    +0.002 A 
ATOM     16  C   UNL     1       2.193   8.973   2.844  0.00  0.00    +0.003 A 
ATOM     17  C   UNL     1      -0.955   8.565   1.126  0.00  0.00    +0.019 A 
ATOM     18  C   UNL     1       3.107   8.718   1.825  0.00  0.00    +0.024 A 
ENDBRANCH   7   9
ENDBRANCH   5   6
BRANCH   5  19
ATOM     19  C   UNL     1       3.659   5.186  -2.448  0.00  0.00    +0.120 C 
BRANCH  19  20
ATOM     20  C   UNL     1       4.459   4.641  -3.590  0.00  0.00    +0.263 C 
ATOM     21  O   UNL     1       3.802   3.893  -4.379  0.00  0.00    -0.272 OA
ATOM     22  N   UNL     1       5.300   5.602  -4.242  0.00  0.00    -0.088 NA
ENDBRANCH  19  20
ENDBRANCH   5  19
ENDBRANCH   3   5
ENDBRANCH   1   2
BRANCH   1  23
ATOM     23  C   UNL     1       2.708   7.021  -6.295  0.00  0.00    +0.188 C 
ATOM     24  O   UNL     1       1.727   7.456  -7.386  0.00  0.00    -0.220 OA
BRANCH  23  25
ATOM     25  C   UNL     1       3.042   5.590  -7.066  0.00  0.00    +0.107 C 
BRANCH  25  27
ATOM     26  C   UNL     1       3.076   4.563  -9.089  0.00  0.00    +0.137 C 
ATOM     27  N   UNL     1       2.315   5.722  -8.283  0.00  0.00    -0.264 NA
ATOM     28  C   UNL     1       1.073   5.096  -8.180  0.00  0.00    +0.072 C 
ATOM     29  C   UNL     1       0.176   5.375  -9.513  0.00  0.00    +0.016 C 
ATOM     30  C   UNL     1       1.088   4.300 -10.516  0.00  0.00    +0.003 C 
ATOM     31  C   UNL     1       0.590   4.937 -11.939  0.00  0.00    +0.000 C 
ATOM     32  C   UNL     1      -0.496   5.898 -11.731  0.00  0.00    +0.000 C 
ATOM     33  C   UNL     1       0.186   7.172 -11.232  0.00  0.00    +0.000 C 
ATOM     34  C   UNL     1       0.930   6.756  -9.976  0.00  0.00    +0.001 C 
ATOM     35  C   UNL     1       2.479   5.157 -10.535  0.00  0.00    +0.025 C 
BRANCH  26  37
ATOM     36  N   UNL     1       4.812   6.131 -10.252  0.00  0.00    -0.208 NA
ATOM     37  C   UNL     1       4.455   5.440  -9.120  0.00  0.00    +0.256 C 
ATOM     38  O   UNL     1       5.381   4.824  -8.504  0.00  0.00    -0.272 OA
BRANCH  36  40
ATOM     39  C   UNL     1       6.894   6.419  -9.671  0.00  0.00    +0.022 C 
ATOM     40  C   UNL     1       6.208   6.474 -10.520  0.00  0.00    +0.079 C 
ATOM     41  C   UNL     1       6.130   7.853 -11.169  0.00  0.00    +0.022 C 
ATOM     42  C   UNL     1       6.607   5.539 -11.663  0.00  0.00    +0.022 C 
ENDBRANCH  36  40
ENDBRANCH  26  37
ENDBRANCH  25  27
ENDBRANCH  23  25
ENDBRANCH   1  23
BRANCH   1  43
ATOM     43  C   UNL     1       0.214   7.070  -6.049  0.00  0.00    +0.051 C 
BRANCH  43  44
ATOM     44  C   UNL     1      -0.900   6.883  -5.094  0.00  0.00    -0.020 A 
ATOM     45  C   UNL     1      -1.593   7.905  -4.495  0.00  0.00    -0.004 A 
ATOM     46  C   UNL     1      -2.257   7.777  -3.286  0.00  0.00    -0.000 A 
ATOM     47  C   UNL     1      -2.186   6.508  -2.725  0.00  0.00    -0.000 A 
ATOM     48  C   UNL     1      -1.931   5.400  -3.502  0.00  0.00    -0.000 A 
ATOM     49  C   UNL     1      -1.273   5.610  -4.693  0.00  0.00    -0.004 A 
ENDBRANCH  43  44
ENDBRANCH   1  43
TORSDOF 13
ENDMDL
MODEL 7
REMARK VINA RESULT:      -9.5      4.540      8.292
REMARK  Name = 
REMARK  13 active torsions:
REMARK  status: ('A' for Active; 'I' for Inactive)
REMARK    1  A    between atoms: C_2  and  N_5
REMARK    2  A    between atoms: C_6  and  C_8
REMARK    3  A    between atoms: N_17  and  C_18
REMARK    4  A    between atoms: C_18  and  C_19
REMARK    5  A    between atoms: C_19  and  C_21
REMARK    6  A    between atoms: C_21  and  C_22
REMARK    7  A    between atoms: C_21  and  N_29
REMARK    8  A    between atoms: C_22  and  C_23
REMARK    9  A    between atoms: C_30  and  C_32
REMARK   10  A    between atoms: C_32  and  C_33
REMARK   11  A    between atoms: C_32  and  N_37
REMARK   12  A    between atoms: C_33  and  C_34
REMARK   13  A    between atoms: C_38  and  C_40
REMARK                            x       y       z     vdW  Elec       q    Type
REMARK                         _______ _______ _______ _____ _____    ______ ____
ROOT
ATOM      1  C   UNL     1       2.110   6.850  -3.478  0.00  0.00    +0.131 C 
ENDROOT
BRANCH   1   2
ATOM      2  N   UNL     1       3.182   6.319  -4.499  0.00  0.00    -0.203 NA
ATOM      3  C   UNL     1       2.862   5.436  -5.531  0.00  0.00    +0.262 C 
ATOM      4  O   UNL     1       2.229   4.460  -5.020  0.00  0.00    -0.271 OA
BRANCH   3   5
ATOM      5  C   UNL     1       2.165   6.047  -6.890  0.00  0.00    +0.182 C 
BRANCH   5   6
ATOM      6  N   UNL     1       3.109   5.302  -7.945  0.00  0.00    -0.192 NA
ATOM      7  C   UNL     1       3.683   6.025  -8.948  0.00  0.00    +0.283 C 
ATOM      8  O   UNL     1       2.874   6.715  -9.598  0.00  0.00    -0.267 OA
BRANCH   7   9
ATOM      9  C   UNL     1       5.038   5.943  -9.508  0.00  0.00    +0.136 A 
ATOM     10  N   UNL     1       5.260   6.890 -10.459  0.00  0.00    -0.241 NA
ATOM     11  C   UNL     1       6.399   6.876 -11.193  0.00  0.00    +0.081 A 
ATOM     12  C   UNL     1       7.437   6.091 -10.733  0.00  0.00    +0.018 A 
ATOM     13  C   UNL     1       8.387   5.641 -11.632  0.00  0.00    +0.001 A 
ATOM     14  C   UNL     1       8.070   5.645 -12.987  0.00  0.00    +0.000 A 
ATOM     15  C   UNL     1       7.185   6.569 -13.477  0.00  0.00    +0.002 A 
ATOM     16  C   UNL     1       7.360   5.670  -9.422  0.00  0.00    +0.003 A 
ATOM     17  C   UNL     1       6.413   7.235 -12.533  0.00  0.00    +0.019 A 
ATOM     18  C   UNL     1       6.147   5.639  -8.739  0.00  0.00    +0.024 A 
ENDBRANCH   7   9
ENDBRANCH   5   6
BRANCH   5  19
ATOM     19  C   UNL     1       0.996   4.847  -6.974  0.00  0.00    +0.120 C 
BRANCH  19  20
ATOM     20  C   UNL     1      -0.138   5.517  -7.688  0.00  0.00    +0.263 C 
ATOM     21  O   UNL     1      -0.095   5.411  -8.953  0.00  0.00    -0.272 OA
ATOM     22  N   UNL     1      -1.429   5.276  -7.113  0.00  0.00    -0.088 NA
ENDBRANCH  19  20
ENDBRANCH   5  19
ENDBRANCH   3   5
ENDBRANCH   1   2
BRANCH   1  23
ATOM     23  C   UNL     1       3.130   6.591  -2.073  0.00  0.00    +0.188 C 
ATOM     24  O   UNL     1       2.779   5.107  -1.955  0.00  0.00    -0.220 OA
BRANCH  23  25
ATOM     25  C   UNL     1       1.939   7.031  -1.004  0.00  0.00    +0.107 C 
BRANCH  25  27
ATOM     26  C   UNL     1       2.431   7.605   1.135  0.00  0.00    +0.137 C 
ATOM     27  N   UNL     1       2.508   8.168  -0.363  0.00  0.00    -0.264 NA
ATOM     28  C   UNL     1       3.896   8.160  -0.497  0.00  0.00    +0.072 C 
ATOM     29  C   UNL     1       4.539   9.535   0.100  0.00  0.00    +0.016 C 
ATOM     30  C   UNL     1       4.290   9.094   1.754  0.00  0.00    +0.003 C 
ATOM     31  C   UNL     1       4.409  10.612   2.351  0.00  0.00    +0.000 C 
ATOM     32  C   UNL     1       4.870  11.546   1.320  0.00  0.00    +0.000 C 
ATOM     33  C   UNL     1       3.641  11.826   0.455  0.00  0.00    +0.000 C 
ATOM     34  C   UNL     1       3.199  10.467  -0.055  0.00  0.00    +0.001 C 
ATOM     35  C   UNL     1       2.657   9.147   1.743  0.00  0.00    +0.025 C 
BRANCH  26  37
ATOM     36  N   UNL     1       0.156   8.847   1.469  0.00  0.00    -0.208 NA
ATOM     37  C   UNL     1       0.798   7.684   1.119  0.00  0.00    +0.256 C 
ATOM     38  O   UNL     1       0.301   6.598   1.557  0.00  0.00    -0.272 OA
BRANCH  36  40
ATOM     39  C   UNL     1      -1.395   8.272   2.890  0.00  0.00    +0.022 C 
ATOM     40  C   UNL     1      -1.217   8.833   1.968  0.00  0.00    +0.079 C 
ATOM     41  C   UNL     1      -2.038   8.348   0.776  0.00  0.00    +0.022 C 
ATOM     42  C   UNL     1      -1.580  10.314   2.100  0.00  0.00    +0.022 C 
ENDBRANCH  36  40
ENDBRANCH  26  37
ENDBRANCH  25  27
ENDBRANCH  23  25
ENDBRANCH   1  23
BRANCH   1  43
ATOM     43  C   UNL     1       1.291   5.428  -3.314  0.00  0.00    +0.051 C 
BRANCH  43  44
ATOM     44  C   UNL     1      -0.119   5.866  -3.403  0.00  0.00    -0.020 A 
ATOM     45  C   UNL     1      -0.577   6.858  -4.235  0.00  0.00    -0.004 A 
ATOM     46  C   UNL     1      -1.724   7.596  -3.991  0.00  0.00    -0.000 A 
ATOM     47  C   UNL     1      -2.401   7.237  -2.832  0.00  0.00    -0.000 A 
ATOM     48  C   UNL     1      -2.243   5.988  -2.274  0.00  0.00    -0.000 A 
ATOM     49  C   UNL     1      -1.079   5.315  -2.569  0.00  0.00    -0.004 A 
ENDBRANCH  43  44
ENDBRANCH   1  43
TORSDOF 13
ENDMDL
MODEL 8
REMARK VINA RESULT:      -9.5      3.710     11.024
REMARK  Name = 
REMARK  13 active torsions:
REMARK  status: ('A' for Active; 'I' for Inactive)
REMARK    1  A    between atoms: C_2  and  N_5
REMARK    2  A    between atoms: C_6  and  C_8
REMARK    3  A    between atoms: N_17  and  C_18
REMARK    4  A    between atoms: C_18  and  C_19
REMARK    5  A    between atoms: C_19  and  C_21
REMARK    6  A    between atoms: C_21  and  C_22
REMARK    7  A    between atoms: C_21  and  N_29
REMARK    8  A    between atoms: C_22  and  C_23
REMARK    9  A    between atoms: C_30  and  C_32
REMARK   10  A    between atoms: C_32  and  C_33
REMARK   11  A    between atoms: C_32  and  N_37
REMARK   12  A    between atoms: C_33  and  C_34
REMARK   13  A    between atoms: C_38  and  C_40
REMARK                            x       y       z     vdW  Elec       q    Type
REMARK                         _______ _______ _______ _____ _____    ______ ____
ROOT
ATOM      1  C   UNL     1       2.734   6.029  -5.969  0.00  0.00    +0.131 C 
ENDROOT
BRANCH   1   2
ATOM      2  N   UNL     1       3.756   6.517  -4.877  0.00  0.00    -0.203 NA
ATOM      3  C   UNL     1       3.383   6.756  -3.554  0.00  0.00    +0.262 C 
ATOM      4  O   UNL     1       2.371   7.523  -3.573  0.00  0.00    -0.271 OA
BRANCH   3   5
ATOM      5  C   UNL     1       3.226   5.467  -2.543  0.00  0.00    +0.182 C 
BRANCH   5   6
ATOM      6  N   UNL     1       2.987   6.301  -1.200  0.00  0.00    -0.192 NA
ATOM      7  C   UNL     1       4.061   6.672  -0.448  0.00  0.00    +0.283 C 
ATOM      8  O   UNL     1       4.828   5.731  -0.168  0.00  0.00    -0.267 OA
BRANCH   7   9
ATOM      9  C   UNL     1       4.327   7.935   0.253  0.00  0.00    +0.136 A 
ATOM     10  N   UNL     1       3.435   8.906  -0.080  0.00  0.00    -0.241 NA
ATOM     11  C   UNL     1       3.609  10.179   0.351  0.00  0.00    +0.081 A 
ATOM     12  C   UNL     1       4.511  10.381   1.375  0.00  0.00    +0.018 A 
ATOM     13  C   UNL     1       5.098  11.625   1.518  0.00  0.00    +0.001 A 
ATOM     14  C   UNL     1       5.080  12.494   0.431  0.00  0.00    +0.000 A 
ATOM     15  C   UNL     1       4.060  12.423  -0.481  0.00  0.00    +0.002 A 
ATOM     16  C   UNL     1       4.894   9.265   2.092  0.00  0.00    +0.003 A 
ATOM     17  C   UNL     1       3.282  11.272  -0.439  0.00  0.00    +0.019 A 
ATOM     18  C   UNL     1       4.755   7.983   1.568  0.00  0.00    +0.024 A 
ENDBRANCH   7   9
ENDBRANCH   5   6
BRANCH   5  19
ATOM     19  C   UNL     1       1.581   5.296  -2.822  0.00  0.00    +0.120 C 
BRANCH  19  20
ATOM     20  C   UNL     1       1.035   4.952  -1.471  0.00  0.00    +0.263 C 
ATOM     21  O   UNL     1      -0.232   4.864  -1.426  0.00  0.00    -0.272 OA
ATOM     22  N   UNL     1       1.730   3.894  -0.798  0.00  0.00    -0.088 NA
ENDBRANCH  19  20
ENDBRANCH   5  19
ENDBRANCH   3   5
ENDBRANCH   1   2
BRANCH   1  23
ATOM     23  C   UNL     1       3.577   6.813  -7.295  0.00  0.00    +0.188 C 
ATOM     24  O   UNL     1       2.391   7.705  -7.666  0.00  0.00    -0.220 OA
BRANCH  23  25
ATOM     25  C   UNL     1       3.138   5.649  -8.393  0.00  0.00    +0.107 C 
BRANCH  25  27
ATOM     26  C   UNL     1       3.489   7.096 -10.104  0.00  0.00    +0.137 C 
ATOM     27  N   UNL     1       4.124   5.799  -9.408  0.00  0.00    -0.264 NA
ATOM     28  C   UNL     1       5.269   6.405  -8.891  0.00  0.00    +0.072 C 
ATOM     29  C   UNL     1       6.456   6.440 -10.009  0.00  0.00    +0.016 C 
ATOM     30  C   UNL     1       5.723   7.697 -10.945  0.00  0.00    +0.003 C 
ATOM     31  C   UNL     1       6.565   7.396 -12.315  0.00  0.00    +0.000 C 
ATOM     32  C   UNL     1       7.638   6.429 -12.070  0.00  0.00    +0.000 C 
ATOM     33  C   UNL     1       6.946   5.067 -12.022  0.00  0.00    +0.000 C 
ATOM     34  C   UNL     1       5.916   5.184 -10.915  0.00  0.00    +0.001 C 
ATOM     35  C   UNL     1       4.430   6.845 -11.465  0.00  0.00    +0.025 C 
BRANCH  26  37
ATOM     36  N   UNL     1       2.225   5.675 -11.896  0.00  0.00    -0.208 NA
ATOM     37  C   UNL     1       2.211   6.227 -10.638  0.00  0.00    +0.256 C 
ATOM     38  O   UNL     1       1.124   6.766 -10.257  0.00  0.00    -0.272 OA
BRANCH  36  40
ATOM     39  C   UNL     1       0.209   4.850 -12.020  0.00  0.00    +0.022 C 
ATOM     40  C   UNL     1       0.981   5.364 -12.599  0.00  0.00    +0.079 C 
ATOM     41  C   UNL     1       1.440   4.603 -13.840  0.00  0.00    +0.022 C 
ATOM     42  C   UNL     1       0.512   6.717 -13.138  0.00  0.00    +0.022 C 
ENDBRANCH  36  40
ENDBRANCH  26  37
ENDBRANCH  25  27
ENDBRANCH  23  25
ENDBRANCH   1  23
BRANCH   1  43
ATOM     43  C   UNL     1       1.645   7.251  -5.760  0.00  0.00    +0.051 C 
BRANCH  43  44
ATOM     44  C   UNL     1       0.356   6.525  -5.756  0.00  0.00    -0.020 A 
ATOM     45  C   UNL     1       0.101   5.385  -6.476  0.00  0.00    -0.004 A 
ATOM     46  C   UNL     1      -1.169   4.993  -6.870  0.00  0.00    -0.000 A 
ATOM     47  C   UNL     1      -2.185   5.845  -6.456  0.00  0.00    -0.000 A 
ATOM     48  C   UNL     1      -2.017   6.681  -5.375  0.00  0.00    -0.000 A 
ATOM     49  C   UNL     1      -0.724   7.019  -5.042  0.00  0.00    -0.004 A 
ENDBRANCH  43  44
ENDBRANCH   1  43
TORSDOF 13
ENDMDL
MODEL 9
REMARK VINA RESULT:      -9.5      4.044     11.685
REMARK  Name = 
REMARK  13 active torsions:
REMARK  status: ('A' for Active; 'I' for Inactive)
REMARK    1  A    between atoms: C_2  and  N_5
REMARK    2  A    between atoms: C_6  and  C_8
REMARK    3  A    between atoms: N_17  and  C_18
REMARK    4  A    between atoms: C_18  and  C_19
REMARK    5  A    between atoms: C_19  and  C_21
REMARK    6  A    between atoms: C_21  and  C_22
REMARK    7  A    between atoms: C_21  and  N_29
REMARK    8  A    between atoms: C_22  and  C_23
REMARK    9  A    between atoms: C_30  and  C_32
REMARK   10  A    between atoms: C_32  and  C_33
REMARK   11  A    between atoms: C_32  and  N_37
REMARK   12  A    between atoms: C_33  and  C_34
REMARK   13  A    between atoms: C_38  and  C_40
REMARK                            x       y       z     vdW  Elec       q    Type
REMARK                         _______ _______ _______ _____ _____    ______ ____
ROOT
ATOM      1  C   UNL     1       1.988   5.824  -5.249  0.00  0.00    +0.131 C 
ENDROOT
BRANCH   1   2
ATOM      2  N   UNL     1       2.874   5.862  -3.949  0.00  0.00    -0.203 NA
ATOM      3  C   UNL     1       2.390   6.328  -2.726  0.00  0.00    +0.262 C 
ATOM      4  O   UNL     1       1.868   7.468  -2.928  0.00  0.00    -0.271 OA
BRANCH   3   5
ATOM      5  C   UNL     1       1.461   5.317  -1.820  0.00  0.00    +0.182 C 
BRANCH   5   6
ATOM      6  N   UNL     1       1.973   5.812  -0.388  0.00  0.00    -0.192 NA
ATOM      7  C   UNL     1       3.302   6.051  -0.204  0.00  0.00    +0.283 C 
ATOM      8  O   UNL     1       4.036   5.106  -0.553  0.00  0.00    -0.267 OA
BRANCH   7   9
ATOM      9  C   UNL     1       3.970   7.132   0.532  0.00  0.00    +0.136 A 
ATOM     10  N   UNL     1       3.142   7.733   1.428  0.00  0.00    -0.241 NA
ATOM     11  C   UNL     1       3.537   8.847   2.091  0.00  0.00    +0.081 A 
ATOM     12  C   UNL     1       4.883   9.151   2.070  0.00  0.00    +0.018 A 
ATOM     13  C   UNL     1       5.278  10.462   2.269  0.00  0.00    +0.001 A 
ATOM     14  C   UNL     1       4.337  11.471   2.088  0.00  0.00    +0.000 A 
ATOM     15  C   UNL     1       3.010  11.214   2.312  0.00  0.00    +0.002 A 
ATOM     16  C   UNL     1       5.739   8.142   1.682  0.00  0.00    +0.003 A 
ATOM     17  C   UNL     1       2.653   9.874   2.391  0.00  0.00    +0.019 A 
ATOM     18  C   UNL     1       5.289   7.053   0.940  0.00  0.00    +0.024 A 
ENDBRANCH   7   9
ENDBRANCH   5   6
BRANCH   5  19
ATOM     19  C   UNL     1       0.145   6.357  -1.794  0.00  0.00    +0.120 C 
BRANCH  19  20
ATOM     20  C   UNL     1      -0.940   5.528  -1.178  0.00  0.00    +0.263 C 
ATOM     21  O   UNL     1      -1.464   6.040  -0.140  0.00  0.00    -0.272 OA
ATOM     22  N   UNL     1      -1.880   4.987  -2.115  0.00  0.00    -0.088 NA
ENDBRANCH  19  20
ENDBRANCH   5  19
ENDBRANCH   3   5
ENDBRANCH   1   2
BRANCH   1  23
ATOM     23  C   UNL     1       3.197   6.609  -6.252  0.00  0.00    +0.188 C 
ATOM     24  O   UNL     1       2.171   7.171  -7.238  0.00  0.00    -0.220 OA
BRANCH  23  25
ATOM     25  C   UNL     1       3.451   5.255  -7.178  0.00  0.00    +0.107 C 
BRANCH  25  27
ATOM     26  C   UNL     1       3.362   4.482  -9.309  0.00  0.00    +0.137 C 
ATOM     27  N   UNL     1       2.630   5.503  -8.314  0.00  0.00    -0.264 NA
ATOM     28  C   UNL     1       1.419   4.821  -8.200  0.00  0.00    +0.072 C 
ATOM     29  C   UNL     1       0.415   5.223  -9.421  0.00  0.00    +0.016 C 
ATOM     30  C   UNL     1       1.281   4.314 -10.612  0.00  0.00    +0.003 C 
ATOM     31  C   UNL     1       0.657   5.098 -11.906  0.00  0.00    +0.000 C 
ATOM     32  C   UNL     1      -0.440   5.983 -11.503  0.00  0.00    +0.000 C 
ATOM     33  C   UNL     1       0.239   7.213 -10.901  0.00  0.00    +0.000 C 
ATOM     34  C   UNL     1       1.088   6.679  -9.763  0.00  0.00    +0.001 C 
ATOM     35  C   UNL     1       2.639   5.221 -10.624  0.00  0.00    +0.025 C 
BRANCH  26  37
ATOM     36  N   UNL     1       5.025   6.146 -10.447  0.00  0.00    -0.208 NA
ATOM     37  C   UNL     1       4.707   5.411  -9.330  0.00  0.00    +0.256 C 
ATOM     38  O   UNL     1       5.663   4.812  -8.743  0.00  0.00    -0.272 OA
BRANCH  36  40
ATOM     39  C   UNL     1       7.107   6.472  -9.887  0.00  0.00    +0.022 C 
ATOM     40  C   UNL     1       6.403   6.548 -10.720  0.00  0.00    +0.079 C 
ATOM     41  C   UNL     1       6.268   7.956 -11.294  0.00  0.00    +0.022 C 
ATOM     42  C   UNL     1       6.810   5.688 -11.918  0.00  0.00    +0.022 C 
ENDBRANCH  36  40
ENDBRANCH  26  37
ENDBRANCH  25  27
ENDBRANCH  23  25
ENDBRANCH   1  23
BRANCH   1  43
ATOM     43  C   UNL     1       1.148   7.209  -4.940  0.00  0.00    +0.051 C 
BRANCH  43  44
ATOM     44  C   UNL     1      -0.255   6.760  -5.069  0.00  0.00    -0.020 A 
ATOM     45  C   UNL     1      -0.641   5.528  -5.535  0.00  0.00    -0.004 A 
ATOM     46  C   UNL     1      -1.875   5.277  -6.114  0.00  0.00    -0.000 A 
ATOM     47  C   UNL     1      -2.717   6.381  -6.169  0.00  0.00    -0.000 A 
ATOM     48  C   UNL     1      -2.552   7.445  -5.310  0.00  0.00    -0.000 A 
ATOM     49  C   UNL     1      -1.298   7.624  -4.771  0.00  0.00    -0.004 A 
ENDBRANCH  43  44
ENDBRANCH   1  43
TORSDOF 13
ENDMDL
