MODEL 1
REMARK VINA RESULT:      -4.8      0.000      0.000
REMARK  Name = 
REMARK  4 active torsions:
REMARK  status: ('A' for Active; 'I' for Inactive)
REMARK    1  A    between atoms: C_2  and  C_3
REMARK    2  A    between atoms: C_3  and  C_4
REMARK    3  A    between atoms: C_4  and  P_6
REMARK    4  A    between atoms: C_4  and  P_10
REMARK                            x       y       z     vdW  Elec       q    Type
REMARK                         _______ _______ _______ _____ _____    ______ ____
ROOT
ATOM      1  C   UNL     1       1.251   5.879  -7.220  0.00  0.00    +0.217 C 
ATOM      2  O   UNL     1       1.133   6.590  -6.017  0.00  0.00    -0.211 OA
ENDROOT
BRANCH   1   3
ATOM      3  P   UNL     1       1.975   7.009  -8.432  0.00  0.00    +0.151 P 
ATOM      4  O   UNL     1       3.538   6.521  -8.893  0.00  0.00    -0.355 OA
ATOM      5  O   UNL     1       1.005   7.125  -9.824  0.00  0.00    -0.355 OA
ATOM      6  O   UNL     1       2.077   8.421  -7.873  0.00  0.00    -0.457 OA
ENDBRANCH   1   3
BRANCH   1   7
ATOM      7  P   UNL     1       2.381   4.490  -7.032  0.00  0.00    +0.151 P 
ATOM      8  O   UNL     1       3.874   4.930  -6.404  0.00  0.00    -0.355 OA
ATOM      9  O   UNL     1       2.524   3.767  -8.563  0.00  0.00    -0.355 OA
ATOM     10  O   UNL     1       1.746   3.452  -6.120  0.00  0.00    -0.457 OA
ENDBRANCH   1   7
BRANCH   1  11
ATOM     11  C   UNL     1      -0.136   5.467  -7.623  0.00  0.00    +0.065 C 
BRANCH  11  13
ATOM     12  N   UNL     1      -2.340   5.784  -6.569  0.00  0.00    -0.131 NA
ATOM     13  C   UNL     1      -0.963   5.429  -6.345  0.00  0.00    +0.113 C 
ENDBRANCH  11  13
ENDBRANCH   1  11
TORSDOF 4
ENDMDL
MODEL 2
REMARK VINA RESULT:      -4.8      2.300      3.767
REMARK  Name = 
REMARK  4 active torsions:
REMARK  status: ('A' for Active; 'I' for Inactive)
REMARK    1  A    between atoms: C_2  and  C_3
REMARK    2  A    between atoms: C_3  and  C_4
REMARK    3  A    between atoms: C_4  and  P_6
REMARK    4  A    between atoms: C_4  and  P_10
REMARK                            x       y       z     vdW  Elec       q    Type
REMARK                         _______ _______ _______ _____ _____    ______ ____
ROOT
ATOM      1  C   UNL     1       1.357   5.633  -8.405  0.00  0.00    +0.217 C 
ATOM      2  O   UNL     1       1.901   4.379  -8.719  0.00  0.00    -0.211 OA
ENDROOT
BRANCH   1   3
ATOM      3  P   UNL     1       0.436   5.437  -6.862  0.00  0.00    +0.151 P 
ATOM      4  O   UNL     1       1.084   4.196  -5.895  0.00  0.00    -0.355 OA
ATOM      5  O   UNL     1       0.424   6.881  -5.964  0.00  0.00    -0.355 OA
ATOM      6  O   UNL     1      -1.023   5.100  -7.133  0.00  0.00    -0.457 OA
ENDBRANCH   1   3
BRANCH   1   7
ATOM      7  P   UNL     1       2.662   6.837  -8.108  0.00  0.00    +0.151 P 
ATOM      8  O   UNL     1       2.088   8.401  -7.904  0.00  0.00    -0.355 OA
ATOM      9  O   UNL     1       3.739   6.723  -9.419  0.00  0.00    -0.355 OA
ATOM     10  O   UNL     1       3.443   6.430  -6.869  0.00  0.00    -0.457 OA
ENDBRANCH   1   7
BRANCH   1  11
ATOM     11  C   UNL     1       0.446   6.011  -9.538  0.00  0.00    +0.065 C 
BRANCH  11  13
ATOM     12  N   UNL     1       0.438   5.055 -11.808  0.00  0.00    -0.131 NA
ATOM     13  C   UNL     1       0.297   4.768 -10.404  0.00  0.00    +0.113 C 
ENDBRANCH  11  13
ENDBRANCH   1  11
TORSDOF 4
ENDMDL
MODEL 3
REMARK VINA RESULT:      -4.7      2.936      3.980
REMARK  Name = 
REMARK  4 active torsions:
REMARK  status: ('A' for Active; 'I' for Inactive)
REMARK    1  A    between atoms: C_2  and  C_3
REMARK    2  A    between atoms: C_3  and  C_4
REMARK    3  A    between atoms: C_4  and  P_6
REMARK    4  A    between atoms: C_4  and  P_10
REMARK                            x       y       z     vdW  Elec       q    Type
REMARK                         _______ _______ _______ _____ _____    ______ ____
ROOT
ATOM      1  C   UNL     1       3.017   5.555  -6.925  0.00  0.00    +0.217 C 
ATOM      2  O   UNL     1       2.494   4.261  -7.059  0.00  0.00    -0.211 OA
ENDROOT
BRANCH   1   3
ATOM      3  P   UNL     1       1.694   6.708  -7.360  0.00  0.00    +0.151 P 
ATOM      4  O   UNL     1       0.665   7.012  -6.040  0.00  0.00    -0.355 OA
ATOM      5  O   UNL     1       2.323   8.187  -7.917  0.00  0.00    -0.355 OA
ATOM      6  O   UNL     1       0.842   6.161  -8.497  0.00  0.00    -0.457 OA
ENDBRANCH   1   3
BRANCH   1   7
ATOM      7  P   UNL     1       3.479   5.881  -5.215  0.00  0.00    +0.151 P 
ATOM      8  O   UNL     1       2.316   5.391  -4.109  0.00  0.00    -0.355 OA
ATOM      9  O   UNL     1       3.797   7.548  -5.105  0.00  0.00    -0.355 OA
ATOM     10  O   UNL     1       4.787   5.170  -4.908  0.00  0.00    -0.457 OA
ENDBRANCH   1   7
BRANCH   1  11
ATOM     11  C   UNL     1       4.170   5.664  -7.882  0.00  0.00    +0.065 C 
BRANCH  11  13
ATOM     12  N   UNL     1       4.160   5.033 -10.264  0.00  0.00    -0.131 NA
ATOM     13  C   UNL     1       3.976   4.562  -8.915  0.00  0.00    +0.113 C 
ENDBRANCH  11  13
ENDBRANCH   1  11
TORSDOF 4
ENDMDL
MODEL 4
REMARK VINA RESULT:      -4.7      2.986      3.879
REMARK  Name = 
REMARK  4 active torsions:
REMARK  status: ('A' for Active; 'I' for Inactive)
REMARK    1  A    between atoms: C_2  and  C_3
REMARK    2  A    between atoms: C_3  and  C_4
REMARK    3  A    between atoms: C_4  and  P_6
REMARK    4  A    between atoms: C_4  and  P_10
REMARK                            x       y       z     vdW  Elec       q    Type
REMARK                         _______ _______ _______ _____ _____    ______ ____
ROOT
ATOM      1  C   UNL     1       2.967   5.274  -7.494  0.00  0.00    +0.217 C 
ATOM      2  O   UNL     1       2.967   4.092  -8.248  0.00  0.00    -0.211 OA
ENDROOT
BRANCH   1   3
ATOM      3  P   UNL     1       1.918   6.459  -8.370  0.00  0.00    +0.151 P 
ATOM      4  O   UNL     1       2.138   8.043  -7.790  0.00  0.00    -0.355 OA
ATOM      5  O   UNL     1       2.228   6.438 -10.042  0.00  0.00    -0.355 OA
ATOM      6  O   UNL     1       0.445   6.107  -8.212  0.00  0.00    -0.457 OA
ENDBRANCH   1   3
BRANCH   1   7
ATOM      7  P   UNL     1       2.236   4.997  -5.873  0.00  0.00    +0.151 P 
ATOM      8  O   UNL     1       1.475   6.356  -5.247  0.00  0.00    -0.355 OA
ATOM      9  O   UNL     1       3.486   4.447  -4.861  0.00  0.00    -0.355 OA
ATOM     10  O   UNL     1       1.226   3.865  -5.969  0.00  0.00    -0.457 OA
ENDBRANCH   1   7
BRANCH   1  11
ATOM     11  C   UNL     1       4.390   5.752  -7.431  0.00  0.00    +0.065 C 
BRANCH  11  13
ATOM     12  N   UNL     1       5.637   5.858  -9.553  0.00  0.00    -0.131 NA
ATOM     13  C   UNL     1       5.148   4.993  -8.510  0.00  0.00    +0.113 C 
ENDBRANCH  11  13
ENDBRANCH   1  11
TORSDOF 4
ENDMDL
MODEL 5
REMARK VINA RESULT:      -4.6      2.878      4.204
REMARK  Name = 
REMARK  4 active torsions:
REMARK  status: ('A' for Active; 'I' for Inactive)
REMARK    1  A    between atoms: C_2  and  C_3
REMARK    2  A    between atoms: C_3  and  C_4
REMARK    3  A    between atoms: C_4  and  P_6
REMARK    4  A    between atoms: C_4  and  P_10
REMARK                            x       y       z     vdW  Elec       q    Type
REMARK                         _______ _______ _______ _____ _____    ______ ____
ROOT
ATOM      1  C   UNL     1       3.108   5.695  -7.037  0.00  0.00    +0.217 C 
ATOM      2  O   UNL     1       2.643   4.450  -6.590  0.00  0.00    -0.211 OA
ENDROOT
BRANCH   1   3
ATOM      3  P   UNL     1       4.052   5.393  -8.550  0.00  0.00    +0.151 P 
ATOM      4  O   UNL     1       4.033   6.744  -9.584  0.00  0.00    -0.355 OA
ATOM      5  O   UNL     1       5.667   4.994  -8.199  0.00  0.00    -0.355 OA
ATOM      6  O   UNL     1       3.486   4.210  -9.322  0.00  0.00    -0.457 OA
ENDBRANCH   1   3
BRANCH   1   7
ATOM      7  P   UNL     1       1.731   6.774  -7.464  0.00  0.00    +0.151 P 
ATOM      8  O   UNL     1       2.204   8.345  -7.818  0.00  0.00    -0.355 OA
ATOM      9  O   UNL     1       0.644   6.717  -6.159  0.00  0.00    -0.355 OA
ATOM     10  O   UNL     1       0.998   6.195  -8.664  0.00  0.00    -0.457 OA
ENDBRANCH   1   7
BRANCH   1  11
ATOM     11  C   UNL     1       3.984   6.252  -5.952  0.00  0.00    +0.065 C 
BRANCH  11  13
ATOM     12  N   UNL     1       4.994   4.950  -4.120  0.00  0.00    -0.131 NA
ATOM     13  C   UNL     1       3.759   5.378  -4.726  0.00  0.00    +0.113 C 
ENDBRANCH  11  13
ENDBRANCH   1  11
TORSDOF 4
ENDMDL
MODEL 6
REMARK VINA RESULT:      -4.6      1.690      2.440
REMARK  Name = 
REMARK  4 active torsions:
REMARK  status: ('A' for Active; 'I' for Inactive)
REMARK    1  A    between atoms: C_2  and  C_3
REMARK    2  A    between atoms: C_3  and  C_4
REMARK    3  A    between atoms: C_4  and  P_6
REMARK    4  A    between atoms: C_4  and  P_10
REMARK                            x       y       z     vdW  Elec       q    Type
REMARK                         _______ _______ _______ _____ _____    ______ ____
ROOT
ATOM      1  C   UNL     1       1.336   6.361  -5.977  0.00  0.00    +0.217 C 
ATOM      2  O   UNL     1       0.455   7.391  -5.616  0.00  0.00    -0.211 OA
ENDROOT
BRANCH   1   3
ATOM      3  P   UNL     1       1.909   6.720  -7.654  0.00  0.00    +0.151 P 
ATOM      4  O   UNL     1       0.814   6.158  -8.827  0.00  0.00    -0.355 OA
ATOM      5  O   UNL     1       2.145   8.389  -7.880  0.00  0.00    -0.355 OA
ATOM      6  O   UNL     1       3.256   6.066  -7.925  0.00  0.00    -0.457 OA
ENDBRANCH   1   3
BRANCH   1   7
ATOM      7  P   UNL     1       2.780   6.351  -4.901  0.00  0.00    +0.151 P 
ATOM      8  O   UNL     1       3.900   7.541  -5.283  0.00  0.00    -0.355 OA
ATOM      9  O   UNL     1       3.452   4.793  -5.001  0.00  0.00    -0.355 OA
ATOM     10  O   UNL     1       2.330   6.537  -3.461  0.00  0.00    -0.457 OA
ENDBRANCH   1   7
BRANCH   1  11
ATOM     11  C   UNL     1       0.553   5.080  -5.933  0.00  0.00    +0.065 C 
BRANCH  11  13
ATOM     12  N   UNL     1      -1.781   5.172  -6.716  0.00  0.00    -0.131 NA
ATOM     13  C   UNL     1      -0.887   5.466  -5.625  0.00  0.00    +0.113 C 
ENDBRANCH  11  13
ENDBRANCH   1  11
TORSDOF 4
ENDMDL
MODEL 7
REMARK VINA RESULT:      -4.6      3.439      4.501
REMARK  Name = 
REMARK  4 active torsions:
REMARK  status: ('A' for Active; 'I' for Inactive)
REMARK    1  A    between atoms: C_2  and  C_3
REMARK    2  A    between atoms: C_3  and  C_4
REMARK    3  A    between atoms: C_4  and  P_6
REMARK    4  A    between atoms: C_4  and  P_10
REMARK                            x       y       z     vdW  Elec       q    Type
REMARK                         _______ _______ _______ _____ _____    ______ ____
ROOT
ATOM      1  C   UNL     1       2.759   5.892  -9.274  0.00  0.00    +0.217 C 
ATOM      2  O   UNL     1       3.099   4.543  -9.095  0.00  0.00    -0.211 OA
ENDROOT
BRANCH   1   3
ATOM      3  P   UNL     1       1.437   5.942 -10.508  0.00  0.00    +0.151 P 
ATOM      4  O   UNL     1       2.055   5.935 -12.093  0.00  0.00    -0.355 OA
ATOM      5  O   UNL     1       0.375   4.627 -10.327  0.00  0.00    -0.355 OA
ATOM      6  O   UNL     1       0.586   7.194 -10.348  0.00  0.00    -0.457 OA
ENDBRANCH   1   3
BRANCH   1   7
ATOM      7  P   UNL     1       2.104   6.592  -7.750  0.00  0.00    +0.151 P 
ATOM      8  O   UNL     1       0.550   6.069  -7.393  0.00  0.00    -0.355 OA
ATOM      9  O   UNL     1       2.182   8.282  -7.918  0.00  0.00    -0.355 OA
ATOM     10  O   UNL     1       3.027   6.229  -6.598  0.00  0.00    -0.457 OA
ENDBRANCH   1   7
BRANCH   1  11
ATOM     11  C   UNL     1       3.991   6.592  -9.769  0.00  0.00    +0.065 C 
BRANCH  11  13
ATOM     12  N   UNL     1       6.283   5.744  -9.455  0.00  0.00    -0.131 NA
ATOM     13  C   UNL     1       5.009   5.504 -10.082  0.00  0.00    +0.113 C 
ENDBRANCH  11  13
ENDBRANCH   1  11
TORSDOF 4
ENDMDL
MODEL 8
REMARK VINA RESULT:      -4.6      2.619      3.895
REMARK  Name = 
REMARK  4 active torsions:
REMARK  status: ('A' for Active; 'I' for Inactive)
REMARK    1  A    between atoms: C_2  and  C_3
REMARK    2  A    between atoms: C_3  and  C_4
REMARK    3  A    between atoms: C_4  and  P_6
REMARK    4  A    between atoms: C_4  and  P_10
REMARK                            x       y       z     vdW  Elec       q    Type
REMARK                         _______ _______ _______ _____ _____    ______ ____
ROOT
ATOM      1  C   UNL     1       3.078   5.871  -6.787  0.00  0.00    +0.217 C 
ATOM      2  O   UNL     1       2.744   4.744  -6.022  0.00  0.00    -0.211 OA
ENDROOT
BRANCH   1   3
ATOM      3  P   UNL     1       3.869   5.269  -8.297  0.00  0.00    +0.151 P 
ATOM      4  O   UNL     1       5.537   5.017  -8.076  0.00  0.00    -0.355 OA
ATOM      5  O   UNL     1       3.161   3.817  -8.827  0.00  0.00    -0.355 OA
ATOM      6  O   UNL     1       3.697   6.261  -9.439  0.00  0.00    -0.457 OA
ENDBRANCH   1   3
BRANCH   1   7
ATOM      7  P   UNL     1       1.597   6.772  -7.273  0.00  0.00    +0.151 P 
ATOM      8  O   UNL     1       0.699   5.985  -8.453  0.00  0.00    -0.355 OA
ATOM      9  O   UNL     1       2.108   8.310  -7.787  0.00  0.00    -0.355 OA
ATOM     10  O   UNL     1       0.723   6.993  -6.049  0.00  0.00    -0.457 OA
ENDBRANCH   1   7
BRANCH   1  11
ATOM     11  C   UNL     1       4.029   6.692  -5.964  0.00  0.00    +0.065 C 
BRANCH  11  13
ATOM     12  N   UNL     1       3.345   7.400  -3.705  0.00  0.00    -0.131 NA
ATOM     13  C   UNL     1       3.797   6.296  -4.513  0.00  0.00    +0.113 C 
ENDBRANCH  11  13
ENDBRANCH   1  11
TORSDOF 4
ENDMDL
MODEL 9
REMARK VINA RESULT:      -4.6      1.592      3.327
REMARK  Name = 
REMARK  4 active torsions:
REMARK  status: ('A' for Active; 'I' for Inactive)
REMARK    1  A    between atoms: C_2  and  C_3
REMARK    2  A    between atoms: C_3  and  C_4
REMARK    3  A    between atoms: C_4  and  P_6
REMARK    4  A    between atoms: C_4  and  P_10
REMARK                            x       y       z     vdW  Elec       q    Type
REMARK                         _______ _______ _______ _____ _____    ______ ____
ROOT
ATOM      1  C   UNL     1       1.592   6.011  -6.303  0.00  0.00    +0.217 C 
ATOM      2  O   UNL     1       1.426   4.623  -6.419  0.00  0.00    -0.211 OA
ENDROOT
BRANCH   1   3
ATOM      3  P   UNL     1       2.929   6.284  -5.117  0.00  0.00    +0.151 P 
ATOM      4  O   UNL     1       2.337   6.460  -3.532  0.00  0.00    -0.355 OA
ATOM      5  O   UNL     1       4.049   5.005  -5.145  0.00  0.00    -0.355 OA
ATOM      6  O   UNL     1       3.718   7.540  -5.460  0.00  0.00    -0.457 OA
ENDBRANCH   1   3
BRANCH   1   7
ATOM      7  P   UNL     1       2.107   6.724  -7.874  0.00  0.00    +0.151 P 
ATOM      8  O   UNL     1       2.111   8.403  -7.870  0.00  0.00    -0.355 OA
ATOM      9  O   UNL     1       1.065   6.095  -9.061  0.00  0.00    -0.355 OA
ATOM     10  O   UNL     1       3.502   6.226  -8.214  0.00  0.00    -0.457 OA
ENDBRANCH   1   7
BRANCH   1  11
ATOM     11  C   UNL     1       0.292   6.566  -5.796  0.00  0.00    +0.065 C 
BRANCH  11  13
ATOM     12  N   UNL     1      -2.027   5.908  -6.306  0.00  0.00    -0.131 NA
ATOM     13  C   UNL     1      -0.727   5.440  -5.898  0.00  0.00    +0.113 C 
ENDBRANCH  11  13
ENDBRANCH   1  11
TORSDOF 4
ENDMDL
