MODEL 1
REMARK VINA RESULT:      -6.1      0.000      0.000
REMARK  Name = 
REMARK  12 active torsions:
REMARK  status: ('A' for Active; 'I' for Inactive)
REMARK    1  A    between atoms: C_2  and  C_3
REMARK    2  A    between atoms: C_3  and  C_4
REMARK    3  A    between atoms: C_4  and  C_5
REMARK    4  A    between atoms: C_5  and  C_6
REMARK    5  A    between atoms: C_6  and  C_7
REMARK    6  A    between atoms: C_7  and  C_8
REMARK    7  A    between atoms: C_8  and  C_9
REMARK    8  A    between atoms: C_12  and  C_13
REMARK    9  A    between atoms: C_13  and  C_14
REMARK   10  A    between atoms: C_14  and  C_15
REMARK   11  A    between atoms: C_15  and  C_17
REMARK   12  A    between atoms: C_15  and  C_19
REMARK                            x       y       z     vdW  Elec       q    Type
REMARK                         _______ _______ _______ _____ _____    ______ ____
ROOT
ATOM      1  C   UNL     1       1.224   5.718  -8.588  0.00  0.00    -0.022 A 
ATOM      2  C   UNL     1       1.849   6.958  -8.626  0.00  0.00    -0.005 A 
ATOM      3  C   UNL     1       3.225   7.073  -8.758  0.00  0.00    -0.005 A 
ATOM      4  C   UNL     1       4.003   5.923  -8.774  0.00  0.00    -0.022 A 
ATOM      5  C   UNL     1       3.396   4.774  -8.284  0.00  0.00    -0.005 A 
ATOM      6  C   UNL     1       2.018   4.604  -8.340  0.00  0.00    -0.005 A 
ENDROOT
BRANCH   4   7
ATOM      7  C   UNL     1       5.267   5.835  -9.570  0.00  0.00    +0.028 C 
BRANCH   7   8
ATOM      8  C   UNL     1       4.986   5.450 -10.996  0.00  0.00    +0.028 C 
BRANCH   8   9
ATOM      9  C   UNL     1       5.998   5.976 -11.972  0.00  0.00    +0.138 C 
ATOM     10  N   UNL     1       6.138   7.414 -11.937  0.00  0.00    -0.129 NA
BRANCH   9  11
ATOM     11  C   UNL     1       7.344   5.380 -11.577  0.00  0.00    +0.202 C 
ATOM     12  O   UNL     1       7.876   4.583 -12.573  0.00  0.00    -0.219 OA
ENDBRANCH   9  11
BRANCH   9  13
ATOM     13  C   UNL     1       5.735   5.498 -13.395  0.00  0.00    +0.202 C 
ATOM     14  O   UNL     1       4.698   4.552 -13.408  0.00  0.00    -0.219 OA
ENDBRANCH   9  13
ENDBRANCH   8   9
ENDBRANCH   7   8
ENDBRANCH   4   7
BRANCH   1  15
ATOM     15  C   UNL     1      -0.225   5.556  -8.352  0.00  0.00    +0.026 C 
BRANCH  15  16
ATOM     16  C   UNL     1      -0.503   4.954  -6.997  0.00  0.00    +0.005 C 
BRANCH  16  17
ATOM     17  C   UNL     1      -0.880   6.062  -6.038  0.00  0.00    +0.000 C 
BRANCH  17  18
ATOM     18  C   UNL     1       0.298   6.417  -5.149  0.00  0.00    +0.000 C 
BRANCH  18  19
ATOM     19  C   UNL     1       1.016   5.126  -4.797  0.00  0.00    +0.000 C 
BRANCH  19  20
ATOM     20  C   UNL     1       2.506   5.366  -4.668  0.00  0.00    +0.000 C 
BRANCH  20  22
ATOM     21  C   UNL     1       4.352   6.937  -5.190  0.00  0.00    +0.000 C 
ATOM     22  C   UNL     1       2.859   6.807  -4.991  0.00  0.00    +0.000 C 
ENDBRANCH  20  22
ENDBRANCH  19  20
ENDBRANCH  18  19
ENDBRANCH  17  18
ENDBRANCH  16  17
ENDBRANCH  15  16
ENDBRANCH   1  15
TORSDOF 12
ENDMDL
MODEL 2
REMARK VINA RESULT:      -6.0      2.295      4.255
REMARK  Name = 
REMARK  12 active torsions:
REMARK  status: ('A' for Active; 'I' for Inactive)
REMARK    1  A    between atoms: C_2  and  C_3
REMARK    2  A    between atoms: C_3  and  C_4
REMARK    3  A    between atoms: C_4  and  C_5
REMARK    4  A    between atoms: C_5  and  C_6
REMARK    5  A    between atoms: C_6  and  C_7
REMARK    6  A    between atoms: C_7  and  C_8
REMARK    7  A    between atoms: C_8  and  C_9
REMARK    8  A    between atoms: C_12  and  C_13
REMARK    9  A    between atoms: C_13  and  C_14
REMARK   10  A    between atoms: C_14  and  C_15
REMARK   11  A    between atoms: C_15  and  C_17
REMARK   12  A    between atoms: C_15  and  C_19
REMARK                            x       y       z     vdW  Elec       q    Type
REMARK                         _______ _______ _______ _____ _____    ______ ____
ROOT
ATOM      1  C   UNL     1       4.531   5.357  -9.055  0.00  0.00    -0.022 A 
ATOM      2  C   UNL     1       4.185   6.447  -9.844  0.00  0.00    -0.005 A 
ATOM      3  C   UNL     1       5.127   7.116 -10.611  0.00  0.00    -0.005 A 
ATOM      4  C   UNL     1       6.460   6.738 -10.529  0.00  0.00    -0.022 A 
ATOM      5  C   UNL     1       6.807   5.978  -9.419  0.00  0.00    -0.005 A 
ATOM      6  C   UNL     1       5.880   5.163  -8.781  0.00  0.00    -0.005 A 
ENDROOT
BRANCH   4   7
ATOM      7  C   UNL     1       7.383   6.834 -11.703  0.00  0.00    +0.028 C 
BRANCH   7   8
ATOM      8  C   UNL     1       6.647   7.272 -12.939  0.00  0.00    +0.028 C 
BRANCH   8   9
ATOM      9  C   UNL     1       6.555   6.208 -13.993  0.00  0.00    +0.138 C 
ATOM     10  N   UNL     1       7.356   5.041 -13.704  0.00  0.00    -0.129 NA
BRANCH   9  11
ATOM     11  C   UNL     1       5.100   5.758 -14.042  0.00  0.00    +0.202 C 
ATOM     12  O   UNL     1       4.891   4.586 -13.340  0.00  0.00    -0.219 OA
ENDBRANCH   9  11
BRANCH   9  13
ATOM     13  C   UNL     1       6.870   6.741 -15.386  0.00  0.00    +0.202 C 
ATOM     14  O   UNL     1       6.391   8.054 -15.525  0.00  0.00    -0.219 OA
ENDBRANCH   9  13
ENDBRANCH   8   9
ENDBRANCH   7   8
ENDBRANCH   4   7
BRANCH   1  15
ATOM     15  C   UNL     1       3.576   4.682  -8.154  0.00  0.00    +0.026 C 
BRANCH  15  16
ATOM     16  C   UNL     1       2.272   4.381  -8.852  0.00  0.00    +0.005 C 
BRANCH  16  17
ATOM     17  C   UNL     1       1.144   5.034  -8.084  0.00  0.00    +0.000 C 
BRANCH  17  18
ATOM     18  C   UNL     1       0.593   6.218  -8.858  0.00  0.00    +0.000 C 
BRANCH  18  19
ATOM     19  C   UNL     1       0.172   5.719 -10.229  0.00  0.00    +0.000 C 
BRANCH  19  20
ATOM     20  C   UNL     1      -0.111   6.884 -11.154  0.00  0.00    +0.000 C 
BRANCH  20  22
ATOM     21  C   UNL     1       1.581   5.565 -12.398  0.00  0.00    +0.000 C 
ATOM     22  C   UNL     1       0.829   6.876 -12.347  0.00  0.00    +0.000 C 
ENDBRANCH  20  22
ENDBRANCH  19  20
ENDBRANCH  18  19
ENDBRANCH  17  18
ENDBRANCH  16  17
ENDBRANCH  15  16
ENDBRANCH   1  15
TORSDOF 12
ENDMDL
MODEL 3
REMARK VINA RESULT:      -5.9      5.839      8.553
REMARK  Name = 
REMARK  12 active torsions:
REMARK  status: ('A' for Active; 'I' for Inactive)
REMARK    1  A    between atoms: C_2  and  C_3
REMARK    2  A    between atoms: C_3  and  C_4
REMARK    3  A    between atoms: C_4  and  C_5
REMARK    4  A    between atoms: C_5  and  C_6
REMARK    5  A    between atoms: C_6  and  C_7
REMARK    6  A    between atoms: C_7  and  C_8
REMARK    7  A    between atoms: C_8  and  C_9
REMARK    8  A    between atoms: C_12  and  C_13
REMARK    9  A    between atoms: C_13  and  C_14
REMARK   10  A    between atoms: C_14  and  C_15
REMARK   11  A    between atoms: C_15  and  C_17
REMARK   12  A    between atoms: C_15  and  C_19
REMARK                            x       y       z     vdW  Elec       q    Type
REMARK                         _______ _______ _______ _____ _____    ______ ____
ROOT
ATOM      1  C   UNL     1       0.081   5.692  -6.619  0.00  0.00    -0.022 A 
ATOM      2  C   UNL     1       0.332   6.814  -5.839  0.00  0.00    -0.005 A 
ATOM      3  C   UNL     1      -0.639   7.350  -5.006  0.00  0.00    -0.005 A 
ATOM      4  C   UNL     1      -1.914   6.802  -5.010  0.00  0.00    -0.022 A 
ATOM      5  C   UNL     1      -2.229   6.009  -6.106  0.00  0.00    -0.005 A 
ATOM      6  C   UNL     1      -1.246   5.325  -6.811  0.00  0.00    -0.005 A 
ENDROOT
BRANCH   4   7
ATOM      7  C   UNL     1      -2.764   6.770  -3.779  0.00  0.00    +0.028 C 
BRANCH   7   8
ATOM      8  C   UNL     1      -2.039   7.359  -2.601  0.00  0.00    +0.028 C 
BRANCH   8   9
ATOM      9  C   UNL     1      -1.773   6.371  -1.503  0.00  0.00    +0.138 C 
ATOM     10  N   UNL     1      -2.489   5.126  -1.663  0.00  0.00    -0.129 NA
BRANCH   9  11
ATOM     11  C   UNL     1      -0.284   6.047  -1.551  0.00  0.00    +0.202 C 
ATOM     12  O   UNL     1      -0.048   4.697  -1.732  0.00  0.00    -0.219 OA
ENDBRANCH   9  11
BRANCH   9  13
ATOM     13  C   UNL     1      -2.024   6.959  -0.120  0.00  0.00    +0.202 C 
ATOM     14  O   UNL     1      -0.889   6.801   0.691  0.00  0.00    -0.219 OA
ENDBRANCH   9  13
ENDBRANCH   8   9
ENDBRANCH   7   8
ENDBRANCH   4   7
BRANCH   1  15
ATOM     15  C   UNL     1       1.057   5.153  -7.587  0.00  0.00    +0.026 C 
BRANCH  15  16
ATOM     16  C   UNL     1       2.025   4.202  -6.928  0.00  0.00    +0.005 C 
BRANCH  16  17
ATOM     17  C   UNL     1       3.167   4.998  -6.336  0.00  0.00    +0.000 C 
BRANCH  17  18
ATOM     18  C   UNL     1       3.449   4.542  -4.915  0.00  0.00    +0.000 C 
BRANCH  18  19
ATOM     19  C   UNL     1       4.573   5.403  -4.368  0.00  0.00    +0.000 C 
BRANCH  19  20
ATOM     20  C   UNL     1       4.549   6.777  -5.006  0.00  0.00    +0.000 C 
BRANCH  20  22
ATOM     21  C   UNL     1       4.065   7.954  -2.878  0.00  0.00    +0.000 C 
ATOM     22  C   UNL     1       5.031   7.840  -4.036  0.00  0.00    +0.000 C 
ENDBRANCH  20  22
ENDBRANCH  19  20
ENDBRANCH  18  19
ENDBRANCH  17  18
ENDBRANCH  16  17
ENDBRANCH  15  16
ENDBRANCH   1  15
TORSDOF 12
ENDMDL
MODEL 4
REMARK VINA RESULT:      -5.9      4.770      8.463
REMARK  Name = 
REMARK  12 active torsions:
REMARK  status: ('A' for Active; 'I' for Inactive)
REMARK    1  A    between atoms: C_2  and  C_3
REMARK    2  A    between atoms: C_3  and  C_4
REMARK    3  A    between atoms: C_4  and  C_5
REMARK    4  A    between atoms: C_5  and  C_6
REMARK    5  A    between atoms: C_6  and  C_7
REMARK    6  A    between atoms: C_7  and  C_8
REMARK    7  A    between atoms: C_8  and  C_9
REMARK    8  A    between atoms: C_12  and  C_13
REMARK    9  A    between atoms: C_13  and  C_14
REMARK   10  A    between atoms: C_14  and  C_15
REMARK   11  A    between atoms: C_15  and  C_17
REMARK   12  A    between atoms: C_15  and  C_19
REMARK                            x       y       z     vdW  Elec       q    Type
REMARK                         _______ _______ _______ _____ _____    ______ ____
ROOT
ATOM      1  C   UNL     1       2.179   6.244  -8.960  0.00  0.00    -0.022 A 
ATOM      2  C   UNL     1       2.266   7.110  -7.877  0.00  0.00    -0.005 A 
ATOM      3  C   UNL     1       1.396   7.015  -6.801  0.00  0.00    -0.005 A 
ATOM      4  C   UNL     1       0.366   6.085  -6.841  0.00  0.00    -0.022 A 
ATOM      5  C   UNL     1       0.054   5.581  -8.097  0.00  0.00    -0.005 A 
ATOM      6  C   UNL     1       1.007   5.511  -9.106  0.00  0.00    -0.005 A 
ENDROOT
BRANCH   4   7
ATOM      7  C   UNL     1      -0.138   5.411  -5.604  0.00  0.00    +0.028 C 
BRANCH   7   8
ATOM      8  C   UNL     1      -1.515   5.897  -5.242  0.00  0.00    +0.028 C 
BRANCH   8   9
ATOM      9  C   UNL     1      -1.710   6.108  -3.769  0.00  0.00    +0.138 C 
ATOM     10  N   UNL     1      -0.551   5.760  -2.980  0.00  0.00    -0.129 NA
BRANCH   9  11
ATOM     11  C   UNL     1      -1.965   7.597  -3.566  0.00  0.00    +0.202 C 
ATOM     12  O   UNL     1      -1.815   8.318  -4.735  0.00  0.00    -0.219 OA
ENDBRANCH   9  11
BRANCH   9  13
ATOM     13  C   UNL     1      -2.951   5.400  -3.241  0.00  0.00    +0.202 C 
ATOM     14  O   UNL     1      -2.696   4.846  -1.977  0.00  0.00    -0.219 OA
ENDBRANCH   9  13
ENDBRANCH   8   9
ENDBRANCH   7   8
ENDBRANCH   4   7
BRANCH   1  15
ATOM     15  C   UNL     1       3.024   6.375 -10.163  0.00  0.00    +0.026 C 
BRANCH  15  16
ATOM     16  C   UNL     1       4.149   5.370 -10.165  0.00  0.00    +0.005 C 
BRANCH  16  17
ATOM     17  C   UNL     1       5.462   6.105 -10.002  0.00  0.00    +0.000 C 
BRANCH  17  18
ATOM     18  C   UNL     1       5.484   7.349 -10.872  0.00  0.00    +0.000 C 
BRANCH  18  19
ATOM     19  C   UNL     1       6.930   7.630 -11.241  0.00  0.00    +0.000 C 
BRANCH  19  20
ATOM     20  C   UNL     1       7.821   6.487 -10.804  0.00  0.00    +0.000 C 
BRANCH  20  22
ATOM     21  C   UNL     1       7.675   5.565 -13.101  0.00  0.00    +0.000 C 
ATOM     22  C   UNL     1       8.614   5.933 -11.974  0.00  0.00    +0.000 C 
ENDBRANCH  20  22
ENDBRANCH  19  20
ENDBRANCH  18  19
ENDBRANCH  17  18
ENDBRANCH  16  17
ENDBRANCH  15  16
ENDBRANCH   1  15
TORSDOF 12
ENDMDL
MODEL 5
REMARK VINA RESULT:      -5.8      1.463      2.939
REMARK  Name = 
REMARK  12 active torsions:
REMARK  status: ('A' for Active; 'I' for Inactive)
REMARK    1  A    between atoms: C_2  and  C_3
REMARK    2  A    between atoms: C_3  and  C_4
REMARK    3  A    between atoms: C_4  and  C_5
REMARK    4  A    between atoms: C_5  and  C_6
REMARK    5  A    between atoms: C_6  and  C_7
REMARK    6  A    between atoms: C_7  and  C_8
REMARK    7  A    between atoms: C_8  and  C_9
REMARK    8  A    between atoms: C_12  and  C_13
REMARK    9  A    between atoms: C_13  and  C_14
REMARK   10  A    between atoms: C_14  and  C_15
REMARK   11  A    between atoms: C_15  and  C_17
REMARK   12  A    between atoms: C_15  and  C_19
REMARK                            x       y       z     vdW  Elec       q    Type
REMARK                         _______ _______ _______ _____ _____    ______ ____
ROOT
ATOM      1  C   UNL     1       3.644   6.122  -7.484  0.00  0.00    -0.022 A 
ATOM      2  C   UNL     1       4.732   5.266  -7.610  0.00  0.00    -0.005 A 
ATOM      3  C   UNL     1       5.567   5.313  -8.716  0.00  0.00    -0.005 A 
ATOM      4  C   UNL     1       5.266   6.181  -9.757  0.00  0.00    -0.022 A 
ATOM      5  C   UNL     1       3.962   6.661  -9.788  0.00  0.00    -0.005 A 
ATOM      6  C   UNL     1       3.209   6.783  -8.627  0.00  0.00    -0.005 A 
ENDROOT
BRANCH   4   7
ATOM      7  C   UNL     1       6.334   6.828 -10.581  0.00  0.00    +0.028 C 
BRANCH   7   8
ATOM      8  C   UNL     1       5.798   7.275 -11.913  0.00  0.00    +0.028 C 
BRANCH   8   9
ATOM      9  C   UNL     1       6.366   6.516 -13.076  0.00  0.00    +0.138 C 
ATOM     10  N   UNL     1       6.598   7.338 -14.242  0.00  0.00    -0.129 NA
BRANCH   9  11
ATOM     11  C   UNL     1       7.718   5.970 -12.630  0.00  0.00    +0.202 C 
ATOM     12  O   UNL     1       7.822   4.606 -12.828  0.00  0.00    -0.219 OA
ENDBRANCH   9  11
BRANCH   9  13
ATOM     13  C   UNL     1       5.527   5.297 -13.439  0.00  0.00    +0.202 C 
ATOM     14  O   UNL     1       4.191   5.493 -13.055  0.00  0.00    -0.219 OA
ENDBRANCH   9  13
ENDBRANCH   8   9
ENDBRANCH   7   8
ENDBRANCH   4   7
BRANCH   1  15
ATOM     15  C   UNL     1       2.680   6.036  -6.369  0.00  0.00    +0.026 C 
BRANCH  15  16
ATOM     16  C   UNL     1       2.197   4.622  -6.160  0.00  0.00    +0.005 C 
BRANCH  16  17
ATOM     17  C   UNL     1       0.707   4.648  -5.900  0.00  0.00    +0.000 C 
BRANCH  17  18
ATOM     18  C   UNL     1       0.001   5.489  -6.949  0.00  0.00    +0.000 C 
BRANCH  18  19
ATOM     19  C   UNL     1      -1.494   5.349  -6.723  0.00  0.00    +0.000 C 
BRANCH  19  20
ATOM     20  C   UNL     1      -1.863   5.786  -5.321  0.00  0.00    +0.000 C 
BRANCH  20  22
ATOM     21  C   UNL     1      -1.807   8.129  -4.510  0.00  0.00    +0.000 C 
ATOM     22  C   UNL     1      -2.579   7.125  -5.335  0.00  0.00    +0.000 C 
ENDBRANCH  20  22
ENDBRANCH  19  20
ENDBRANCH  18  19
ENDBRANCH  17  18
ENDBRANCH  16  17
ENDBRANCH  15  16
ENDBRANCH   1  15
TORSDOF 12
ENDMDL
MODEL 6
REMARK VINA RESULT:      -5.8      1.381      3.074
REMARK  Name = 
REMARK  12 active torsions:
REMARK  status: ('A' for Active; 'I' for Inactive)
REMARK    1  A    between atoms: C_2  and  C_3
REMARK    2  A    between atoms: C_3  and  C_4
REMARK    3  A    between atoms: C_4  and  C_5
REMARK    4  A    between atoms: C_5  and  C_6
REMARK    5  A    between atoms: C_6  and  C_7
REMARK    6  A    between atoms: C_7  and  C_8
REMARK    7  A    between atoms: C_8  and  C_9
REMARK    8  A    between atoms: C_12  and  C_13
REMARK    9  A    between atoms: C_13  and  C_14
REMARK   10  A    between atoms: C_14  and  C_15
REMARK   11  A    between atoms: C_15  and  C_17
REMARK   12  A    between atoms: C_15  and  C_19
REMARK                            x       y       z     vdW  Elec       q    Type
REMARK                         _______ _______ _______ _____ _____    ______ ____
ROOT
ATOM      1  C   UNL     1       3.445   6.626  -6.998  0.00  0.00    -0.022 A 
ATOM      2  C   UNL     1       4.086   5.519  -7.541  0.00  0.00    -0.005 A 
ATOM      3  C   UNL     1       4.178   5.335  -8.912  0.00  0.00    -0.005 A 
ATOM      4  C   UNL     1       3.550   6.235  -9.762  0.00  0.00    -0.022 A 
ATOM      5  C   UNL     1       2.570   7.032  -9.182  0.00  0.00    -0.005 A 
ATOM      6  C   UNL     1       2.609   7.360  -7.833  0.00  0.00    -0.005 A 
ENDROOT
BRANCH   4   7
ATOM      7  C   UNL     1       4.110   6.576 -11.107  0.00  0.00    +0.028 C 
BRANCH   7   8
ATOM      8  C   UNL     1       5.255   5.669 -11.465  0.00  0.00    +0.028 C 
BRANCH   8   9
ATOM      9  C   UNL     1       6.554   6.391 -11.671  0.00  0.00    +0.138 C 
ATOM     10  N   UNL     1       6.410   7.828 -11.726  0.00  0.00    -0.129 NA
BRANCH   9  11
ATOM     11  C   UNL     1       7.433   6.071 -10.468  0.00  0.00    +0.202 C 
ATOM     12  O   UNL     1       8.049   7.197  -9.955  0.00  0.00    -0.219 OA
ENDBRANCH   9  11
BRANCH   9  13
ATOM     13  C   UNL     1       7.315   5.882 -12.889  0.00  0.00    +0.202 C 
ATOM     14  O   UNL     1       7.769   4.573 -12.668  0.00  0.00    -0.219 OA
ENDBRANCH   9  13
ENDBRANCH   8   9
ENDBRANCH   7   8
ENDBRANCH   4   7
BRANCH   1  15
ATOM     15  C   UNL     1       3.243   6.806  -5.546  0.00  0.00    +0.026 C 
BRANCH  15  16
ATOM     16  C   UNL     1       1.789   6.671  -5.167  0.00  0.00    +0.005 C 
BRANCH  16  17
ATOM     17  C   UNL     1       1.487   5.213  -4.898  0.00  0.00    +0.000 C 
BRANCH  17  18
ATOM     18  C   UNL     1       0.599   4.647  -5.992  0.00  0.00    +0.000 C 
BRANCH  18  19
ATOM     19  C   UNL     1      -0.268   5.778  -6.515  0.00  0.00    +0.000 C 
BRANCH  19  20
ATOM     20  C   UNL     1      -1.735   5.427  -6.384  0.00  0.00    +0.000 C 
BRANCH  20  22
ATOM     21  C   UNL     1      -1.909   7.448  -4.959  0.00  0.00    +0.000 C 
ATOM     22  C   UNL     1      -2.324   6.002  -5.108  0.00  0.00    +0.000 C 
ENDBRANCH  20  22
ENDBRANCH  19  20
ENDBRANCH  18  19
ENDBRANCH  17  18
ENDBRANCH  16  17
ENDBRANCH  15  16
ENDBRANCH   1  15
TORSDOF 12
ENDMDL
MODEL 7
REMARK VINA RESULT:      -5.8      3.243      5.061
REMARK  Name = 
REMARK  12 active torsions:
REMARK  status: ('A' for Active; 'I' for Inactive)
REMARK    1  A    between atoms: C_2  and  C_3
REMARK    2  A    between atoms: C_3  and  C_4
REMARK    3  A    between atoms: C_4  and  C_5
REMARK    4  A    between atoms: C_5  and  C_6
REMARK    5  A    between atoms: C_6  and  C_7
REMARK    6  A    between atoms: C_7  and  C_8
REMARK    7  A    between atoms: C_8  and  C_9
REMARK    8  A    between atoms: C_12  and  C_13
REMARK    9  A    between atoms: C_13  and  C_14
REMARK   10  A    between atoms: C_14  and  C_15
REMARK   11  A    between atoms: C_15  and  C_17
REMARK   12  A    between atoms: C_15  and  C_19
REMARK                            x       y       z     vdW  Elec       q    Type
REMARK                         _______ _______ _______ _____ _____    ______ ____
ROOT
ATOM      1  C   UNL     1      -1.560   6.939  -4.666  0.00  0.00    -0.022 A 
ATOM      2  C   UNL     1      -0.217   6.596  -4.756  0.00  0.00    -0.005 A 
ATOM      3  C   UNL     1       0.284   5.909  -5.852  0.00  0.00    -0.005 A 
ATOM      4  C   UNL     1      -0.589   5.486  -6.845  0.00  0.00    -0.022 A 
ATOM      5  C   UNL     1      -1.933   5.450  -6.494  0.00  0.00    -0.005 A 
ATOM      6  C   UNL     1      -2.449   6.292  -5.517  0.00  0.00    -0.005 A 
ENDROOT
BRANCH   4   7
ATOM      7  C   UNL     1      -0.176   5.409  -8.281  0.00  0.00    +0.028 C 
BRANCH   7   8
ATOM      8  C   UNL     1       1.318   5.290  -8.412  0.00  0.00    +0.028 C 
BRANCH   8   9
ATOM      9  C   UNL     1       1.922   6.298  -9.345  0.00  0.00    +0.138 C 
ATOM     10  N   UNL     1       0.943   7.137  -9.998  0.00  0.00    -0.129 NA
BRANCH   9  11
ATOM     11  C   UNL     1       2.808   7.207  -8.501  0.00  0.00    +0.202 C 
ATOM     12  O   UNL     1       2.097   8.244  -7.927  0.00  0.00    -0.219 OA
ENDBRANCH   9  11
BRANCH   9  13
ATOM     13  C   UNL     1       2.847   5.656 -10.372  0.00  0.00    +0.202 C 
ATOM     14  O   UNL     1       4.141   5.520  -9.846  0.00  0.00    -0.219 OA
ENDBRANCH   9  13
ENDBRANCH   8   9
ENDBRANCH   7   8
ENDBRANCH   4   7
BRANCH   1  15
ATOM     15  C   UNL     1      -2.145   7.584  -3.474  0.00  0.00    +0.026 C 
BRANCH  15  16
ATOM     16  C   UNL     1      -3.094   6.659  -2.752  0.00  0.00    +0.005 C 
BRANCH  16  17
ATOM     17  C   UNL     1      -2.291   5.720  -1.878  0.00  0.00    +0.000 C 
BRANCH  17  18
ATOM     18  C   UNL     1      -1.832   6.432  -0.618  0.00  0.00    +0.000 C 
BRANCH  18  19
ATOM     19  C   UNL     1      -0.316   6.355  -0.570  0.00  0.00    +0.000 C 
BRANCH  19  20
ATOM     20  C   UNL     1       0.180   5.165  -1.364  0.00  0.00    +0.000 C 
BRANCH  20  22
ATOM     21  C   UNL     1       2.412   5.785  -2.251  0.00  0.00    +0.000 C 
ATOM     22  C   UNL     1       1.679   4.984  -1.199  0.00  0.00    +0.000 C 
ENDBRANCH  20  22
ENDBRANCH  19  20
ENDBRANCH  18  19
ENDBRANCH  17  18
ENDBRANCH  16  17
ENDBRANCH  15  16
ENDBRANCH   1  15
TORSDOF 12
ENDMDL
MODEL 8
REMARK VINA RESULT:      -5.7      5.162      8.528
REMARK  Name = 
REMARK  12 active torsions:
REMARK  status: ('A' for Active; 'I' for Inactive)
REMARK    1  A    between atoms: C_2  and  C_3
REMARK    2  A    between atoms: C_3  and  C_4
REMARK    3  A    between atoms: C_4  and  C_5
REMARK    4  A    between atoms: C_5  and  C_6
REMARK    5  A    between atoms: C_6  and  C_7
REMARK    6  A    between atoms: C_7  and  C_8
REMARK    7  A    between atoms: C_8  and  C_9
REMARK    8  A    between atoms: C_12  and  C_13
REMARK    9  A    between atoms: C_13  and  C_14
REMARK   10  A    between atoms: C_14  and  C_15
REMARK   11  A    between atoms: C_15  and  C_17
REMARK   12  A    between atoms: C_15  and  C_19
REMARK                            x       y       z     vdW  Elec       q    Type
REMARK                         _______ _______ _______ _____ _____    ______ ____
ROOT
ATOM      1  C   UNL     1       1.498   6.016  -8.755  0.00  0.00    -0.022 A 
ATOM      2  C   UNL     1       0.217   5.480  -8.698  0.00  0.00    -0.005 A 
ATOM      3  C   UNL     1      -0.516   5.477  -7.521  0.00  0.00    -0.005 A 
ATOM      4  C   UNL     1       0.071   5.947  -6.355  0.00  0.00    -0.022 A 
ATOM      5  C   UNL     1       1.457   6.037  -6.368  0.00  0.00    -0.005 A 
ATOM      6  C   UNL     1       2.159   6.234  -7.551  0.00  0.00    -0.005 A 
ENDROOT
BRANCH   4   7
ATOM      7  C   UNL     1      -0.725   6.635  -5.291  0.00  0.00    +0.028 C 
BRANCH   7   8
ATOM      8  C   UNL     1      -1.715   5.695  -4.658  0.00  0.00    +0.028 C 
BRANCH   8   9
ATOM      9  C   UNL     1      -1.826   5.851  -3.170  0.00  0.00    +0.138 C 
ATOM     10  N   UNL     1      -2.603   4.809  -2.539  0.00  0.00    -0.129 NA
BRANCH   9  11
ATOM     11  C   UNL     1      -0.411   5.763  -2.609  0.00  0.00    +0.202 C 
ATOM     12  O   UNL     1      -0.270   4.727  -1.705  0.00  0.00    -0.219 OA
ENDBRANCH   9  11
BRANCH   9  13
ATOM     13  C   UNL     1      -2.346   7.226  -2.767  0.00  0.00    +0.202 C 
ATOM     14  O   UNL     1      -1.954   7.530  -1.454  0.00  0.00    -0.219 OA
ENDBRANCH   9  13
ENDBRANCH   8   9
ENDBRANCH   7   8
ENDBRANCH   4   7
BRANCH   1  15
ATOM     15  C   UNL     1       2.343   5.951  -9.964  0.00  0.00    +0.026 C 
BRANCH  15  16
ATOM     16  C   UNL     1       3.667   6.643  -9.754  0.00  0.00    +0.005 C 
BRANCH  16  17
ATOM     17  C   UNL     1       4.782   5.693 -10.133  0.00  0.00    +0.000 C 
BRANCH  17  18
ATOM     18  C   UNL     1       5.784   5.574  -8.999  0.00  0.00    +0.000 C 
BRANCH  18  19
ATOM     19  C   UNL     1       7.176   5.620  -9.606  0.00  0.00    +0.000 C 
BRANCH  19  20
ATOM     20  C   UNL     1       7.359   6.885 -10.418  0.00  0.00    +0.000 C 
BRANCH  20  22
ATOM     21  C   UNL     1       8.904   5.779 -12.012  0.00  0.00    +0.000 C 
ATOM     22  C   UNL     1       7.618   6.564 -11.880  0.00  0.00    +0.000 C 
ENDBRANCH  20  22
ENDBRANCH  19  20
ENDBRANCH  18  19
ENDBRANCH  17  18
ENDBRANCH  16  17
ENDBRANCH  15  16
ENDBRANCH   1  15
TORSDOF 12
ENDMDL
MODEL 9
REMARK VINA RESULT:      -5.7      1.180      1.605
REMARK  Name = 
REMARK  12 active torsions:
REMARK  status: ('A' for Active; 'I' for Inactive)
REMARK    1  A    between atoms: C_2  and  C_3
REMARK    2  A    between atoms: C_3  and  C_4
REMARK    3  A    between atoms: C_4  and  C_5
REMARK    4  A    between atoms: C_5  and  C_6
REMARK    5  A    between atoms: C_6  and  C_7
REMARK    6  A    between atoms: C_7  and  C_8
REMARK    7  A    between atoms: C_8  and  C_9
REMARK    8  A    between atoms: C_12  and  C_13
REMARK    9  A    between atoms: C_13  and  C_14
REMARK   10  A    between atoms: C_14  and  C_15
REMARK   11  A    between atoms: C_15  and  C_17
REMARK   12  A    between atoms: C_15  and  C_19
REMARK                            x       y       z     vdW  Elec       q    Type
REMARK                         _______ _______ _______ _____ _____    ______ ____
ROOT
ATOM      1  C   UNL     1       1.260   5.683  -8.015  0.00  0.00    -0.022 A 
ATOM      2  C   UNL     1       1.846   6.888  -8.384  0.00  0.00    -0.005 A 
ATOM      3  C   UNL     1       3.193   6.972  -8.701  0.00  0.00    -0.005 A 
ATOM      4  C   UNL     1       3.992   5.844  -8.573  0.00  0.00    -0.022 A 
ATOM      5  C   UNL     1       3.475   4.822  -7.787  0.00  0.00    -0.005 A 
ATOM      6  C   UNL     1       2.105   4.644  -7.640  0.00  0.00    -0.005 A 
ENDROOT
BRANCH   4   7
ATOM      7  C   UNL     1       5.156   5.592  -9.480  0.00  0.00    +0.028 C 
BRANCH   7   8
ATOM      8  C   UNL     1       4.700   5.335 -10.890  0.00  0.00    +0.028 C 
BRANCH   8   9
ATOM      9  C   UNL     1       5.748   5.627 -11.924  0.00  0.00    +0.138 C 
ATOM     10  N   UNL     1       5.492   4.995 -13.198  0.00  0.00    -0.129 NA
BRANCH   9  11
ATOM     11  C   UNL     1       5.734   7.134 -12.154  0.00  0.00    +0.202 C 
ATOM     12  O   UNL     1       6.804   7.766 -11.550  0.00  0.00    -0.219 OA
ENDBRANCH   9  11
BRANCH   9  13
ATOM     13  C   UNL     1       7.153   5.296 -11.435  0.00  0.00    +0.202 C 
ATOM     14  O   UNL     1       7.850   4.568 -12.412  0.00  0.00    -0.219 OA
ENDBRANCH   9  13
ENDBRANCH   8   9
ENDBRANCH   7   8
ENDBRANCH   4   7
BRANCH   1  15
ATOM     15  C   UNL     1      -0.146   5.574  -7.579  0.00  0.00    +0.026 C 
BRANCH  15  16
ATOM     16  C   UNL     1      -0.247   5.212  -6.118  0.00  0.00    +0.005 C 
BRANCH  16  17
ATOM     17  C   UNL     1      -0.178   6.479  -5.294  0.00  0.00    +0.000 C 
BRANCH  17  18
ATOM     18  C   UNL     1       0.524   6.215  -3.974  0.00  0.00    +0.000 C 
BRANCH  18  19
ATOM     19  C   UNL     1       1.970   6.655  -4.124  0.00  0.00    +0.000 C 
BRANCH  19  20
ATOM     20  C   UNL     1       2.894   5.455  -4.112  0.00  0.00    +0.000 C 
BRANCH  20  22
ATOM     21  C   UNL     1       4.433   7.159  -5.049  0.00  0.00    +0.000 C 
ATOM     22  C   UNL     1       4.345   5.881  -4.245  0.00  0.00    +0.000 C 
ENDBRANCH  20  22
ENDBRANCH  19  20
ENDBRANCH  18  19
ENDBRANCH  17  18
ENDBRANCH  16  17
ENDBRANCH  15  16
ENDBRANCH   1  15
TORSDOF 12
ENDMDL
