MODEL 1
REMARK VINA RESULT:       4.3      0.000      0.000
REMARK  Name = 
REMARK  7 active torsions:
REMARK  status: ('A' for Active; 'I' for Inactive)
REMARK    1  A    between atoms: C_2  and  C_3
REMARK    2  A    between atoms: C_3  and  C_4
REMARK    3  A    between atoms: C_12  and  O_13
REMARK    4  A    between atoms: C_32  and  C_33
REMARK    5  A    between atoms: C_35  and  C_36
REMARK    6  A    between atoms: C_41  and  O_42
REMARK    7  A    between atoms: C_55  and  O_56
REMARK                            x       y       z     vdW  Elec       q    Type
REMARK                         _______ _______ _______ _____ _____    ______ ____
ROOT
ATOM      1  C   UNL     1       4.774   5.827  -4.486  0.00  0.00    +0.083 C 
ATOM      2  C   UNL     1       5.133   7.163  -3.669  0.00  0.00    +0.157 C 
ATOM      3  O   UNL     1       6.326   7.226  -3.372  0.00  0.00    -0.296 OA
ATOM      4  C   UNL     1       4.161   7.766  -2.795  0.00  0.00    +0.098 C 
ATOM      5  C   UNL     1       4.418   7.246  -1.259  0.00  0.00    +0.163 C 
ATOM      6  O   UNL     1       3.004   6.718  -1.151  0.00  0.00    -0.223 OA
ATOM      7  C   UNL     1       4.107   8.760  -0.543  0.00  0.00    +0.075 C 
ATOM      8  C   UNL     1       2.740   9.088  -1.303  0.00  0.00    +0.007 C 
ATOM      9  C   UNL     1       3.318   8.087   0.801  0.00  0.00    +0.189 C 
ATOM     10  O   UNL     1       3.093   9.423   1.504  0.00  0.00    -0.447 OA
ATOM     11  C   UNL     1       2.049   9.521   2.401  0.00  0.00    +0.335 C 
ATOM     12  O   UNL     1       1.892   8.889   3.479  0.00  0.00    -0.248 OA
ATOM     13  C   UNL     1       0.754   9.579   1.433  0.00  0.00    +0.175 C 
ATOM     14  N   UNL     1      -0.250   9.813   2.615  0.00  0.00    -0.265 N 
ATOM     15  C   UNL     1       0.106  10.584   3.749  0.00  0.00    +0.094 C 
ATOM     16  C   UNL     1       0.807  11.865   3.515  0.00  0.00    +0.022 C 
ATOM     17  C   UNL     1       1.605  11.844   2.262  0.00  0.00    +0.004 C 
ATOM     18  C   UNL     1      -1.619   9.708   2.271  0.00  0.00    +0.289 C 
ATOM     19  O   UNL     1      -2.440  10.355   2.975  0.00  0.00    -0.267 OA
ATOM     20  C   UNL     1      -1.933   8.888   1.128  0.00  0.00    +0.279 C 
ATOM     21  O   UNL     1      -3.200   8.922   0.922  0.00  0.00    -0.281 OA
ATOM     22  C   UNL     1      -1.132   7.831   0.537  0.00  0.00    +0.279 C 
ATOM     23  C   UNL     1      -2.154   6.607   1.026  0.00  0.00    +0.065 C 
ATOM     24  C   UNL     1      -1.963   5.500  -0.067  0.00  0.00    +0.038 C 
ATOM     25  C   UNL     1      -0.866   5.387  -1.188  0.00  0.00    +0.145 C 
ATOM     26  C   UNL     1      -0.386   7.033  -1.363  0.00  0.00    +0.172 C 
ATOM     27  C   UNL     1      -1.102   6.929  -2.924  0.00  0.00    +0.145 C 
ATOM     28  C   UNL     1       0.347   7.136  -3.654  0.00  0.00    +0.032 C 
ATOM     29  C   UNL     1       0.125   6.009  -4.816  0.00  0.00    +0.007 C 
ATOM     30  C   UNL     1       0.584   7.047  -5.985  0.00  0.00    +0.000 C 
ATOM     31  C   UNL     1       1.587   5.360  -4.569  0.00  0.00    +0.022 C 
ATOM     32  C   UNL     1       2.551   5.666  -5.576  0.00  0.00    -0.048 C 
ATOM     33  C   UNL     1       2.187   5.173  -6.946  0.00  0.00    +0.026 C 
ATOM     34  C   UNL     1      -1.157   5.815   2.081  0.00  0.00    +0.006 C 
ATOM     35  O   UNL     1      -0.051   7.302   0.896  0.00  0.00    -0.187 OA
ATOM     36  O   UNL     1      -1.595   7.687  -0.795  0.00  0.00    -0.324 OA
ATOM     37  C   UNL     1       0.874  11.200   1.181  0.00  0.00    +0.031 C 
ATOM     38  C   UNL     1       3.533   6.482  -5.286  0.00  0.00    -0.027 C 
ENDROOT
BRANCH   9  39
ATOM     39  C   UNL     1       4.725   7.786   1.531  0.00  0.00    -0.009 C 
ATOM     40  C   UNL     1       5.704   8.653   1.537  0.00  0.00    -0.031 C 
ATOM     41  C   UNL     1       4.594   6.874   2.718  0.00  0.00    +0.030 C 
BRANCH  40  42
ATOM     42  C   UNL     1       6.512   8.798   2.926  0.00  0.00    +0.024 C 
ATOM     43  C   UNL     1       7.974   8.436   2.284  0.00  0.00    +0.037 C 
ATOM     44  C   UNL     1       8.716   9.184   3.548  0.00  0.00    +0.146 C 
ATOM     45  C   UNL     1       9.212  10.569   2.654  0.00  0.00    +0.179 C 
ATOM     46  O   UNL     1       8.708  11.479   3.747  0.00  0.00    -0.221 OA
ATOM     47  C   UNL     1       7.807  10.707   1.824  0.00  0.00    +0.036 C 
ATOM     48  C   UNL     1       6.716  10.404   2.746  0.00  0.00    +0.007 C 
BRANCH  44  49
ATOM     49  O   UNL     1      10.027   8.494   3.296  0.00  0.00    -0.351 OA
ATOM     50  C   UNL     1       9.820   7.145   3.388  0.00  0.00    +0.174 C 
ENDBRANCH  44  49
ENDBRANCH  40  42
ENDBRANCH   9  39
BRANCH  27  51
ATOM     51  O   UNL     1      -1.426   8.396  -3.050  0.00  0.00    -0.351 OA
ATOM     52  C   UNL     1      -2.283   8.380  -4.150  0.00  0.00    +0.174 C 
ENDBRANCH  27  51
BRANCH  25  53
ATOM     53  O   UNL     1       0.281   5.011  -0.256  0.00  0.00    -0.351 OA
ATOM     54  C   UNL     1       1.211   4.346  -1.046  0.00  0.00    +0.174 C 
ENDBRANCH  25  53
BRANCH   1  55
ATOM     55  C   UNL     1       5.814   6.191  -5.700  0.00  0.00    +0.038 C 
BRANCH  55  57
ATOM     56  C   UNL     1       5.511   5.261  -7.647  0.00  0.00    -0.005 C 
ATOM     57  C   UNL     1       5.258   5.488  -6.870  0.00  0.00    -0.025 C 
ENDBRANCH  55  57
ENDBRANCH   1  55
TORSDOF 7
ENDMDL
