MODEL 1
REMARK VINA RESULT:      -9.4      0.000      0.000
REMARK  Name = 
REMARK  0 active torsions:
REMARK  status: ('A' for Active; 'I' for Inactive)
REMARK                            x       y       z     vdW  Elec       q    Type
REMARK                         _______ _______ _______ _____ _____    ______ ____
ROOT
ATOM      1  C   UNL     1       0.268   4.510 -10.218  0.00  0.00    -0.005 C 
ATOM      2  C   UNL     1       0.505   5.244  -9.189  0.00  0.00    -0.026 C 
ATOM      3  C   UNL     1       1.756   5.939  -9.013  0.00  0.00    -0.020 C 
ATOM      4  C   UNL     1       2.348   5.978  -7.659  0.00  0.00    +0.037 C 
ATOM      5  C   UNL     1       3.639   5.252  -7.710  0.00  0.00    -0.019 C 
ATOM      6  C   UNL     1       4.505   5.833  -8.548  0.00  0.00    +0.038 C 
ATOM      7  C   UNL     1       4.010   6.386  -9.816  0.00  0.00    +0.195 C 
ATOM      8  O   UNL     1       4.647   7.266 -10.469  0.00  0.00    -0.287 OA
ATOM      9  C   UNL     1       2.418   7.355  -7.178  0.00  0.00    +0.009 C 
ATOM     10  C   UNL     1       1.353   5.085  -6.718  0.00  0.00    +0.008 C 
ATOM     11  C   UNL     1       0.056   6.176  -6.909  0.00  0.00    +0.005 C 
ATOM     12  C   UNL     1      -0.905   5.237  -5.859  0.00  0.00    +0.007 C 
ATOM     13  C   UNL     1      -0.407   6.063  -4.535  0.00  0.00    +0.052 C 
ATOM     14  C   UNL     1       0.890   5.460  -4.264  0.00  0.00    +0.007 C 
ATOM     15  C   UNL     1      -0.512   7.496  -4.829  0.00  0.00    +0.007 C 
ATOM     16  C   UNL     1      -1.560   5.638  -3.721  0.00  0.00    +0.150 C 
ATOM     17  O   UNL     1      -1.670   4.850  -2.811  0.00  0.00    -0.296 OA
ATOM     18  C   UNL     1      -2.730   6.097  -4.546  0.00  0.00    +0.064 C 
ATOM     19  C   UNL     1      -2.191   6.253  -5.968  0.00  0.00    +0.008 C 
ATOM     20  C   UNL     1       1.859   5.820  -5.337  0.00  0.00    +0.001 C 
ATOM     21  C   UNL     1       2.579   6.135 -10.045  0.00  0.00    +0.038 C 
ATOM     22  C   UNL     1      -0.542   5.394  -8.182  0.00  0.00    +0.026 C 
ENDROOT
TORSDOF 0
ENDMDL
MODEL 2
REMARK VINA RESULT:      -9.2      1.269      5.701
REMARK  Name = 
REMARK  0 active torsions:
REMARK  status: ('A' for Active; 'I' for Inactive)
REMARK                            x       y       z     vdW  Elec       q    Type
REMARK                         _______ _______ _______ _____ _____    ______ ____
ROOT
ATOM      1  C   UNL     1      -2.403   6.400  -5.699  0.00  0.00    -0.005 C 
ATOM      2  C   UNL     1      -1.266   5.888  -6.010  0.00  0.00    -0.026 C 
ATOM      3  C   UNL     1      -0.298   5.503  -5.012  0.00  0.00    -0.020 C 
ATOM      4  C   UNL     1       1.128   5.784  -5.279  0.00  0.00    +0.037 C 
ATOM      5  C   UNL     1       1.598   6.749  -4.257  0.00  0.00    -0.019 C 
ATOM      6  C   UNL     1       1.508   6.248  -3.020  0.00  0.00    +0.038 C 
ATOM      7  C   UNL     1       0.342   5.428  -2.665  0.00  0.00    +0.195 C 
ATOM      8  O   UNL     1       0.353   4.616  -1.691  0.00  0.00    -0.287 OA
ATOM      9  C   UNL     1       1.883   4.536  -5.360  0.00  0.00    +0.009 C 
ATOM     10  C   UNL     1       1.162   6.574  -6.710  0.00  0.00    +0.008 C 
ATOM     11  C   UNL     1       0.578   5.220  -7.567  0.00  0.00    +0.005 C 
ATOM     12  C   UNL     1       0.706   6.078  -9.035  0.00  0.00    +0.007 C 
ATOM     13  C   UNL     1       2.244   5.573  -9.288  0.00  0.00    +0.052 C 
ATOM     14  C   UNL     1       3.008   6.467  -8.430  0.00  0.00    +0.007 C 
ATOM     15  C   UNL     1       2.287   4.123  -9.073  0.00  0.00    +0.007 C 
ATOM     16  C   UNL     1       2.200   5.860 -10.733  0.00  0.00    +0.150 C 
ATOM     17  O   UNL     1       2.698   6.730 -11.408  0.00  0.00    -0.296 OA
ATOM     18  C   UNL     1       1.017   5.052 -11.190  0.00  0.00    +0.064 C 
ATOM     19  C   UNL     1       0.178   4.810  -9.936  0.00  0.00    +0.008 C 
ATOM     20  C   UNL     1       2.728   6.167  -6.997  0.00  0.00    +0.001 C 
ATOM     21  C   UNL     1      -0.659   5.338  -3.739  0.00  0.00    +0.038 C 
ATOM     22  C   UNL     1      -0.961   5.669  -7.421  0.00  0.00    +0.026 C 
ENDROOT
TORSDOF 0
ENDMDL
MODEL 3
REMARK VINA RESULT:      -8.7      2.362      4.248
REMARK  Name = 
REMARK  0 active torsions:
REMARK  status: ('A' for Active; 'I' for Inactive)
REMARK                            x       y       z     vdW  Elec       q    Type
REMARK                         _______ _______ _______ _____ _____    ______ ____
ROOT
ATOM      1  C   UNL     1       4.823   7.176 -10.879  0.00  0.00    -0.005 C 
ATOM      2  C   UNL     1       3.991   6.515 -10.155  0.00  0.00    -0.026 C 
ATOM      3  C   UNL     1       2.777   5.955 -10.696  0.00  0.00    -0.020 C 
ATOM      4  C   UNL     1       1.548   6.033  -9.879  0.00  0.00    +0.037 C 
ATOM      5  C   UNL     1       0.574   6.880 -10.609  0.00  0.00    -0.019 C 
ATOM      6  C   UNL     1       0.242   6.350 -11.792  0.00  0.00    +0.038 C 
ATOM      7  C   UNL     1       1.282   5.697 -12.598  0.00  0.00    +0.195 C 
ATOM      8  O   UNL     1       1.009   4.856 -13.508  0.00  0.00    -0.287 OA
ATOM      9  C   UNL     1       1.083   4.693  -9.535  0.00  0.00    +0.009 C 
ATOM     10  C   UNL     1       1.964   6.865  -8.534  0.00  0.00    +0.008 C 
ATOM     11  C   UNL     1       3.034   5.644  -8.011  0.00  0.00    +0.005 C 
ATOM     12  C   UNL     1       3.370   6.529  -6.592  0.00  0.00    +0.007 C 
ATOM     13  C   UNL     1       2.151   5.814  -5.763  0.00  0.00    +0.052 C 
ATOM     14  C   UNL     1       0.986   6.553  -6.227  0.00  0.00    +0.007 C 
ATOM     15  C   UNL     1       2.245   4.367  -5.977  0.00  0.00    +0.007 C 
ATOM     16  C   UNL     1       2.719   6.159  -4.447  0.00  0.00    +0.150 C 
ATOM     17  O   UNL     1       2.403   6.972  -3.610  0.00  0.00    -0.296 OA
ATOM     18  C   UNL     1       4.092   5.552  -4.515  0.00  0.00    +0.064 C 
ATOM     19  C   UNL     1       4.394   5.388  -6.004  0.00  0.00    +0.008 C 
ATOM     20  C   UNL     1       0.718   6.243  -7.661  0.00  0.00    +0.001 C 
ATOM     21  C   UNL     1       2.627   5.796 -12.012  0.00  0.00    +0.038 C 
ATOM     22  C   UNL     1       4.304   6.307  -8.744  0.00  0.00    +0.026 C 
ENDROOT
TORSDOF 0
ENDMDL
MODEL 4
REMARK VINA RESULT:      -8.4      2.538      5.712
REMARK  Name = 
REMARK  0 active torsions:
REMARK  status: ('A' for Active; 'I' for Inactive)
REMARK                            x       y       z     vdW  Elec       q    Type
REMARK                         _______ _______ _______ _____ _____    ______ ____
ROOT
ATOM      1  C   UNL     1      -0.276   6.121  -2.239  0.00  0.00    -0.005 C 
ATOM      2  C   UNL     1       0.594   5.802  -3.130  0.00  0.00    -0.026 C 
ATOM      3  C   UNL     1       1.983   5.590  -2.807  0.00  0.00    -0.020 C 
ATOM      4  C   UNL     1       3.004   6.100  -3.746  0.00  0.00    +0.037 C 
ATOM      5  C   UNL     1       3.792   7.137  -3.037  0.00  0.00    -0.019 C 
ATOM      6  C   UNL     1       4.432   6.637  -1.974  0.00  0.00    +0.038 C 
ATOM      7  C   UNL     1       3.754   5.637  -1.138  0.00  0.00    +0.195 C 
ATOM      8  O   UNL     1       4.388   4.845  -0.376  0.00  0.00    -0.287 OA
ATOM      9  C   UNL     1       3.778   4.994  -4.303  0.00  0.00    +0.009 C 
ATOM     10  C   UNL     1       2.173   6.875  -4.921  0.00  0.00    +0.008 C 
ATOM     11  C   UNL     1       1.433   5.437  -5.461  0.00  0.00    +0.005 C 
ATOM     12  C   UNL     1       0.652   6.294  -6.713  0.00  0.00    +0.007 C 
ATOM     13  C   UNL     1       1.888   6.049  -7.760  0.00  0.00    +0.052 C 
ATOM     14  C   UNL     1       2.848   7.063  -7.347  0.00  0.00    +0.007 C 
ATOM     15  C   UNL     1       2.246   4.628  -7.714  0.00  0.00    +0.007 C 
ATOM     16  C   UNL     1       1.058   6.314  -8.948  0.00  0.00    +0.150 C 
ATOM     17  O   UNL     1       1.000   7.250  -9.711  0.00  0.00    -0.296 OA
ATOM     18  C   UNL     1      -0.059   5.319  -8.795  0.00  0.00    +0.064 C 
ATOM     19  C   UNL     1      -0.077   4.950  -7.311  0.00  0.00    +0.008 C 
ATOM     20  C   UNL     1       3.402   6.731  -6.004  0.00  0.00    +0.001 C 
ATOM     21  C   UNL     1       2.366   5.376  -1.547  0.00  0.00    +0.038 C 
ATOM     22  C   UNL     1       0.149   5.626  -4.510  0.00  0.00    +0.026 C 
ENDROOT
TORSDOF 0
ENDMDL
MODEL 5
REMARK VINA RESULT:      -8.4      3.080      6.079
REMARK  Name = 
REMARK  0 active torsions:
REMARK  status: ('A' for Active; 'I' for Inactive)
REMARK                            x       y       z     vdW  Elec       q    Type
REMARK                         _______ _______ _______ _____ _____    ______ ____
ROOT
ATOM      1  C   UNL     1       6.147   7.485  -4.025  0.00  0.00    -0.005 C 
ATOM      2  C   UNL     1       4.896   7.210  -4.136  0.00  0.00    -0.026 C 
ATOM      3  C   UNL     1       4.093   6.811  -3.007  0.00  0.00    -0.020 C 
ATOM      4  C   UNL     1       3.098   5.736  -3.203  0.00  0.00    +0.037 C 
ATOM      5  C   UNL     1       3.496   4.591  -2.349  0.00  0.00    -0.019 C 
ATOM      6  C   UNL     1       3.493   4.914  -1.050  0.00  0.00    +0.038 C 
ATOM      7  C   UNL     1       3.979   6.240  -0.643  0.00  0.00    +0.195 C 
ATOM      8  O   UNL     1       3.664   6.768   0.466  0.00  0.00    -0.287 OA
ATOM      9  C   UNL     1       1.749   6.248  -2.980  0.00  0.00    +0.009 C 
ATOM     10  C   UNL     1       3.283   5.242  -4.750  0.00  0.00    +0.008 C 
ATOM     11  C   UNL     1       2.772   6.744  -5.378  0.00  0.00    +0.005 C 
ATOM     12  C   UNL     1       2.915   6.142  -6.967  0.00  0.00    +0.007 C 
ATOM     13  C   UNL     1       1.367   5.608  -6.990  0.00  0.00    +0.052 C 
ATOM     14  C   UNL     1       1.462   4.354  -6.258  0.00  0.00    +0.007 C 
ATOM     15  C   UNL     1       0.507   6.690  -6.499  0.00  0.00    +0.007 C 
ATOM     16  C   UNL     1       1.307   5.556  -8.461  0.00  0.00    +0.150 C 
ATOM     17  O   UNL     1       1.314   4.637  -9.247  0.00  0.00    -0.296 OA
ATOM     18  C   UNL     1       1.665   6.963  -8.853  0.00  0.00    +0.064 C 
ATOM     19  C   UNL     1       2.405   7.547  -7.649  0.00  0.00    +0.008 C 
ATOM     20  C   UNL     1       1.764   4.617  -4.822  0.00  0.00    +0.001 C 
ATOM     21  C   UNL     1       4.510   7.037  -1.759  0.00  0.00    +0.038 C 
ATOM     22  C   UNL     1       4.268   7.333  -5.449  0.00  0.00    +0.026 C 
ENDROOT
TORSDOF 0
ENDMDL
MODEL 6
REMARK VINA RESULT:      -8.4      2.286      3.532
REMARK  Name = 
REMARK  0 active torsions:
REMARK  status: ('A' for Active; 'I' for Inactive)
REMARK                            x       y       z     vdW  Elec       q    Type
REMARK                         _______ _______ _______ _____ _____    ______ ____
ROOT
ATOM      1  C   UNL     1      -1.359   5.014  -6.754  0.00  0.00    -0.005 C 
ATOM      2  C   UNL     1      -0.181   5.490  -6.552  0.00  0.00    -0.026 C 
ATOM      3  C   UNL     1       0.715   5.807  -7.635  0.00  0.00    -0.020 C 
ATOM      4  C   UNL     1       2.147   5.479  -7.476  0.00  0.00    +0.037 C 
ATOM      5  C   UNL     1       2.496   4.467  -8.501  0.00  0.00    -0.019 C 
ATOM      6  C   UNL     1       2.324   4.936  -9.743  0.00  0.00    +0.038 C 
ATOM      7  C   UNL     1       1.163   5.791 -10.028  0.00  0.00    +0.195 C 
ATOM      8  O   UNL     1       1.124   6.575 -11.025  0.00  0.00    -0.287 OA
ATOM      9  C   UNL     1       2.951   6.697  -7.495  0.00  0.00    +0.009 C 
ATOM     10  C   UNL     1       2.268   4.728  -6.028  0.00  0.00    +0.008 C 
ATOM     11  C   UNL     1       1.807   6.128  -5.170  0.00  0.00    +0.005 C 
ATOM     12  C   UNL     1       2.023   5.308  -3.690  0.00  0.00    +0.007 C 
ATOM     13  C   UNL     1       3.594   5.758  -3.579  0.00  0.00    +0.052 C 
ATOM     14  C   UNL     1       4.251   4.811  -4.468  0.00  0.00    +0.007 C 
ATOM     15  C   UNL     1       3.673   7.199  -3.842  0.00  0.00    +0.007 C 
ATOM     16  C   UNL     1       3.658   5.515  -2.127  0.00  0.00    +0.150 C 
ATOM     17  O   UNL     1       4.177   4.645  -1.467  0.00  0.00    -0.296 OA
ATOM     18  C   UNL     1       2.547   6.381  -1.601  0.00  0.00    +0.064 C 
ATOM     19  C   UNL     1       1.618   6.620  -2.791  0.00  0.00    +0.008 C 
ATOM     20  C   UNL     1       3.867   5.081  -5.882  0.00  0.00    +0.001 C 
ATOM     21  C   UNL     1       0.257   5.951  -8.880  0.00  0.00    +0.038 C 
ATOM     22  C   UNL     1       0.246   5.736  -5.177  0.00  0.00    +0.026 C 
ENDROOT
TORSDOF 0
ENDMDL
MODEL 7
REMARK VINA RESULT:      -8.0      2.603      4.177
REMARK  Name = 
REMARK  0 active torsions:
REMARK  status: ('A' for Active; 'I' for Inactive)
REMARK                            x       y       z     vdW  Elec       q    Type
REMARK                         _______ _______ _______ _____ _____    ______ ____
ROOT
ATOM      1  C   UNL     1       5.486   5.925  -9.720  0.00  0.00    -0.005 C 
ATOM      2  C   UNL     1       4.503   5.687  -8.926  0.00  0.00    -0.026 C 
ATOM      3  C   UNL     1       3.153   5.517  -9.405  0.00  0.00    -0.020 C 
ATOM      4  C   UNL     1       2.054   6.116  -8.620  0.00  0.00    +0.037 C 
ATOM      5  C   UNL     1       1.406   7.148  -9.463  0.00  0.00    -0.019 C 
ATOM      6  C   UNL     1       0.873   6.623 -10.572  0.00  0.00    +0.038 C 
ATOM      7  C   UNL     1       1.597   5.556 -11.276  0.00  0.00    +0.195 C 
ATOM      8  O   UNL     1       1.021   4.754 -12.073  0.00  0.00    -0.287 OA
ATOM      9  C   UNL     1       1.168   5.072  -8.112  0.00  0.00    +0.009 C 
ATOM     10  C   UNL     1       2.775   6.913  -7.388  0.00  0.00    +0.008 C 
ATOM     11  C   UNL     1       3.378   5.473  -6.699  0.00  0.00    +0.005 C 
ATOM     12  C   UNL     1       4.044   6.358  -5.402  0.00  0.00    +0.007 C 
ATOM     13  C   UNL     1       2.683   6.217  -4.502  0.00  0.00    +0.052 C 
ATOM     14  C   UNL     1       1.828   7.248  -5.072  0.00  0.00    +0.007 C 
ATOM     15  C   UNL     1       2.266   4.811  -4.528  0.00  0.00    +0.007 C 
ATOM     16  C   UNL     1       3.378   6.505  -3.236  0.00  0.00    +0.150 C 
ATOM     17  O   UNL     1       3.389   7.475  -2.513  0.00  0.00    -0.296 OA
ATOM     18  C   UNL     1       4.456   5.458  -3.208  0.00  0.00    +0.064 C 
ATOM     19  C   UNL     1       4.633   5.016  -4.661  0.00  0.00    +0.008 C 
ATOM     20  C   UNL     1       1.422   6.874  -6.456  0.00  0.00    +0.001 C 
ATOM     21  C   UNL     1       2.913   5.257 -10.692  0.00  0.00    +0.038 C 
ATOM     22  C   UNL     1       4.773   5.561  -7.497  0.00  0.00    +0.026 C 
ENDROOT
TORSDOF 0
ENDMDL
MODEL 8
REMARK VINA RESULT:      -7.8      2.770      5.395
REMARK  Name = 
REMARK  0 active torsions:
REMARK  status: ('A' for Active; 'I' for Inactive)
REMARK                            x       y       z     vdW  Elec       q    Type
REMARK                         _______ _______ _______ _____ _____    ______ ____
ROOT
ATOM      1  C   UNL     1       7.990   5.844  -8.989  0.00  0.00    -0.005 C 
ATOM      2  C   UNL     1       6.799   5.584  -9.400  0.00  0.00    -0.026 C 
ATOM      3  C   UNL     1       6.471   5.503 -10.802  0.00  0.00    -0.020 C 
ATOM      4  C   UNL     1       5.188   6.083 -11.252  0.00  0.00    +0.037 C 
ATOM      5  C   UNL     1       5.497   7.200 -12.176  0.00  0.00    -0.019 C 
ATOM      6  C   UNL     1       6.156   6.781 -13.262  0.00  0.00    +0.038 C 
ATOM      7  C   UNL     1       7.186   5.743 -13.116  0.00  0.00    +0.195 C 
ATOM      8  O   UNL     1       7.572   5.026 -14.089  0.00  0.00    -0.287 OA
ATOM      9  C   UNL     1       4.324   5.038 -11.795  0.00  0.00    +0.009 C 
ATOM     10  C   UNL     1       4.517   6.756  -9.922  0.00  0.00    +0.008 C 
ATOM     11  C   UNL     1       4.331   5.247  -9.150  0.00  0.00    +0.005 C 
ATOM     12  C   UNL     1       3.571   6.005  -7.824  0.00  0.00    +0.007 C 
ATOM     13  C   UNL     1       2.081   5.849  -8.486  0.00  0.00    +0.052 C 
ATOM     14  C   UNL     1       2.047   6.952  -9.435  0.00  0.00    +0.007 C 
ATOM     15  C   UNL     1       1.934   4.466  -8.952  0.00  0.00    +0.007 C 
ATOM     16  C   UNL     1       1.388   6.014  -7.196  0.00  0.00    +0.150 C 
ATOM     17  O   UNL     1       0.749   6.925  -6.724  0.00  0.00    -0.296 OA
ATOM     18  C   UNL     1       1.998   4.927  -6.356  0.00  0.00    +0.064 C 
ATOM     19  C   UNL     1       3.329   4.589  -7.028  0.00  0.00    +0.008 C 
ATOM     20  C   UNL     1       3.000   6.699 -10.553  0.00  0.00    +0.001 C 
ATOM     21  C   UNL     1       7.427   5.350 -11.719  0.00  0.00    +0.038 C 
ATOM     22  C   UNL     1       5.756   5.341  -8.408  0.00  0.00    +0.026 C 
ENDROOT
TORSDOF 0
ENDMDL
MODEL 9
REMARK VINA RESULT:      -7.8      2.826      4.760
REMARK  Name = 
REMARK  0 active torsions:
REMARK  status: ('A' for Active; 'I' for Inactive)
REMARK                            x       y       z     vdW  Elec       q    Type
REMARK                         _______ _______ _______ _____ _____    ______ ____
ROOT
ATOM      1  C   UNL     1       2.460   4.853 -13.874  0.00  0.00    -0.005 C 
ATOM      2  C   UNL     1       2.913   5.485 -12.850  0.00  0.00    -0.026 C 
ATOM      3  C   UNL     1       4.180   6.172 -12.869  0.00  0.00    -0.020 C 
ATOM      4  C   UNL     1       5.040   6.085 -11.670  0.00  0.00    +0.037 C 
ATOM      5  C   UNL     1       6.285   5.380 -12.056  0.00  0.00    -0.019 C 
ATOM      6  C   UNL     1       6.965   6.049 -12.994  0.00  0.00    +0.038 C 
ATOM      7  C   UNL     1       6.224   6.717 -14.073  0.00  0.00    +0.195 C 
ATOM      8  O   UNL     1       6.722   7.664 -14.755  0.00  0.00    -0.287 OA
ATOM      9  C   UNL     1       5.222   7.409 -11.081  0.00  0.00    +0.009 C 
ATOM     10  C   UNL     1       4.252   5.094 -10.634  0.00  0.00    +0.008 C 
ATOM     11  C   UNL     1       2.955   6.186 -10.446  0.00  0.00    +0.005 C 
ATOM     12  C   UNL     1       2.222   5.140  -9.316  0.00  0.00    +0.007 C 
ATOM     13  C   UNL     1       2.991   5.838  -8.050  0.00  0.00    +0.052 C 
ATOM     14  C   UNL     1       4.310   5.224  -8.113  0.00  0.00    +0.007 C 
ATOM     15  C   UNL     1       2.843   7.291  -8.175  0.00  0.00    +0.007 C 
ATOM     16  C   UNL     1       2.027   5.324  -7.061  0.00  0.00    +0.150 C 
ATOM     17  O   UNL     1       2.099   4.450  -6.229  0.00  0.00    -0.296 OA
ATOM     18  C   UNL     1       0.717   5.849  -7.577  0.00  0.00    +0.064 C 
ATOM     19  C   UNL     1       0.952   6.149  -9.058  0.00  0.00    +0.008 C 
ATOM     20  C   UNL     1       5.040   5.697  -9.323  0.00  0.00    +0.001 C 
ATOM     21  C   UNL     1       4.774   6.476 -14.025  0.00  0.00    +0.038 C 
ATOM     22  C   UNL     1       2.099   5.525 -11.638  0.00  0.00    +0.026 C 
ENDROOT
TORSDOF 0
ENDMDL
