MODEL 1
REMARK VINA RESULT:      -3.1      0.000      0.000
REMARK  Name = 
REMARK  2 active torsions:
REMARK  status: ('A' for Active; 'I' for Inactive)
REMARK    1  A    between atoms: C_2  and  C_3
REMARK    2  A    between atoms: C_3  and  C_5
REMARK                            x       y       z     vdW  Elec       q    Type
REMARK                         _______ _______ _______ _____ _____    ______ ____
ROOT
ATOM      1  C   UNL     1       7.403   5.499 -10.824  0.00  0.00    +0.102 C 
ATOM      2  S   UNL     1       5.805   5.560 -11.855  0.00  0.00    -0.079 S 
ENDROOT
BRANCH   1   4
ATOM      3  O   UNL     1       7.816   4.713 -13.034  0.00  0.00    -0.219 OA
ATOM      4  C   UNL     1       8.365   5.495 -12.091  0.00  0.00    +0.195 C 
ENDBRANCH   1   4
BRANCH   1   5
ATOM      5  C   UNL     1       7.569   7.046 -10.531  0.00  0.00    +0.083 C 
ATOM      6  S   UNL     1       6.434   8.065 -11.401  0.00  0.00    -0.081 S 
ENDBRANCH   1   5
TORSDOF 2
ENDMDL
MODEL 2
REMARK VINA RESULT:      -3.0      1.627      1.657
REMARK  Name = 
REMARK  2 active torsions:
REMARK  status: ('A' for Active; 'I' for Inactive)
REMARK    1  A    between atoms: C_2  and  C_3
REMARK    2  A    between atoms: C_3  and  C_5
REMARK                            x       y       z     vdW  Elec       q    Type
REMARK                         _______ _______ _______ _____ _____    ______ ____
ROOT
ATOM      1  C   UNL     1       7.719   6.538 -11.379  0.00  0.00    +0.102 C 
ATOM      2  S   UNL     1       7.340   5.828  -9.655  0.00  0.00    -0.079 S 
ENDROOT
BRANCH   1   4
ATOM      3  O   UNL     1       7.781   4.588 -12.745  0.00  0.00    -0.219 OA
ATOM      4  C   UNL     1       6.902   5.415 -12.156  0.00  0.00    +0.195 C 
ENDBRANCH   1   4
BRANCH   1   5
ATOM      5  C   UNL     1       6.569   7.623 -11.460  0.00  0.00    +0.083 C 
ATOM      6  S   UNL     1       5.029   7.084 -10.812  0.00  0.00    -0.081 S 
ENDBRANCH   1   5
TORSDOF 2
ENDMDL
MODEL 3
REMARK VINA RESULT:      -3.0     11.631     12.032
REMARK  Name = 
REMARK  2 active torsions:
REMARK  status: ('A' for Active; 'I' for Inactive)
REMARK    1  A    between atoms: C_2  and  C_3
REMARK    2  A    between atoms: C_3  and  C_5
REMARK                            x       y       z     vdW  Elec       q    Type
REMARK                         _______ _______ _______ _____ _____    ______ ____
ROOT
ATOM      1  C   UNL     1      -1.645   5.895  -4.347  0.00  0.00    +0.102 C 
ATOM      2  S   UNL     1      -1.921   7.776  -4.280  0.00  0.00    -0.079 S 
ENDROOT
BRANCH   1   4
ATOM      3  O   UNL     1      -2.740   4.665  -2.626  0.00  0.00    -0.219 OA
ATOM      4  C   UNL     1      -3.007   5.545  -3.605  0.00  0.00    +0.195 C 
ENDBRANCH   1   4
BRANCH   1   5
ATOM      5  C   UNL     1      -2.205   5.613  -5.801  0.00  0.00    +0.083 C 
ATOM      6  S   UNL     1      -0.960   5.311  -7.002  0.00  0.00    -0.081 S 
ENDBRANCH   1   5
TORSDOF 2
ENDMDL
MODEL 4
REMARK VINA RESULT:      -2.9     11.665     12.025
REMARK  Name = 
REMARK  2 active torsions:
REMARK  status: ('A' for Active; 'I' for Inactive)
REMARK    1  A    between atoms: C_2  and  C_3
REMARK    2  A    between atoms: C_3  and  C_5
REMARK                            x       y       z     vdW  Elec       q    Type
REMARK                         _______ _______ _______ _____ _____    ______ ____
ROOT
ATOM      1  C   UNL     1      -2.121   6.371  -4.113  0.00  0.00    +0.102 C 
ATOM      2  S   UNL     1      -2.210   5.747  -5.908  0.00  0.00    -0.079 S 
ENDROOT
BRANCH   1   4
ATOM      3  O   UNL     1      -2.600   4.745  -2.440  0.00  0.00    -0.219 OA
ATOM      4  C   UNL     1      -3.130   5.276  -3.554  0.00  0.00    +0.195 C 
ENDBRANCH   1   4
BRANCH   1   5
ATOM      5  C   UNL     1      -0.816   5.605  -3.648  0.00  0.00    +0.083 C 
ATOM      6  S   UNL     1       0.370   5.373  -4.921  0.00  0.00    -0.081 S 
ENDBRANCH   1   5
TORSDOF 2
ENDMDL
MODEL 5
REMARK VINA RESULT:      -2.7     11.963     12.235
REMARK  Name = 
REMARK  2 active torsions:
REMARK  status: ('A' for Active; 'I' for Inactive)
REMARK    1  A    between atoms: C_2  and  C_3
REMARK    2  A    between atoms: C_3  and  C_5
REMARK                            x       y       z     vdW  Elec       q    Type
REMARK                         _______ _______ _______ _____ _____    ______ ____
ROOT
ATOM      1  C   UNL     1      -0.677   5.476  -3.290  0.00  0.00    +0.102 C 
ATOM      2  S   UNL     1      -0.837   6.367  -1.617  0.00  0.00    -0.079 S 
ENDROOT
BRANCH   1   4
ATOM      3  O   UNL     1      -2.825   4.714  -2.598  0.00  0.00    -0.219 OA
ATOM      4  C   UNL     1      -2.243   5.447  -3.563  0.00  0.00    +0.195 C 
ENDBRANCH   1   4
BRANCH   1   5
ATOM      5  C   UNL     1      -0.401   6.731  -4.215  0.00  0.00    +0.083 C 
ATOM      6  S   UNL     1      -1.818   7.722  -4.519  0.00  0.00    -0.081 S 
ENDBRANCH   1   5
TORSDOF 2
ENDMDL
MODEL 6
REMARK VINA RESULT:      -2.6      6.830      7.324
REMARK  Name = 
REMARK  2 active torsions:
REMARK  status: ('A' for Active; 'I' for Inactive)
REMARK    1  A    between atoms: C_2  and  C_3
REMARK    2  A    between atoms: C_3  and  C_5
REMARK                            x       y       z     vdW  Elec       q    Type
REMARK                         _______ _______ _______ _____ _____    ______ ____
ROOT
ATOM      1  C   UNL     1       3.030   6.855  -6.280  0.00  0.00    +0.102 C 
ATOM      2  S   UNL     1       3.853   5.712  -7.559  0.00  0.00    -0.079 S 
ENDROOT
BRANCH   1   4
ATOM      3  O   UNL     1       2.134   8.381  -7.874  0.00  0.00    -0.219 OA
ATOM      4  C   UNL     1       1.816   7.246  -7.230  0.00  0.00    +0.195 C 
ENDBRANCH   1   4
BRANCH   1   5
ATOM      5  C   UNL     1       2.219   5.769  -5.462  0.00  0.00    +0.083 C 
ATOM      6  S   UNL     1       2.097   4.212  -6.264  0.00  0.00    -0.081 S 
ENDBRANCH   1   5
TORSDOF 2
ENDMDL
MODEL 7
REMARK VINA RESULT:      -2.6     12.672     12.950
REMARK  Name = 
REMARK  2 active torsions:
REMARK  status: ('A' for Active; 'I' for Inactive)
REMARK    1  A    between atoms: C_2  and  C_3
REMARK    2  A    between atoms: C_3  and  C_5
REMARK                            x       y       z     vdW  Elec       q    Type
REMARK                         _______ _______ _______ _____ _____    ______ ____
ROOT
ATOM      1  C   UNL     1      -1.721   6.677  -3.188  0.00  0.00    +0.102 C 
ATOM      2  S   UNL     1      -0.149   5.816  -3.826  0.00  0.00    -0.079 S 
ENDROOT
BRANCH   1   4
ATOM      3  O   UNL     1      -2.804   4.628  -2.639  0.00  0.00    -0.219 OA
ATOM      4  C   UNL     1      -2.696   5.507  -3.648  0.00  0.00    +0.195 C 
ENDBRANCH   1   4
BRANCH   1   5
ATOM      5  C   UNL     1      -1.660   6.216  -1.674  0.00  0.00    +0.083 C 
ATOM      6  S   UNL     1      -1.685   7.541  -0.522  0.00  0.00    -0.081 S 
ENDBRANCH   1   5
TORSDOF 2
ENDMDL
MODEL 8
REMARK VINA RESULT:      -2.6      6.903      7.405
REMARK  Name = 
REMARK  2 active torsions:
REMARK  status: ('A' for Active; 'I' for Inactive)
REMARK    1  A    between atoms: C_2  and  C_3
REMARK    2  A    between atoms: C_3  and  C_5
REMARK                            x       y       z     vdW  Elec       q    Type
REMARK                         _______ _______ _______ _____ _____    ______ ____
ROOT
ATOM      1  C   UNL     1       1.245   6.165  -7.572  0.00  0.00    +0.102 C 
ATOM      2  S   UNL     1       0.560   6.603  -5.852  0.00  0.00    -0.079 S 
ENDROOT
BRANCH   1   4
ATOM      3  O   UNL     1       2.124   8.357  -7.879  0.00  0.00    -0.219 OA
ATOM      4  C   UNL     1       2.497   7.138  -7.457  0.00  0.00    +0.195 C 
ENDBRANCH   1   4
BRANCH   1   5
ATOM      5  C   UNL     1       2.052   4.857  -7.193  0.00  0.00    +0.083 C 
ATOM      6  S   UNL     1       2.726   4.006  -8.573  0.00  0.00    -0.081 S 
ENDBRANCH   1   5
TORSDOF 2
ENDMDL
MODEL 9
REMARK VINA RESULT:      -2.6     12.982     13.323
REMARK  Name = 
REMARK  2 active torsions:
REMARK  status: ('A' for Active; 'I' for Inactive)
REMARK    1  A    between atoms: C_2  and  C_3
REMARK    2  A    between atoms: C_3  and  C_5
REMARK                            x       y       z     vdW  Elec       q    Type
REMARK                         _______ _______ _______ _____ _____    ______ ____
ROOT
ATOM      1  C   UNL     1      -1.444   5.763  -1.068  0.00  0.00    +0.102 C 
ATOM      2  S   UNL     1      -1.623   7.569  -0.500  0.00  0.00    -0.079 S 
ENDROOT
BRANCH   1   4
ATOM      3  O   UNL     1      -2.790   4.636  -2.677  0.00  0.00    -0.219 OA
ATOM      4  C   UNL     1      -2.624   5.851  -2.130  0.00  0.00    +0.195 C 
ENDBRANCH   1   4
BRANCH   1   5
ATOM      5  C   UNL     1      -0.288   5.950  -2.133  0.00  0.00    +0.083 C 
ATOM      6  S   UNL     1       1.273   5.339  -1.609  0.00  0.00    -0.081 S 
ENDBRANCH   1   5
TORSDOF 2
ENDMDL
