MODEL 1
REMARK VINA RESULT:      -1.0      0.000      0.000
REMARK  Name = 
REMARK  7 active torsions:
REMARK  status: ('A' for Active; 'I' for Inactive)
REMARK    1  A    between atoms: C_2  and  N_3
REMARK    2  A    between atoms: N_3  and  C_4
REMARK    3  A    between atoms: N_3  and  C_6
REMARK    4  A    between atoms: C_6  and  C_7
REMARK    5  A    between atoms: C_7  and  S_8
REMARK    6  A    between atoms: S_8  and  C_11
REMARK    7  A    between atoms: C_41  and  C_42
REMARK                            x       y       z     vdW  Elec       q    Type
REMARK                         _______ _______ _______ _____ _____    ______ ____
ROOT
ATOM      1  C   UNL     1       0.383   4.405  -9.477  0.00  0.00    +0.160 C 
ATOM      2  C   UNL     1       1.041   4.915  -8.002  0.00  0.00    +0.197 C 
ATOM      3  N   UNL     1       1.213   6.405  -8.436  0.00  0.00    -0.265 N 
ATOM      4  C   UNL     1       2.590   6.821  -8.412  0.00  0.00    +0.270 C 
ATOM      5  C   UNL     1       3.568   6.247  -7.475  0.00  0.00    +0.175 A 
ATOM      6  N   UNL     1       3.330   5.036  -6.908  0.00  0.00    -0.207 NA
ATOM      7  C   UNL     1       3.910   5.049  -5.674  0.00  0.00    +0.213 A 
ATOM      8  C   UNL     1       3.132   4.570  -4.536  0.00  0.00    +0.150 C 
ATOM      9  C   UNL     1       3.714   4.769  -3.192  0.00  0.00    +0.163 C 
ATOM     10  C   UNL     1       3.236   3.900  -2.132  0.00  0.00    +0.102 C 
ATOM     11  C   UNL     1       2.185   4.641  -1.111  0.00  0.00    +0.181 C 
ATOM     12  C   UNL     1       1.785   5.752  -2.236  0.00  0.00    +0.002 C 
ATOM     13  C   UNL     1       2.081   6.913  -1.629  0.00  0.00    -0.024 C 
ATOM     14  C   UNL     1       1.284   7.036  -0.389  0.00  0.00    -0.007 C 
ATOM     15  C   UNL     1       0.244   6.171  -0.444  0.00  0.00    -0.003 C 
ATOM     16  C   UNL     1      -0.515   6.605  -1.600  0.00  0.00    +0.142 C 
ATOM     17  N   UNL     1      -1.542   5.853  -2.198  0.00  0.00    -0.197 NA
ATOM     18  C   UNL     1      -2.684   6.725  -2.367  0.00  0.00    +0.265 C 
ATOM     19  C   UNL     1      -2.270   7.943  -3.094  0.00  0.00    +0.055 C 
ATOM     20  C   UNL     1      -1.188   7.756  -3.874  0.00  0.00    -0.018 C 
ATOM     21  C   UNL     1      -1.439   6.402  -4.676  0.00  0.00    +0.062 C 
ATOM     22  C   UNL     1      -0.503   6.761  -6.070  0.00  0.00    +0.173 C 
ATOM     23  O   UNL     1      -0.022   5.308  -6.039  0.00  0.00    -0.451 OA
ATOM     24  C   UNL     1      -2.736   7.003  -5.451  0.00  0.00    +0.008 C 
ATOM     25  O   UNL     1      -3.760   6.623  -1.729  0.00  0.00    -0.268 OA
ATOM     26  C   UNL     1       3.005   7.946  -2.133  0.00  0.00    +0.031 C 
ATOM     27  O   UNL     1       1.127   3.603  -1.489  0.00  0.00    -0.218 OA
ATOM     28  O   UNL     1       4.916   5.045  -3.215  0.00  0.00    -0.295 OA
ATOM     29  O   UNL     1       4.997   5.760  -5.928  0.00  0.00    -0.435 OA
ATOM     30  C   UNL     1       4.689   6.698  -6.813  0.00  0.00    +0.205 A 
ATOM     31  O   UNL     1       2.826   8.033  -8.705  0.00  0.00    -0.268 OA
ATOM     32  C   UNL     1       0.054   6.795  -9.143  0.00  0.00    +0.096 C 
ATOM     33  C   UNL     1      -0.432   4.970  -7.347  0.00  0.00    +0.337 C 
ATOM     34  O   UNL     1      -1.059   3.864  -7.459  0.00  0.00    -0.248 OA
ATOM     35  C   UNL     1      -0.655   5.592  -9.612  0.00  0.00    +0.047 C 
ENDROOT
BRANCH   1  36
ATOM     36  S   UNL     1       1.605   4.957 -10.732  0.00  0.00    -0.008 S 
ATOM     37  O   UNL     1       1.340   3.892 -11.801  0.00  0.00    -0.173 OA
ATOM     38  O   UNL     1       2.983   4.649 -10.387  0.00  0.00    -0.173 OA
BRANCH  36  39
ATOM     39  C   UNL     1       1.233   6.409 -11.557  0.00  0.00    +0.168 C 
BRANCH  39  40
ATOM     40  C   UNL     1       0.815   6.303 -12.983  0.00  0.00    +0.098 C 
BRANCH  40  41
ATOM     41  N   UNL     1       1.790   6.713 -13.949  0.00  0.00    -0.271 NA
BRANCH  41  43
ATOM     42  C   UNL     1       0.904   7.498 -15.774  0.00  0.00    +0.019 C 
ATOM     43  C   UNL     1       1.249   7.214 -15.163  0.00  0.00    +0.072 C 
ENDBRANCH  41  43
BRANCH  41  44
ATOM     44  C   UNL     1       2.608   5.558 -14.317  0.00  0.00    +0.072 C 
ATOM     45  C   UNL     1       4.033   5.730 -13.905  0.00  0.00    +0.019 C 
ENDBRANCH  41  44
ENDBRANCH  40  41
ENDBRANCH  39  40
ENDBRANCH  36  39
ENDBRANCH   1  36
BRANCH  22  46
ATOM     46  C   UNL     1       0.734   7.413  -5.261  0.00  0.00    +0.041 C 
ATOM     47  C   UNL     1       1.278   6.520  -4.287  0.00  0.00    +0.004 C 
ATOM     48  C   UNL     1       1.160   8.658  -5.681  0.00  0.00    +0.004 C 
ENDBRANCH  22  46
TORSDOF 7
ENDMDL
MODEL 2
REMARK VINA RESULT:      -0.8      2.623      9.803
REMARK  Name = 
REMARK  7 active torsions:
REMARK  status: ('A' for Active; 'I' for Inactive)
REMARK    1  A    between atoms: C_2  and  N_3
REMARK    2  A    between atoms: N_3  and  C_4
REMARK    3  A    between atoms: N_3  and  C_6
REMARK    4  A    between atoms: C_6  and  C_7
REMARK    5  A    between atoms: C_7  and  S_8
REMARK    6  A    between atoms: S_8  and  C_11
REMARK    7  A    between atoms: C_41  and  C_42
REMARK                            x       y       z     vdW  Elec       q    Type
REMARK                         _______ _______ _______ _____ _____    ______ ____
ROOT
ATOM      1  C   UNL     1       4.315   4.330  -5.937  0.00  0.00    +0.160 C 
ATOM      2  C   UNL     1       3.538   4.803  -7.366  0.00  0.00    +0.197 C 
ATOM      3  N   UNL     1       3.411   6.305  -6.963  0.00  0.00    -0.265 N 
ATOM      4  C   UNL     1       2.039   6.731  -6.884  0.00  0.00    +0.270 C 
ATOM      5  C   UNL     1       0.982   6.138  -7.718  0.00  0.00    +0.175 A 
ATOM      6  N   UNL     1       1.166   4.909  -8.267  0.00  0.00    -0.207 NA
ATOM      7  C   UNL     1       0.484   4.891  -9.448  0.00  0.00    +0.213 A 
ATOM      8  C   UNL     1       1.162   4.374 -10.633  0.00  0.00    +0.150 C 
ATOM      9  C   UNL     1       0.470   4.539 -11.928  0.00  0.00    +0.163 C 
ATOM     10  C   UNL     1       0.853   3.636 -13.000  0.00  0.00    +0.102 C 
ATOM     11  C   UNL     1       1.818   4.339 -14.126  0.00  0.00    +0.181 C 
ATOM     12  C   UNL     1       2.317   5.480 -13.071  0.00  0.00    +0.002 C 
ATOM     13  C   UNL     1       1.977   6.625 -13.685  0.00  0.00    -0.024 C 
ATOM     14  C   UNL     1       2.668   6.706 -14.990  0.00  0.00    -0.007 C 
ATOM     15  C   UNL     1       3.704   5.835 -14.997  0.00  0.00    -0.003 C 
ATOM     16  C   UNL     1       4.560   6.297 -13.922  0.00  0.00    +0.142 C 
ATOM     17  N   UNL     1       5.630   5.554 -13.391  0.00  0.00    -0.197 NA
ATOM     18  C   UNL     1       6.786   6.422 -13.343  0.00  0.00    +0.265 C 
ATOM     19  C   UNL     1       6.441   7.663 -12.620  0.00  0.00    +0.055 C 
ATOM     20  C   UNL     1       5.427   7.507 -11.747  0.00  0.00    -0.018 C 
ATOM     21  C   UNL     1       5.738   6.175 -10.930  0.00  0.00    +0.062 C 
ATOM     22  C   UNL     1       4.923   6.581  -9.474  0.00  0.00    +0.173 C 
ATOM     23  O   UNL     1       4.434   5.131  -9.421  0.00  0.00    -0.451 OA
ATOM     24  C   UNL     1       7.099   6.788 -10.284  0.00  0.00    +0.008 C 
ATOM     25  O   UNL     1       7.805   6.294 -14.066  0.00  0.00    -0.268 OA
ATOM     26  C   UNL     1       1.105   7.678 -13.135  0.00  0.00    +0.031 C 
ATOM     27  O   UNL     1       2.899   3.305 -13.808  0.00  0.00    -0.218 OA
ATOM     28  O   UNL     1      -0.724   4.824 -11.814  0.00  0.00    -0.295 OA
ATOM     29  O   UNL     1      -0.573   5.617  -9.125  0.00  0.00    -0.435 OA
ATOM     30  C   UNL     1      -0.188   6.578  -8.297  0.00  0.00    +0.205 A 
ATOM     31  O   UNL     1       1.835   7.952  -6.607  0.00  0.00    -0.268 OA
ATOM     32  C   UNL     1       4.627   6.707  -6.367  0.00  0.00    +0.096 C 
ATOM     33  C   UNL     1       4.951   4.828  -8.143  0.00  0.00    +0.337 C 
ATOM     34  O   UNL     1       5.580   3.721  -8.051  0.00  0.00    -0.248 OA
ATOM     35  C   UNL     1       5.367   5.513  -5.924  0.00  0.00    +0.047 C 
ENDROOT
BRANCH   1  36
ATOM     36  S   UNL     1       3.205   4.927  -4.601  0.00  0.00    -0.008 S 
ATOM     37  O   UNL     1       3.557   3.894  -3.525  0.00  0.00    -0.173 OA
ATOM     38  O   UNL     1       1.802   4.616  -4.818  0.00  0.00    -0.173 OA
BRANCH  36  39
ATOM     39  C   UNL     1       3.650   6.401  -3.855  0.00  0.00    +0.168 C 
BRANCH  39  40
ATOM     40  C   UNL     1       2.739   6.947  -2.810  0.00  0.00    +0.098 C 
BRANCH  40  41
ATOM     41  N   UNL     1       2.746   6.255  -1.556  0.00  0.00    -0.271 NA
BRANCH  41  43
ATOM     42  C   UNL     1       0.844   5.308  -1.095  0.00  0.00    +0.019 C 
ATOM     43  C   UNL     1       1.514   5.638  -1.210  0.00  0.00    +0.072 C 
ENDBRANCH  41  43
BRANCH  41  44
ATOM     44  C   UNL     1       3.034   7.212  -0.487  0.00  0.00    +0.072 C 
ATOM     45  C   UNL     1       4.354   6.946   0.159  0.00  0.00    +0.019 C 
ENDBRANCH  41  44
ENDBRANCH  40  41
ENDBRANCH  39  40
ENDBRANCH  36  39
ENDBRANCH   1  36
BRANCH  22  46
ATOM     46  C   UNL     1       3.627   7.218 -10.195  0.00  0.00    +0.041 C 
ATOM     47  C   UNL     1       3.000   6.303 -11.096  0.00  0.00    +0.004 C 
ATOM     48  C   UNL     1       3.242   8.477  -9.774  0.00  0.00    +0.004 C 
ENDBRANCH  22  46
TORSDOF 7
ENDMDL
MODEL 3
REMARK VINA RESULT:      -0.3      3.093      6.437
REMARK  Name = 
REMARK  7 active torsions:
REMARK  status: ('A' for Active; 'I' for Inactive)
REMARK    1  A    between atoms: C_2  and  N_3
REMARK    2  A    between atoms: N_3  and  C_4
REMARK    3  A    between atoms: N_3  and  C_6
REMARK    4  A    between atoms: C_6  and  C_7
REMARK    5  A    between atoms: C_7  and  S_8
REMARK    6  A    between atoms: S_8  and  C_11
REMARK    7  A    between atoms: C_41  and  C_42
REMARK                            x       y       z     vdW  Elec       q    Type
REMARK                         _______ _______ _______ _____ _____    ______ ____
ROOT
ATOM      1  C   UNL     1       2.041   7.200  -5.708  0.00  0.00    +0.160 C 
ATOM      2  C   UNL     1       1.465   7.158  -4.116  0.00  0.00    +0.197 C 
ATOM      3  N   UNL     1       1.575   5.608  -3.971  0.00  0.00    -0.265 N 
ATOM      4  C   UNL     1       0.297   4.996  -3.724  0.00  0.00    +0.270 C 
ATOM      5  C   UNL     1      -0.784   5.691  -3.007  0.00  0.00    +0.175 A 
ATOM      6  N   UNL     1      -0.779   7.047  -2.931  0.00  0.00    -0.207 NA
ATOM      7  C   UNL     1      -1.365   7.385  -1.747  0.00  0.00    +0.213 A 
ATOM      8  C   UNL     1      -0.703   8.376  -0.903  0.00  0.00    +0.150 C 
ATOM      9  C   UNL     1      -1.258   8.583   0.451  0.00  0.00    +0.163 C 
ATOM     10  C   UNL     1      -0.963   9.850   1.097  0.00  0.00    +0.102 C 
ATOM     11  C   UNL     1       0.191   9.730   2.259  0.00  0.00    +0.181 C 
ATOM     12  C   UNL     1       0.804   8.372   1.593  0.00  0.00    +0.002 C 
ATOM     13  C   UNL     1       0.716   7.481   2.594  0.00  0.00    -0.024 C 
ATOM     14  C   UNL     1       1.504   7.963   3.749  0.00  0.00    -0.007 C 
ATOM     15  C   UNL     1       2.369   8.915   3.329  0.00  0.00    -0.003 C 
ATOM     16  C   UNL     1       3.212   8.228   2.371  0.00  0.00    +0.142 C 
ATOM     17  N   UNL     1       4.093   8.877   1.487  0.00  0.00    -0.197 NA
ATOM     18  C   UNL     1       5.376   8.218   1.584  0.00  0.00    +0.265 C 
ATOM     19  C   UNL     1       5.202   6.766   1.371  0.00  0.00    +0.055 C 
ATOM     20  C   UNL     1       4.116   6.462   0.635  0.00  0.00    -0.018 C 
ATOM     21  C   UNL     1       4.128   7.450  -0.615  0.00  0.00    +0.062 C 
ATOM     22  C   UNL     1       3.292   6.448  -1.732  0.00  0.00    +0.173 C 
ATOM     23  O   UNL     1       2.554   7.703  -2.204  0.00  0.00    -0.451 OA
ATOM     24  C   UNL     1       5.524   6.845  -1.189  0.00  0.00    +0.008 C 
ATOM     25  O   UNL     1       6.407   8.733   2.083  0.00  0.00    -0.268 OA
ATOM     26  C   UNL     1       0.004   6.191   2.548  0.00  0.00    +0.031 C 
ATOM     27  O   UNL     1       1.047  10.726   1.475  0.00  0.00    -0.218 OA
ATOM     28  O   UNL     1      -2.389   8.112   0.594  0.00  0.00    -0.295 OA
ATOM     29  O   UNL     1      -2.299   6.453  -1.667  0.00  0.00    -0.435 OA
ATOM     30  C   UNL     1      -1.813   5.325  -2.168  0.00  0.00    +0.205 A 
ATOM     31  O   UNL     1       0.290   3.739  -3.546  0.00  0.00    -0.268 OA
ATOM     32  C   UNL     1       2.796   5.196  -4.550  0.00  0.00    +0.096 C 
ATOM     33  C   UNL     1       2.914   7.606  -3.566  0.00  0.00    +0.337 C 
ATOM     34  O   UNL     1       3.330   8.685  -4.104  0.00  0.00    -0.248 OA
ATOM     35  C   UNL     1       3.280   6.248  -5.459  0.00  0.00    +0.047 C 
ENDROOT
BRANCH   1  36
ATOM     36  S   UNL     1       0.958   6.023  -6.610  0.00  0.00    -0.008 S 
ATOM     37  O   UNL     1       0.792   6.810  -7.915  0.00  0.00    -0.173 OA
ATOM     38  O   UNL     1      -0.416   6.004  -6.136  0.00  0.00    -0.173 OA
BRANCH  36  39
ATOM     39  C   UNL     1       1.699   4.576  -7.144  0.00  0.00    +0.168 C 
BRANCH  39  40
ATOM     40  C   UNL     1       2.008   4.456  -8.597  0.00  0.00    +0.098 C 
BRANCH  40  41
ATOM     41  N   UNL     1       3.117   5.233  -9.064  0.00  0.00    -0.271 NA
BRANCH  41  43
ATOM     42  C   UNL     1       2.931   5.900 -11.126  0.00  0.00    +0.019 C 
ATOM     43  C   UNL     1       3.028   5.639 -10.422  0.00  0.00    +0.072 C 
ENDBRANCH  41  43
BRANCH  41  44
ATOM     44  C   UNL     1       4.336   4.433  -8.959  0.00  0.00    +0.072 C 
ATOM     45  C   UNL     1       5.512   5.257  -8.551  0.00  0.00    +0.019 C 
ENDBRANCH  41  44
ENDBRANCH  40  41
ENDBRANCH  39  40
ENDBRANCH  36  39
ENDBRANCH   1  36
BRANCH  22  46
ATOM     46  C   UNL     1       2.184   5.932  -0.677  0.00  0.00    +0.041 C 
ATOM     47  C   UNL     1       1.389   6.999  -0.156  0.00  0.00    +0.004 C 
ATOM     48  C   UNL     1       2.078   4.564  -0.511  0.00  0.00    +0.004 C 
ENDBRANCH  22  46
TORSDOF 7
ENDMDL
MODEL 4
REMARK VINA RESULT:      -0.2      1.875      2.289
REMARK  Name = 
REMARK  7 active torsions:
REMARK  status: ('A' for Active; 'I' for Inactive)
REMARK    1  A    between atoms: C_2  and  N_3
REMARK    2  A    between atoms: N_3  and  C_4
REMARK    3  A    between atoms: N_3  and  C_6
REMARK    4  A    between atoms: C_6  and  C_7
REMARK    5  A    between atoms: C_7  and  S_8
REMARK    6  A    between atoms: S_8  and  C_11
REMARK    7  A    between atoms: C_41  and  C_42
REMARK                            x       y       z     vdW  Elec       q    Type
REMARK                         _______ _______ _______ _____ _____    ______ ____
ROOT
ATOM      1  C   UNL     1       2.531   4.161  -8.965  0.00  0.00    +0.160 C 
ATOM      2  C   UNL     1       2.563   4.794  -7.394  0.00  0.00    +0.197 C 
ATOM      3  N   UNL     1       2.480   6.286  -7.845  0.00  0.00    -0.265 N 
ATOM      4  C   UNL     1       3.635   7.040  -7.438  0.00  0.00    +0.270 C 
ATOM      5  C   UNL     1       4.395   6.718  -6.220  0.00  0.00    +0.175 A 
ATOM      6  N   UNL     1       4.307   5.475  -5.678  0.00  0.00    -0.207 NA
ATOM      7  C   UNL     1       4.464   5.612  -4.330  0.00  0.00    +0.213 A 
ATOM      8  C   UNL     1       3.524   4.928  -3.449  0.00  0.00    +0.150 C 
ATOM      9  C   UNL     1       3.603   5.243  -2.008  0.00  0.00    +0.163 C 
ATOM     10  C   UNL     1       3.060   4.260  -1.087  0.00  0.00    +0.102 C 
ATOM     11  C   UNL     1       1.599   4.686  -0.471  0.00  0.00    +0.181 C 
ATOM     12  C   UNL     1       1.294   5.680  -1.728  0.00  0.00    +0.002 C 
ATOM     13  C   UNL     1       1.092   6.866  -1.131  0.00  0.00    -0.024 C 
ATOM     14  C   UNL     1      -0.047   6.755  -0.194  0.00  0.00    -0.007 C 
ATOM     15  C   UNL     1      -0.770   5.655  -0.504  0.00  0.00    -0.003 C 
ATOM     16  C   UNL     1      -1.228   5.902  -1.857  0.00  0.00    +0.142 C 
ATOM     17  N   UNL     1      -1.804   4.924  -2.687  0.00  0.00    -0.197 NA
ATOM     18  C   UNL     1      -3.020   5.477  -3.240  0.00  0.00    +0.265 C 
ATOM     19  C   UNL     1      -2.724   6.775  -3.881  0.00  0.00    +0.055 C 
ATOM     20  C   UNL     1      -1.446   6.887  -4.292  0.00  0.00    -0.018 C 
ATOM     21  C   UNL     1      -1.096   5.529  -5.051  0.00  0.00    +0.062 C 
ATOM     22  C   UNL     1       0.097   6.144  -6.122  0.00  0.00    +0.173 C 
ATOM     23  O   UNL     1       0.893   4.862  -5.863  0.00  0.00    -0.451 OA
ATOM     24  C   UNL     1      -2.205   5.793  -6.211  0.00  0.00    +0.008 C 
ATOM     25  O   UNL     1      -4.178   5.090  -2.946  0.00  0.00    -0.268 OA
ATOM     26  C   UNL     1       1.836   8.110  -1.399  0.00  0.00    +0.031 C 
ATOM     27  O   UNL     1       1.000   3.419  -1.084  0.00  0.00    -0.218 OA
ATOM     28  O   UNL     1       4.646   5.818  -1.688  0.00  0.00    -0.295 OA
ATOM     29  O   UNL     1       5.363   6.583  -4.292  0.00  0.00    -0.435 OA
ATOM     30  C   UNL     1       5.113   7.428  -5.282  0.00  0.00    +0.205 A 
ATOM     31  O   UNL     1       3.638   8.277  -7.719  0.00  0.00    -0.268 OA
ATOM     32  C   UNL     1       1.530   6.380  -8.887  0.00  0.00    +0.096 C 
ATOM     33  C   UNL     1       0.997   4.456  -7.212  0.00  0.00    +0.337 C 
ATOM     34  O   UNL     1       0.730   3.229  -7.439  0.00  0.00    -0.248 OA
ATOM     35  C   UNL     1       1.321   5.045  -9.473  0.00  0.00    +0.047 C 
ENDROOT
BRANCH   1  36
ATOM     36  S   UNL     1       3.897   5.032  -9.830  0.00  0.00    -0.008 S 
ATOM     37  O   UNL     1       4.283   3.933 -10.825  0.00  0.00    -0.173 OA
ATOM     38  O   UNL     1       5.122   5.126  -9.053  0.00  0.00    -0.173 OA
BRANCH  36  39
ATOM     39  C   UNL     1       3.437   6.317 -10.861  0.00  0.00    +0.168 C 
BRANCH  39  40
ATOM     40  C   UNL     1       4.235   6.525 -12.102  0.00  0.00    +0.098 C 
BRANCH  40  41
ATOM     41  N   UNL     1       5.657   6.532 -11.933  0.00  0.00    -0.271 NA
BRANCH  41  43
ATOM     42  C   UNL     1       6.544   8.408 -11.281  0.00  0.00    +0.019 C 
ATOM     43  C   UNL     1       6.197   7.769 -11.488  0.00  0.00    +0.072 C 
ENDBRANCH  41  43
BRANCH  41  44
ATOM     44  C   UNL     1       6.291   6.254 -13.221  0.00  0.00    +0.072 C 
ATOM     45  C   UNL     1       7.522   5.423 -13.070  0.00  0.00    +0.019 C 
ENDBRANCH  41  44
ENDBRANCH  40  41
ENDBRANCH  39  40
ENDBRANCH  36  39
ENDBRANCH   1  36
BRANCH  22  46
ATOM     46  C   UNL     1       0.827   7.075  -5.022  0.00  0.00    +0.041 C 
ATOM     47  C   UNL     1       1.508   6.309  -4.026  0.00  0.00    +0.004 C 
ATOM     48  C   UNL     1       0.794   8.438  -5.246  0.00  0.00    +0.004 C 
ENDBRANCH  22  46
TORSDOF 7
ENDMDL
MODEL 5
REMARK VINA RESULT:       0.7      2.282      4.694
REMARK  Name = 
REMARK  7 active torsions:
REMARK  status: ('A' for Active; 'I' for Inactive)
REMARK    1  A    between atoms: C_2  and  N_3
REMARK    2  A    between atoms: N_3  and  C_4
REMARK    3  A    between atoms: N_3  and  C_6
REMARK    4  A    between atoms: C_6  and  C_7
REMARK    5  A    between atoms: C_7  and  S_8
REMARK    6  A    between atoms: S_8  and  C_11
REMARK    7  A    between atoms: C_41  and  C_42
REMARK                            x       y       z     vdW  Elec       q    Type
REMARK                         _______ _______ _______ _____ _____    ______ ____
ROOT
ATOM      1  C   UNL     1       2.304   7.505  -9.529  0.00  0.00    +0.160 C 
ATOM      2  C   UNL     1       1.608   6.892  -8.112  0.00  0.00    +0.197 C 
ATOM      3  N   UNL     1       2.386   5.540  -8.149  0.00  0.00    -0.265 N 
ATOM      4  C   UNL     1       1.502   4.410  -8.258  0.00  0.00    +0.270 C 
ATOM      5  C   UNL     1       0.140   4.419  -7.699  0.00  0.00    +0.175 A 
ATOM      6  N   UNL     1      -0.477   5.603  -7.448  0.00  0.00    -0.207 NA
ATOM      7  C   UNL     1      -1.302   5.407  -6.380  0.00  0.00    +0.213 A 
ATOM      8  C   UNL     1      -1.275   6.383  -5.295  0.00  0.00    +0.150 C 
ATOM      9  C   UNL     1      -2.035   6.050  -4.072  0.00  0.00    +0.163 C 
ATOM     10  C   UNL     1      -2.430   7.157  -3.219  0.00  0.00    +0.102 C 
ATOM     11  C   UNL     1      -1.509   7.293  -1.867  0.00  0.00    +0.181 C 
ATOM     12  C   UNL     1      -0.269   6.492  -2.560  0.00  0.00    +0.002 C 
ATOM     13  C   UNL     1      -0.074   5.459  -1.724  0.00  0.00    -0.024 C 
ATOM     14  C   UNL     1       0.254   5.974  -0.377  0.00  0.00    -0.007 C 
ATOM     15  C   UNL     1       0.642   7.266  -0.479  0.00  0.00    -0.003 C 
ATOM     16  C   UNL     1       1.821   7.215  -1.321  0.00  0.00    +0.142 C 
ATOM     17  N   UNL     1       2.421   8.343  -1.909  0.00  0.00    -0.197 NA
ATOM     18  C   UNL     1       3.839   8.281  -1.631  0.00  0.00    +0.265 C 
ATOM     19  C   UNL     1       4.368   6.970  -2.062  0.00  0.00    +0.055 C 
ATOM     20  C   UNL     1       3.642   6.399  -3.043  0.00  0.00    -0.018 C 
ATOM     21  C   UNL     1       3.370   7.538  -4.123  0.00  0.00    +0.062 C 
ATOM     22  C   UNL     1       3.230   6.535  -5.511  0.00  0.00    +0.173 C 
ATOM     23  O   UNL     1       2.073   7.432  -5.960  0.00  0.00    -0.451 OA
ATOM     24  C   UNL     1       4.950   7.710  -4.466  0.00  0.00    +0.008 C 
ATOM     25  O   UNL     1       4.451   9.064  -0.865  0.00  0.00    -0.268 OA
ATOM     26  C   UNL     1      -0.114   4.030  -2.085  0.00  0.00    +0.031 C 
ATOM     27  O   UNL     1      -1.100   8.697  -2.319  0.00  0.00    -0.218 OA
ATOM     28  O   UNL     1      -2.839   5.128  -4.231  0.00  0.00    -0.295 OA
ATOM     29  O   UNL     1      -1.716   4.174  -6.619  0.00  0.00    -0.435 OA
ATOM     30  C   UNL     1      -0.712   3.488  -7.149  0.00  0.00    +0.205 A 
ATOM     31  O   UNL     1       2.040   3.260  -8.249  0.00  0.00    -0.268 OA
ATOM     32  C   UNL     1       3.725   5.810  -8.509  0.00  0.00    +0.096 C 
ATOM     33  C   UNL     1       2.613   7.781  -7.217  0.00  0.00    +0.337 C 
ATOM     34  O   UNL     1       2.563   9.022  -7.512  0.00  0.00    -0.248 OA
ATOM     35  C   UNL     1       3.796   7.133  -9.152  0.00  0.00    +0.047 C 
ENDROOT
BRANCH   1  36
ATOM     36  S   UNL     1       1.998   6.199 -10.783  0.00  0.00    -0.008 S 
ATOM     37  O   UNL     1       1.653   7.096 -11.976  0.00  0.00    -0.173 OA
ATOM     38  O   UNL     1       0.737   5.497 -10.607  0.00  0.00    -0.173 OA
BRANCH  36  39
ATOM     39  C   UNL     1       3.376   5.354 -11.344  0.00  0.00    +0.168 C 
BRANCH  39  40
ATOM     40  C   UNL     1       3.972   5.790 -12.638  0.00  0.00    +0.098 C 
BRANCH  40  41
ATOM     41  N   UNL     1       5.333   6.231 -12.580  0.00  0.00    -0.271 NA
BRANCH  41  43
ATOM     42  C   UNL     1       6.530   5.836 -14.352  0.00  0.00    +0.019 C 
ATOM     43  C   UNL     1       6.085   5.997 -13.762  0.00  0.00    +0.072 C 
ENDBRANCH  41  43
BRANCH  41  44
ATOM     44  C   UNL     1       6.021   5.506 -11.512  0.00  0.00    +0.072 C 
ATOM     45  C   UNL     1       6.994   6.375 -10.784  0.00  0.00    +0.019 C 
ENDBRANCH  41  44
ENDBRANCH  40  41
ENDBRANCH  39  40
ENDBRANCH  36  39
ENDBRANCH   1  36
BRANCH  22  46
ATOM     46  C   UNL     1       2.347   5.392  -4.788  0.00  0.00    +0.041 C 
ATOM     47  C   UNL     1       1.021   5.835  -4.493  0.00  0.00    +0.004 C 
ATOM     48  C   UNL     1       2.933   4.148  -4.658  0.00  0.00    +0.004 C 
ENDBRANCH  22  46
TORSDOF 7
ENDMDL
