MODEL 1
REMARK VINA RESULT:     -10.7      0.000      0.000
REMARK  Name = 
REMARK  4 active torsions:
REMARK  status: ('A' for Active; 'I' for Inactive)
REMARK    1  A    between atoms: C_8  and  C_9
REMARK    2  A    between atoms: C_9  and  C_10
REMARK    3  A    between atoms: C_10  and  N_11
REMARK    4  A    between atoms: C_14  and  C_15
REMARK                            x       y       z     vdW  Elec       q    Type
REMARK                         _______ _______ _______ _____ _____    ______ ____
ROOT
ATOM      1  N   UNL     1       2.654   4.111  -8.547  0.00  0.00    -0.272 NA
ATOM      2  C   UNL     1       2.020   4.743  -9.702  0.00  0.00    +0.072 C 
ATOM      3  C   UNL     1       2.313   6.228  -9.574  0.00  0.00    +0.023 C 
ATOM      4  C   UNL     1       3.790   6.488  -9.477  0.00  0.00    +0.046 C 
ATOM      5  C   UNL     1       4.477   5.619  -8.450  0.00  0.00    +0.023 C 
ATOM      6  C   UNL     1       4.097   4.179  -8.776  0.00  0.00    +0.072 C 
ENDROOT
BRANCH   4   7
ATOM      7  C   UNL     1       4.405   6.135 -10.794  0.00  0.00    +0.100 A 
ATOM      8  C   UNL     1       5.764   6.053 -11.048  0.00  0.00    +0.054 A 
ATOM      9  C   UNL     1       5.856   5.450 -12.297  0.00  0.00    +0.179 A 
ATOM     10  C   UNL     1       7.027   5.616 -12.997  0.00  0.00    +0.070 A 
ATOM     11  C   UNL     1       8.154   6.119 -12.362  0.00  0.00    +0.143 A 
ATOM     12  C   UNL     1       8.053   6.833 -11.196  0.00  0.00    +0.030 A 
ATOM     13  F   UNL     1       9.367   5.765 -12.845  0.00  0.00    -0.204 F 
ATOM     14  O   UNL     1       4.641   5.241 -12.755  0.00  0.00    -0.354 OA
ATOM     15  C   UNL     1       6.841   6.745 -10.522  0.00  0.00    +0.007 A 
ATOM     16  N   UNL     1       3.777   5.760 -11.935  0.00  0.00    -0.081 NA
ENDBRANCH   4   7
BRANCH   1  17
ATOM     17  C   UNL     1       2.413   4.901  -7.363  0.00  0.00    +0.077 C 
BRANCH  17  18
ATOM     18  C   UNL     1       1.696   4.154  -6.276  0.00  0.00    +0.050 C 
BRANCH  18  21
ATOM     19  C   UNL     1       2.465   5.250  -3.778  0.00  0.00    +0.052 C 
ATOM     20  C   UNL     1       1.211   5.417  -4.183  0.00  0.00    +0.061 A 
ATOM     21  C   UNL     1       0.898   5.170  -5.516  0.00  0.00    +0.049 A 
ATOM     22  C   UNL     1      -0.426   5.344  -5.903  0.00  0.00    +0.259 A 
ATOM     23  O   UNL     1      -0.782   5.022  -7.075  0.00  0.00    -0.267 OA
ATOM     24  N   UNL     1      -1.340   5.740  -5.014  0.00  0.00    -0.282 N 
ATOM     25  C   UNL     1      -2.612   6.230  -5.531  0.00  0.00    +0.110 C 
ATOM     26  C   UNL     1      -2.743   7.630  -5.005  0.00  0.00    +0.028 C 
ATOM     27  C   UNL     1      -1.894   7.878  -3.852  0.00  0.00    +0.043 C 
ATOM     28  C   UNL     1      -2.029   6.596  -2.771  0.00  0.00    +0.208 C 
ATOM     29  O   UNL     1      -3.336   6.038  -3.399  0.00  0.00    -0.215 OA
ATOM     30  C   UNL     1      -1.081   5.622  -3.714  0.00  0.00    +0.153 A 
ATOM     31  N   UNL     1       0.216   5.823  -3.355  0.00  0.00    -0.234 NA
ENDBRANCH  18  21
ENDBRANCH  17  18
ENDBRANCH   1  17
TORSDOF 4
ENDMDL
MODEL 2
REMARK VINA RESULT:     -10.6      3.591      9.640
REMARK  Name = 
REMARK  4 active torsions:
REMARK  status: ('A' for Active; 'I' for Inactive)
REMARK    1  A    between atoms: C_8  and  C_9
REMARK    2  A    between atoms: C_9  and  C_10
REMARK    3  A    between atoms: C_10  and  N_11
REMARK    4  A    between atoms: C_14  and  C_15
REMARK                            x       y       z     vdW  Elec       q    Type
REMARK                         _______ _______ _______ _____ _____    ______ ____
ROOT
ATOM      1  N   UNL     1       2.167   4.075  -6.542  0.00  0.00    -0.272 NA
ATOM      2  C   UNL     1       2.816   4.346  -5.261  0.00  0.00    +0.072 C 
ATOM      3  C   UNL     1       2.860   5.859  -5.130  0.00  0.00    +0.023 C 
ATOM      4  C   UNL     1       1.487   6.458  -5.251  0.00  0.00    +0.046 C 
ATOM      5  C   UNL     1       0.724   5.952  -6.452  0.00  0.00    +0.023 C 
ATOM      6  C   UNL     1       0.757   4.429  -6.375  0.00  0.00    +0.072 C 
ENDROOT
BRANCH   4   7
ATOM      7  C   UNL     1       0.697   6.039  -4.053  0.00  0.00    +0.100 A 
ATOM      8  C   UNL     1      -0.653   6.280  -3.857  0.00  0.00    +0.054 A 
ATOM      9  C   UNL     1      -1.000   5.496  -2.763  0.00  0.00    +0.179 A 
ATOM     10  C   UNL     1      -2.140   5.835  -2.075  0.00  0.00    +0.070 A 
ATOM     11  C   UNL     1      -3.043   6.736  -2.623  0.00  0.00    +0.143 A 
ATOM     12  C   UNL     1      -2.666   7.605  -3.612  0.00  0.00    +0.030 A 
ATOM     13  F   UNL     1      -4.341   6.636  -2.256  0.00  0.00    -0.204 F 
ATOM     14  O   UNL     1       0.079   4.883  -2.325  0.00  0.00    -0.354 OA
ATOM     15  C   UNL     1      -1.467   7.325  -4.258  0.00  0.00    +0.007 A 
ATOM     16  N   UNL     1       1.111   5.297  -2.997  0.00  0.00    -0.081 NA
ENDBRANCH   4   7
BRANCH   1  17
ATOM     17  C   UNL     1       2.674   4.978  -7.549  0.00  0.00    +0.077 C 
BRANCH  17  18
ATOM     18  C   UNL     1       3.165   4.284  -8.787  0.00  0.00    +0.050 C 
BRANCH  18  21
ATOM     19  C   UNL     1       2.018   5.640 -10.995  0.00  0.00    +0.052 C 
ATOM     20  C   UNL     1       3.334   5.703 -10.827  0.00  0.00    +0.061 A 
ATOM     21  C   UNL     1       3.873   5.321  -9.604  0.00  0.00    +0.049 A 
ATOM     22  C   UNL     1       5.256   5.389  -9.466  0.00  0.00    +0.259 A 
ATOM     23  O   UNL     1       5.803   4.944  -8.414  0.00  0.00    -0.267 OA
ATOM     24  N   UNL     1       6.012   5.815 -10.481  0.00  0.00    -0.282 N 
ATOM     25  C   UNL     1       7.389   6.189 -10.182  0.00  0.00    +0.110 C 
ATOM     26  C   UNL     1       7.515   7.622 -10.611  0.00  0.00    +0.028 C 
ATOM     27  C   UNL     1       6.485   8.017 -11.556  0.00  0.00    +0.043 C 
ATOM     28  C   UNL     1       6.325   6.833 -12.740  0.00  0.00    +0.208 C 
ATOM     29  O   UNL     1       7.686   6.153 -12.422  0.00  0.00    -0.215 OA
ATOM     30  C   UNL     1       5.506   5.829 -11.712  0.00  0.00    +0.153 A 
ATOM     31  N   UNL     1       4.181   6.130 -11.797  0.00  0.00    -0.234 NA
ENDBRANCH  18  21
ENDBRANCH  17  18
ENDBRANCH   1  17
TORSDOF 4
ENDMDL
MODEL 3
REMARK VINA RESULT:      -9.9      1.994      3.302
REMARK  Name = 
REMARK  4 active torsions:
REMARK  status: ('A' for Active; 'I' for Inactive)
REMARK    1  A    between atoms: C_8  and  C_9
REMARK    2  A    between atoms: C_9  and  C_10
REMARK    3  A    between atoms: C_10  and  N_11
REMARK    4  A    between atoms: C_14  and  C_15
REMARK                            x       y       z     vdW  Elec       q    Type
REMARK                         _______ _______ _______ _____ _____    ______ ____
ROOT
ATOM      1  N   UNL     1       1.474   4.607  -9.072  0.00  0.00    -0.272 NA
ATOM      2  C   UNL     1       1.204   5.346 -10.303  0.00  0.00    +0.072 C 
ATOM      3  C   UNL     1       1.758   6.743 -10.078  0.00  0.00    +0.023 C 
ATOM      4  C   UNL     1       3.212   6.701  -9.705  0.00  0.00    +0.046 C 
ATOM      5  C   UNL     1       3.510   5.719  -8.596  0.00  0.00    +0.023 C 
ATOM      6  C   UNL     1       2.919   4.382  -9.031  0.00  0.00    +0.072 C 
ENDROOT
BRANCH   4   7
ATOM      7  C   UNL     1       3.978   6.223 -10.897  0.00  0.00    +0.100 A 
ATOM      8  C   UNL     1       5.352   6.055 -10.954  0.00  0.00    +0.054 A 
ATOM      9  C   UNL     1       5.577   5.359 -12.135  0.00  0.00    +0.179 A 
ATOM     10  C   UNL     1       6.839   5.415 -12.675  0.00  0.00    +0.070 A 
ATOM     11  C   UNL     1       7.897   5.907 -11.923  0.00  0.00    +0.143 A 
ATOM     12  C   UNL     1       7.682   6.708 -10.833  0.00  0.00    +0.030 A 
ATOM     13  F   UNL     1       9.142   5.458 -12.208  0.00  0.00    -0.204 F 
ATOM     14  O   UNL     1       4.425   5.178 -12.744  0.00  0.00    -0.354 OA
ATOM     15  C   UNL     1       6.386   6.730 -10.329  0.00  0.00    +0.007 A 
ATOM     16  N   UNL     1       3.490   5.798 -12.087  0.00  0.00    -0.081 NA
ENDBRANCH   4   7
BRANCH   1  17
ATOM     17  C   UNL     1       1.180   5.438  -7.928  0.00  0.00    +0.077 C 
BRANCH  17  18
ATOM     18  C   UNL     1       0.401   4.733  -6.856  0.00  0.00    +0.050 C 
BRANCH  18  21
ATOM     19  C   UNL     1      -0.657   6.841  -5.285  0.00  0.00    +0.052 C 
ATOM     20  C   UNL     1       0.565   6.399  -5.011  0.00  0.00    +0.061 A 
ATOM     21  C   UNL     1       0.974   5.182  -5.547  0.00  0.00    +0.049 A 
ATOM     22  C   UNL     1       2.264   4.755  -5.248  0.00  0.00    +0.259 A 
ATOM     23  O   UNL     1       2.722   3.714  -5.805  0.00  0.00    -0.267 OA
ATOM     24  N   UNL     1       3.054   5.498  -4.470  0.00  0.00    -0.282 N 
ATOM     25  C   UNL     1       4.243   4.860  -3.916  0.00  0.00    +0.110 C 
ATOM     26  C   UNL     1       4.104   4.983  -2.427  0.00  0.00    +0.028 C 
ATOM     27  C   UNL     1       3.176   6.029  -2.035  0.00  0.00    +0.043 C 
ATOM     28  C   UNL     1       3.484   7.418  -2.932  0.00  0.00    +0.208 C 
ATOM     29  O   UNL     1       4.895   6.960  -3.393  0.00  0.00    -0.215 OA
ATOM     30  C   UNL     1       2.763   6.782  -4.278  0.00  0.00    +0.153 A 
ATOM     31  N   UNL     1       1.436   7.080  -4.225  0.00  0.00    -0.234 NA
ENDBRANCH  18  21
ENDBRANCH  17  18
ENDBRANCH   1  17
TORSDOF 4
ENDMDL
MODEL 4
REMARK VINA RESULT:      -9.4      3.498      8.974
REMARK  Name = 
REMARK  4 active torsions:
REMARK  status: ('A' for Active; 'I' for Inactive)
REMARK    1  A    between atoms: C_8  and  C_9
REMARK    2  A    between atoms: C_9  and  C_10
REMARK    3  A    between atoms: C_10  and  N_11
REMARK    4  A    between atoms: C_14  and  C_15
REMARK                            x       y       z     vdW  Elec       q    Type
REMARK                         _______ _______ _______ _____ _____    ______ ____
ROOT
ATOM      1  N   UNL     1       2.186   4.183  -6.566  0.00  0.00    -0.272 NA
ATOM      2  C   UNL     1       3.334   4.569  -5.749  0.00  0.00    +0.072 C 
ATOM      3  C   UNL     1       3.402   6.085  -5.818  0.00  0.00    +0.023 C 
ATOM      4  C   UNL     1       2.109   6.711  -5.378  0.00  0.00    +0.046 C 
ATOM      5  C   UNL     1       0.899   6.103  -6.048  0.00  0.00    +0.023 C 
ATOM      6  C   UNL     1       0.993   4.597  -5.827  0.00  0.00    +0.072 C 
ENDROOT
BRANCH   4   7
ATOM      7  C   UNL     1       1.947   6.448  -3.915  0.00  0.00    +0.100 A 
ATOM      8  C   UNL     1       2.774   6.936  -2.916  0.00  0.00    +0.054 A 
ATOM      9  C   UNL     1       2.100   6.663  -1.732  0.00  0.00    +0.179 A 
ATOM     10  C   UNL     1       2.838   6.637  -0.573  0.00  0.00    +0.070 A 
ATOM     11  C   UNL     1       4.132   7.141  -0.559  0.00  0.00    +0.143 A 
ATOM     12  C   UNL     1       4.850   7.285  -1.717  0.00  0.00    +0.030 A 
ATOM     13  F   UNL     1       4.614   7.621   0.611  0.00  0.00    -0.204 F 
ATOM     14  O   UNL     1       0.988   6.022  -2.018  0.00  0.00    -0.354 OA
ATOM     15  C   UNL     1       4.128   7.223  -2.903  0.00  0.00    +0.007 A 
ATOM     16  N   UNL     1       0.950   5.774  -3.293  0.00  0.00    -0.081 NA
ENDBRANCH   4   7
BRANCH   1  17
ATOM     17  C   UNL     1       2.171   4.956  -7.786  0.00  0.00    +0.077 C 
BRANCH  17  18
ATOM     18  C   UNL     1       2.800   4.251  -8.952  0.00  0.00    +0.050 C 
BRANCH  18  21
ATOM     19  C   UNL     1       1.812   5.723 -11.163  0.00  0.00    +0.052 C 
ATOM     20  C   UNL     1       3.120   5.727 -10.934  0.00  0.00    +0.061 A 
ATOM     21  C   UNL     1       3.587   5.284  -9.701  0.00  0.00    +0.049 A 
ATOM     22  C   UNL     1       4.963   5.291  -9.499  0.00  0.00    +0.259 A 
ATOM     23  O   UNL     1       5.442   4.790  -8.439  0.00  0.00    -0.267 OA
ATOM     24  N   UNL     1       5.781   5.718 -10.464  0.00  0.00    -0.282 N 
ATOM     25  C   UNL     1       7.156   6.025 -10.091  0.00  0.00    +0.110 C 
ATOM     26  C   UNL     1       7.359   7.465 -10.465  0.00  0.00    +0.028 C 
ATOM     27  C   UNL     1       6.389   7.933 -11.440  0.00  0.00    +0.043 C 
ATOM     28  C   UNL     1       6.238   6.795 -12.670  0.00  0.00    +0.208 C 
ATOM     29  O   UNL     1       7.555   6.050 -12.315  0.00  0.00    -0.215 OA
ATOM     30  C   UNL     1       5.334   5.793 -11.715  0.00  0.00    +0.153 A 
ATOM     31  N   UNL     1       4.027   6.149 -11.849  0.00  0.00    -0.234 NA
ENDBRANCH  18  21
ENDBRANCH  17  18
ENDBRANCH   1  17
TORSDOF 4
ENDMDL
MODEL 5
REMARK VINA RESULT:      -9.1      2.914      3.556
REMARK  Name = 
REMARK  4 active torsions:
REMARK  status: ('A' for Active; 'I' for Inactive)
REMARK    1  A    between atoms: C_8  and  C_9
REMARK    2  A    between atoms: C_9  and  C_10
REMARK    3  A    between atoms: C_10  and  N_11
REMARK    4  A    between atoms: C_14  and  C_15
REMARK                            x       y       z     vdW  Elec       q    Type
REMARK                         _______ _______ _______ _____ _____    ______ ____
ROOT
ATOM      1  N   UNL     1       3.439   4.939  -7.214  0.00  0.00    -0.272 NA
ATOM      2  C   UNL     1       2.475   4.271  -8.085  0.00  0.00    +0.072 C 
ATOM      3  C   UNL     1       1.345   5.266  -8.293  0.00  0.00    +0.023 C 
ATOM      4  C   UNL     1       1.857   6.568  -8.842  0.00  0.00    +0.046 C 
ATOM      5  C   UNL     1       3.041   7.109  -8.074  0.00  0.00    +0.023 C 
ATOM      6  C   UNL     1       4.071   5.986  -8.018  0.00  0.00    +0.072 C 
ENDROOT
BRANCH   4   7
ATOM      7  C   UNL     1       2.346   6.318 -10.232  0.00  0.00    +0.100 A 
ATOM      8  C   UNL     1       1.563   5.893 -11.294  0.00  0.00    +0.054 A 
ATOM      9  C   UNL     1       2.367   6.054 -12.416  0.00  0.00    +0.179 A 
ATOM     10  C   UNL     1       2.038   5.336 -13.540  0.00  0.00    +0.070 A 
ATOM     11  C   UNL     1       0.803   4.708 -13.630  0.00  0.00    +0.143 A 
ATOM     12  C   UNL     1       0.067   4.426 -12.509  0.00  0.00    +0.030 A 
ATOM     13  F   UNL     1       0.279   4.510 -14.862  0.00  0.00    -0.204 F 
ATOM     14  O   UNL     1       3.545   6.493 -12.031  0.00  0.00    -0.354 OA
ATOM     15  C   UNL     1       0.445   5.079 -11.342  0.00  0.00    +0.007 A 
ATOM     16  N   UNL     1       3.588   6.529 -10.732  0.00  0.00    -0.081 NA
ENDBRANCH   4   7
BRANCH   1  17
ATOM     17  C   UNL     1       2.744   5.632  -6.155  0.00  0.00    +0.077 C 
BRANCH  17  18
ATOM     18  C   UNL     1       2.472   4.776  -4.952  0.00  0.00    +0.050 C 
BRANCH  18  21
ATOM     19  C   UNL     1       3.068   6.048  -2.490  0.00  0.00    +0.052 C 
ATOM     20  C   UNL     1       1.794   5.844  -2.805  0.00  0.00    +0.061 A 
ATOM     21  C   UNL     1       1.471   5.517  -4.118  0.00  0.00    +0.049 A 
ATOM     22  C   UNL     1       0.129   5.300  -4.411  0.00  0.00    +0.259 A 
ATOM     23  O   UNL     1      -0.201   4.888  -5.562  0.00  0.00    -0.267 OA
ATOM     24  N   UNL     1      -0.794   5.415  -3.453  0.00  0.00    -0.282 N 
ATOM     25  C   UNL     1      -2.187   5.515  -3.872  0.00  0.00    +0.110 C 
ATOM     26  C   UNL     1      -2.679   6.817  -3.310  0.00  0.00    +0.028 C 
ATOM     27  C   UNL     1      -1.859   7.301  -2.213  0.00  0.00    +0.043 C 
ATOM     28  C   UNL     1      -1.539   6.035  -1.152  0.00  0.00    +0.208 C 
ATOM     29  O   UNL     1      -2.671   5.122  -1.700  0.00  0.00    -0.215 OA
ATOM     30  C   UNL     1      -0.420   5.377  -2.177  0.00  0.00    +0.153 A 
ATOM     31  N   UNL     1       0.786   5.945  -1.903  0.00  0.00    -0.234 NA
ENDBRANCH  18  21
ENDBRANCH  17  18
ENDBRANCH   1  17
TORSDOF 4
ENDMDL
MODEL 6
REMARK VINA RESULT:      -9.0      2.594      3.619
REMARK  Name = 
REMARK  4 active torsions:
REMARK  status: ('A' for Active; 'I' for Inactive)
REMARK    1  A    between atoms: C_8  and  C_9
REMARK    2  A    between atoms: C_9  and  C_10
REMARK    3  A    between atoms: C_10  and  N_11
REMARK    4  A    between atoms: C_14  and  C_15
REMARK                            x       y       z     vdW  Elec       q    Type
REMARK                         _______ _______ _______ _____ _____    ______ ____
ROOT
ATOM      1  N   UNL     1       1.771   4.804  -7.747  0.00  0.00    -0.272 NA
ATOM      2  C   UNL     1       1.117   5.623  -8.766  0.00  0.00    +0.072 C 
ATOM      3  C   UNL     1       1.783   6.986  -8.693  0.00  0.00    +0.023 C 
ATOM      4  C   UNL     1       3.271   6.878  -8.869  0.00  0.00    +0.046 C 
ATOM      5  C   UNL     1       3.896   5.823  -7.987  0.00  0.00    +0.023 C 
ATOM      6  C   UNL     1       3.123   4.533  -8.239  0.00  0.00    +0.072 C 
ENDROOT
BRANCH   4   7
ATOM      7  C   UNL     1       3.535   6.448 -10.277  0.00  0.00    +0.100 A 
ATOM      8  C   UNL     1       4.773   6.090 -10.788  0.00  0.00    +0.054 A 
ATOM      9  C   UNL     1       4.496   5.522 -12.026  0.00  0.00    +0.179 A 
ATOM     10  C   UNL     1       5.520   5.462 -12.940  0.00  0.00    +0.070 A 
ATOM     11  C   UNL     1       6.828   5.695 -12.537  0.00  0.00    +0.143 A 
ATOM     12  C   UNL     1       7.104   6.375 -11.380  0.00  0.00    +0.030 A 
ATOM     13  F   UNL     1       7.824   5.109 -13.242  0.00  0.00    -0.204 F 
ATOM     14  O   UNL     1       3.200   5.590 -12.240  0.00  0.00    -0.354 OA
ATOM     15  C   UNL     1       6.052   6.522 -10.484  0.00  0.00    +0.007 A 
ATOM     16  N   UNL     1       2.638   6.252 -11.273  0.00  0.00    -0.081 NA
ENDBRANCH   4   7
BRANCH   1  17
ATOM     17  C   UNL     1       1.947   5.575  -6.539  0.00  0.00    +0.077 C 
BRANCH  17  18
ATOM     18  C   UNL     1       1.912   4.747  -5.287  0.00  0.00    +0.050 C 
BRANCH  18  21
ATOM     19  C   UNL     1       4.688   4.300  -4.937  0.00  0.00    +0.052 C 
ATOM     20  C   UNL     1       4.030   4.962  -3.992  0.00  0.00    +0.061 A 
ATOM     21  C   UNL     1       2.764   5.460  -4.281  0.00  0.00    +0.049 A 
ATOM     22  C   UNL     1       2.098   6.139  -3.265  0.00  0.00    +0.259 A 
ATOM     23  O   UNL     1       0.900   6.509  -3.441  0.00  0.00    -0.267 OA
ATOM     24  N   UNL     1       2.677   6.299  -2.073  0.00  0.00    -0.282 N 
ATOM     25  C   UNL     1       2.100   7.291  -1.174  0.00  0.00    +0.110 C 
ATOM     26  C   UNL     1       3.209   8.260  -0.885  0.00  0.00    +0.028 C 
ATOM     27  C   UNL     1       4.524   7.706  -1.157  0.00  0.00    +0.043 C 
ATOM     28  C   UNL     1       4.622   6.155  -0.513  0.00  0.00    +0.208 C 
ATOM     29  O   UNL     1       3.386   6.324   0.414  0.00  0.00    -0.215 OA
ATOM     30  C   UNL     1       3.704   5.523  -1.735  0.00  0.00    +0.153 A 
ATOM     31  N   UNL     1       4.539   5.181  -2.754  0.00  0.00    -0.234 NA
ENDBRANCH  18  21
ENDBRANCH  17  18
ENDBRANCH   1  17
TORSDOF 4
ENDMDL
MODEL 7
REMARK VINA RESULT:      -8.9      3.770      9.211
REMARK  Name = 
REMARK  4 active torsions:
REMARK  status: ('A' for Active; 'I' for Inactive)
REMARK    1  A    between atoms: C_8  and  C_9
REMARK    2  A    between atoms: C_9  and  C_10
REMARK    3  A    between atoms: C_10  and  N_11
REMARK    4  A    between atoms: C_14  and  C_15
REMARK                            x       y       z     vdW  Elec       q    Type
REMARK                         _______ _______ _______ _____ _____    ______ ____
ROOT
ATOM      1  N   UNL     1       3.306   6.207  -6.533  0.00  0.00    -0.272 NA
ATOM      2  C   UNL     1       2.204   7.138  -6.305  0.00  0.00    +0.072 C 
ATOM      3  C   UNL     1       0.976   6.485  -6.917  0.00  0.00    +0.023 C 
ATOM      4  C   UNL     1       0.741   5.117  -6.341  0.00  0.00    +0.046 C 
ATOM      5  C   UNL     1       1.980   4.253  -6.341  0.00  0.00    +0.023 C 
ATOM      6  C   UNL     1       3.072   5.063  -5.650  0.00  0.00    +0.072 C 
ENDROOT
BRANCH   4   7
ATOM      7  C   UNL     1       0.354   5.284  -4.907  0.00  0.00    +0.100 A 
ATOM      8  C   UNL     1      -0.907   5.637  -4.452  0.00  0.00    +0.054 A 
ATOM      9  C   UNL     1      -0.865   5.413  -3.080  0.00  0.00    +0.179 A 
ATOM     10  C   UNL     1      -1.797   6.058  -2.304  0.00  0.00    +0.070 A 
ATOM     11  C   UNL     1      -2.894   6.669  -2.895  0.00  0.00    +0.143 A 
ATOM     12  C   UNL     1      -2.886   7.014  -4.221  0.00  0.00    +0.030 A 
ATOM     13  F   UNL     1      -4.027   6.786  -2.164  0.00  0.00    -0.204 F 
ATOM     14  O   UNL     1       0.344   5.008  -2.756  0.00  0.00    -0.354 OA
ATOM     15  C   UNL     1      -1.892   6.437  -5.002  0.00  0.00    +0.007 A 
ATOM     16  N   UNL     1       1.109   5.053  -3.806  0.00  0.00    -0.081 NA
ENDBRANCH   4   7
BRANCH   1  17
ATOM     17  C   UNL     1       3.233   5.679  -7.875  0.00  0.00    +0.077 C 
BRANCH  17  18
ATOM     18  C   UNL     1       3.583   6.683  -8.936  0.00  0.00    +0.050 C 
BRANCH  18  21
ATOM     19  C   UNL     1       5.745   5.485 -10.323  0.00  0.00    +0.052 C 
ATOM     20  C   UNL     1       4.607   5.687 -10.977  0.00  0.00    +0.061 A 
ATOM     21  C   UNL     1       3.457   5.974 -10.250  0.00  0.00    +0.049 A 
ATOM     22  C   UNL     1       2.285   6.191 -10.968  0.00  0.00    +0.259 A 
ATOM     23  O   UNL     1       1.240   6.568 -10.361  0.00  0.00    -0.267 OA
ATOM     24  N   UNL     1       2.290   6.112 -12.301  0.00  0.00    -0.282 N 
ATOM     25  C   UNL     1       1.000   6.008 -12.973  0.00  0.00    +0.110 C 
ATOM     26  C   UNL     1       1.060   4.727 -13.753  0.00  0.00    +0.028 C 
ATOM     27  C   UNL     1       2.421   4.273 -13.983  0.00  0.00    +0.043 C 
ATOM     28  C   UNL     1       3.366   5.570 -14.488  0.00  0.00    +0.208 C 
ATOM     29  O   UNL     1       2.156   6.472 -14.858  0.00  0.00    -0.215 OA
ATOM     30  C   UNL     1       3.446   6.188 -12.956  0.00  0.00    +0.153 A 
ATOM     31  N   UNL     1       4.512   5.621 -12.329  0.00  0.00    -0.234 NA
ENDBRANCH  18  21
ENDBRANCH  17  18
ENDBRANCH   1  17
TORSDOF 4
ENDMDL
MODEL 8
REMARK VINA RESULT:      -8.7      4.420      9.698
REMARK  Name = 
REMARK  4 active torsions:
REMARK  status: ('A' for Active; 'I' for Inactive)
REMARK    1  A    between atoms: C_8  and  C_9
REMARK    2  A    between atoms: C_9  and  C_10
REMARK    3  A    between atoms: C_10  and  N_11
REMARK    4  A    between atoms: C_14  and  C_15
REMARK                            x       y       z     vdW  Elec       q    Type
REMARK                         _______ _______ _______ _____ _____    ______ ____
ROOT
ATOM      1  N   UNL     1       3.193   6.705  -5.731  0.00  0.00    -0.272 NA
ATOM      2  C   UNL     1       2.065   6.554  -4.815  0.00  0.00    +0.072 C 
ATOM      3  C   UNL     1       2.460   5.450  -3.849  0.00  0.00    +0.023 C 
ATOM      4  C   UNL     1       3.759   5.763  -3.162  0.00  0.00    +0.046 C 
ATOM      5  C   UNL     1       4.849   6.182  -4.120  0.00  0.00    +0.023 C 
ATOM      6  C   UNL     1       4.275   7.318  -4.960  0.00  0.00    +0.072 C 
ENDROOT
BRANCH   4   7
ATOM      7  C   UNL     1       3.530   6.934  -2.260  0.00  0.00    +0.100 A 
ATOM      8  C   UNL     1       2.710   6.937  -1.143  0.00  0.00    +0.054 A 
ATOM      9  C   UNL     1       3.010   8.124  -0.485  0.00  0.00    +0.179 A 
ATOM     10  C   UNL     1       2.081   8.610   0.403  0.00  0.00    +0.070 A 
ATOM     11  C   UNL     1       1.034   7.804   0.827  0.00  0.00    +0.143 A 
ATOM     12  C   UNL     1       0.647   6.705   0.106  0.00  0.00    +0.030 A 
ATOM     13  F   UNL     1       0.497   8.048   2.045  0.00  0.00    -0.204 F 
ATOM     14  O   UNL     1       3.902   8.784  -1.192  0.00  0.00    -0.354 OA
ATOM     15  C   UNL     1       1.540   6.255  -0.860  0.00  0.00    +0.007 A 
ATOM     16  N   UNL     1       4.120   8.153  -2.307  0.00  0.00    -0.081 NA
ENDBRANCH   4   7
BRANCH   1  17
ATOM     17  C   UNL     1       3.686   5.404  -6.119  0.00  0.00    +0.077 C 
BRANCH  17  18
ATOM     18  C   UNL     1       3.212   4.961  -7.473  0.00  0.00    +0.050 C 
BRANCH  18  21
ATOM     19  C   UNL     1       1.950   6.798  -9.224  0.00  0.00    +0.052 C 
ATOM     20  C   UNL     1       3.206   6.447  -9.474  0.00  0.00    +0.061 A 
ATOM     21  C   UNL     1       3.935   5.808  -8.476  0.00  0.00    +0.049 A 
ATOM     22  C   UNL     1       5.244   5.445  -8.775  0.00  0.00    +0.259 A 
ATOM     23  O   UNL     1       5.909   4.760  -7.942  0.00  0.00    -0.267 OA
ATOM     24  N   UNL     1       5.759   5.717  -9.977  0.00  0.00    -0.282 N 
ATOM     25  C   UNL     1       7.207   5.630 -10.122  0.00  0.00    +0.110 C 
ATOM     26  C   UNL     1       7.644   6.992 -10.577  0.00  0.00    +0.028 C 
ATOM     27  C   UNL     1       6.559   7.764 -11.156  0.00  0.00    +0.043 C 
ATOM     28  C   UNL     1       5.692   6.798 -12.226  0.00  0.00    +0.208 C 
ATOM     29  O   UNL     1       6.799   5.714 -12.343  0.00  0.00    -0.215 OA
ATOM     30  C   UNL     1       4.943   5.996 -10.989  0.00  0.00    +0.153 A 
ATOM     31  N   UNL     1       3.817   6.687 -10.661  0.00  0.00    -0.234 NA
ENDBRANCH  18  21
ENDBRANCH  17  18
ENDBRANCH   1  17
TORSDOF 4
ENDMDL
MODEL 9
REMARK VINA RESULT:      -8.7      1.366      2.074
REMARK  Name = 
REMARK  4 active torsions:
REMARK  status: ('A' for Active; 'I' for Inactive)
REMARK    1  A    between atoms: C_8  and  C_9
REMARK    2  A    between atoms: C_9  and  C_10
REMARK    3  A    between atoms: C_10  and  N_11
REMARK    4  A    between atoms: C_14  and  C_15
REMARK                            x       y       z     vdW  Elec       q    Type
REMARK                         _______ _______ _______ _____ _____    ______ ____
ROOT
ATOM      1  N   UNL     1       1.544   5.086  -8.466  0.00  0.00    -0.272 NA
ATOM      2  C   UNL     1       1.464   6.272  -9.316  0.00  0.00    +0.072 C 
ATOM      3  C   UNL     1       2.478   7.255  -8.753  0.00  0.00    +0.023 C 
ATOM      4  C   UNL     1       3.851   6.647  -8.690  0.00  0.00    +0.046 C 
ATOM      5  C   UNL     1       3.866   5.284  -8.039  0.00  0.00    +0.023 C 
ATOM      6  C   UNL     1       2.824   4.444  -8.769  0.00  0.00    +0.072 C 
ENDROOT
BRANCH   4   7
ATOM      7  C   UNL     1       4.325   6.440 -10.093  0.00  0.00    +0.100 A 
ATOM      8  C   UNL     1       5.614   6.088 -10.461  0.00  0.00    +0.054 A 
ATOM      9  C   UNL     1       5.521   5.755 -11.807  0.00  0.00    +0.179 A 
ATOM     10  C   UNL     1       6.678   5.777 -12.547  0.00  0.00    +0.070 A 
ATOM     11  C   UNL     1       7.911   5.850 -11.913  0.00  0.00    +0.143 A 
ATOM     12  C   UNL     1       8.021   6.307 -10.626  0.00  0.00    +0.030 A 
ATOM     13  F   UNL     1       8.984   5.322 -12.546  0.00  0.00    -0.204 F 
ATOM     14  O   UNL     1       4.282   5.945 -12.204  0.00  0.00    -0.354 OA
ATOM     15  C   UNL     1       6.842   6.375  -9.892  0.00  0.00    +0.007 A 
ATOM     16  N   UNL     1       3.596   6.474 -11.235  0.00  0.00    -0.081 NA
ENDBRANCH   4   7
BRANCH   1  17
ATOM     17  C   UNL     1       1.630   5.482  -7.080  0.00  0.00    +0.077 C 
BRANCH  17  18
ATOM     18  C   UNL     1       1.294   4.380  -6.117  0.00  0.00    +0.050 C 
BRANCH  18  21
ATOM     19  C   UNL     1      -1.227   4.881  -7.313  0.00  0.00    +0.052 C 
ATOM     20  C   UNL     1      -1.012   5.323  -6.079  0.00  0.00    +0.061 A 
ATOM     21  C   UNL     1       0.075   4.827  -5.368  0.00  0.00    +0.049 A 
ATOM     22  C   UNL     1       0.277   5.320  -4.083  0.00  0.00    +0.259 A 
ATOM     23  O   UNL     1       1.316   4.987  -3.440  0.00  0.00    -0.267 OA
ATOM     24  N   UNL     1      -0.560   6.227  -3.573  0.00  0.00    -0.282 N 
ATOM     25  C   UNL     1      -0.511   6.451  -2.133  0.00  0.00    +0.110 C 
ATOM     26  C   UNL     1      -1.896   6.153  -1.636  0.00  0.00    +0.028 C 
ATOM     27  C   UNL     1      -2.894   6.209  -2.690  0.00  0.00    +0.043 C 
ATOM     28  C   UNL     1      -2.652   7.590  -3.619  0.00  0.00    +0.208 C 
ATOM     29  O   UNL     1      -1.748   8.292  -2.568  0.00  0.00    -0.215 OA
ATOM     30  C   UNL     1      -1.352   6.918  -4.389  0.00  0.00    +0.153 A 
ATOM     31  N   UNL     1      -1.811   6.237  -5.474  0.00  0.00    -0.234 NA
ENDBRANCH  18  21
ENDBRANCH  17  18
ENDBRANCH   1  17
TORSDOF 4
ENDMDL
