MODEL 1
REMARK VINA RESULT:      -8.4      0.000      0.000
REMARK  Name = 
REMARK  2 active torsions:
REMARK  status: ('A' for Active; 'I' for Inactive)
REMARK    1  A    between atoms: C_5  and  C_6
REMARK    2  A    between atoms: C_15  and  N_16
REMARK                            x       y       z     vdW  Elec       q    Type
REMARK                         _______ _______ _______ _____ _____    ______ ____
ROOT
ATOM      1  O   UNL     1       2.466   6.503 -15.381  0.00  0.00    -0.271 OA
ATOM      2  C   UNL     1       2.516   6.049 -14.198  0.00  0.00    +0.270 C 
ATOM      3  N   UNL     1       1.410   6.328 -13.331  0.00  0.00    -0.177 NA
ATOM      4  C   UNL     1       1.522   6.266 -11.903  0.00  0.00    +0.075 A 
ATOM      5  C   UNL     1       2.630   6.018 -11.097  0.00  0.00    +0.039 A 
ATOM      6  C   UNL     1       2.641   6.512  -9.796  0.00  0.00    +0.078 A 
ATOM      7  C   UNL     1       1.406   6.854  -9.260  0.00  0.00    +0.290 A 
ATOM      8  C   UNL     1       0.246   6.438  -9.903  0.00  0.00    +0.077 A 
ATOM      9  C   UNL     1       3.996   5.825 -11.598  0.00  0.00    +0.079 C 
ATOM     10  N   UNL     1       4.303   5.289 -12.719  0.00  0.00    -0.260 NA
ATOM     11  C   UNL     1       0.285   6.407 -11.289  0.00  0.00    +0.023 A 
ATOM     12  C   UNL     1       3.608   5.058 -13.955  0.00  0.00    +0.212 C 
ENDROOT
BRANCH   9  13
ATOM     13  C   UNL     1       5.090   6.412 -10.812  0.00  0.00    +0.028 A 
ATOM     14  C   UNL     1       5.644   5.644  -9.822  0.00  0.00    +0.059 A 
ATOM     15 CL   UNL     1       4.766   4.297  -9.134  0.00  0.00    -0.082 Cl
ATOM     16  C   UNL     1       6.951   5.856  -9.415  0.00  0.00    +0.011 A 
ATOM     17  C   UNL     1       7.655   6.937  -9.920  0.00  0.00    +0.001 A 
ATOM     18  C   UNL     1       7.264   7.399 -11.169  0.00  0.00    +0.000 A 
ATOM     19  C   UNL     1       5.913   7.319 -11.468  0.00  0.00    +0.002 A 
ENDBRANCH   9  13
BRANCH   7  20
ATOM     20  N   UNL     1       1.366   7.209  -7.873  0.00  0.00    +0.081 N 
ATOM     21  O   UNL     1       2.088   8.342  -7.540  0.00  0.00    -0.576 OA
ATOM     22  O   UNL     1       1.260   6.276  -7.039  0.00  0.00    +0.041 OA
ENDBRANCH   7  20
TORSDOF 2
ENDMDL
MODEL 2
REMARK VINA RESULT:      -8.1      6.536      8.870
REMARK  Name = 
REMARK  2 active torsions:
REMARK  status: ('A' for Active; 'I' for Inactive)
REMARK    1  A    between atoms: C_5  and  C_6
REMARK    2  A    between atoms: C_15  and  N_16
REMARK                            x       y       z     vdW  Elec       q    Type
REMARK                         _______ _______ _______ _____ _____    ______ ____
ROOT
ATOM      1  O   UNL     1       5.005   4.649  -4.498  0.00  0.00    -0.271 OA
ATOM      2  C   UNL     1       4.063   5.391  -4.086  0.00  0.00    +0.270 C 
ATOM      3  N   UNL     1       3.475   5.077  -2.818  0.00  0.00    -0.177 NA
ATOM      4  C   UNL     1       2.168   5.533  -2.446  0.00  0.00    +0.075 A 
ATOM      5  C   UNL     1       1.225   6.253  -3.174  0.00  0.00    +0.039 A 
ATOM      6  C   UNL     1      -0.120   6.132  -2.840  0.00  0.00    +0.078 A 
ATOM      7  C   UNL     1      -0.394   5.640  -1.569  0.00  0.00    +0.290 A 
ATOM      8  C   UNL     1       0.629   5.569  -0.632  0.00  0.00    +0.077 A 
ATOM      9  C   UNL     1       1.384   6.647  -4.579  0.00  0.00    +0.079 C 
ATOM     10  N   UNL     1       2.495   6.934  -5.145  0.00  0.00    -0.260 NA
ATOM     11  C   UNL     1       1.889   5.249  -1.115  0.00  0.00    +0.023 A 
ATOM     12  C   UNL     1       3.876   6.653  -4.864  0.00  0.00    +0.212 C 
ENDROOT
BRANCH   9  13
ATOM     13  C   UNL     1       0.192   6.579  -5.436  0.00  0.00    +0.028 A 
ATOM     14  C   UNL     1      -0.134   5.363  -5.975  0.00  0.00    +0.059 A 
ATOM     15 CL   UNL     1       1.066   4.100  -6.131  0.00  0.00    -0.082 Cl
ATOM     16  C   UNL     1      -1.445   5.072  -6.316  0.00  0.00    +0.011 A 
ATOM     17  C   UNL     1      -2.406   6.067  -6.235  0.00  0.00    +0.001 A 
ATOM     18  C   UNL     1      -2.166   7.084  -5.322  0.00  0.00    +0.000 A 
ATOM     19  C   UNL     1      -0.843   7.455  -5.136  0.00  0.00    +0.002 A 
ENDBRANCH   9  13
BRANCH   7  20
ATOM     20  N   UNL     1      -1.759   5.659  -1.136  0.00  0.00    +0.081 N 
ATOM     21  O   UNL     1      -2.634   4.942  -1.934  0.00  0.00    -0.576 OA
ATOM     22  O   UNL     1      -2.166   6.689  -0.544  0.00  0.00    +0.041 OA
ENDBRANCH   7  20
TORSDOF 2
ENDMDL
MODEL 3
REMARK VINA RESULT:      -8.1      5.202      6.569
REMARK  Name = 
REMARK  2 active torsions:
REMARK  status: ('A' for Active; 'I' for Inactive)
REMARK    1  A    between atoms: C_5  and  C_6
REMARK    2  A    between atoms: C_15  and  N_16
REMARK                            x       y       z     vdW  Elec       q    Type
REMARK                         _______ _______ _______ _____ _____    ______ ____
ROOT
ATOM      1  O   UNL     1       2.259   4.434  -9.031  0.00  0.00    -0.271 OA
ATOM      2  C   UNL     1       1.725   4.518  -7.884  0.00  0.00    +0.270 C 
ATOM      3  N   UNL     1       0.379   5.005  -7.811  0.00  0.00    -0.177 NA
ATOM      4  C   UNL     1      -0.173   5.550  -6.605  0.00  0.00    +0.075 A 
ATOM      5  C   UNL     1       0.420   5.781  -5.367  0.00  0.00    +0.039 A 
ATOM      6  C   UNL     1      -0.109   6.765  -4.538  0.00  0.00    +0.078 A 
ATOM      7  C   UNL     1      -1.413   7.159  -4.811  0.00  0.00    +0.290 A 
ATOM      8  C   UNL     1      -2.192   6.389  -5.667  0.00  0.00    +0.077 A 
ATOM      9  C   UNL     1       1.840   5.550  -5.069  0.00  0.00    +0.079 C 
ATOM     10  N   UNL     1       2.566   4.638  -5.595  0.00  0.00    -0.260 NA
ATOM     11  C   UNL     1      -1.534   5.794  -6.733  0.00  0.00    +0.023 A 
ATOM     12  C   UNL     1       2.487   3.843  -6.789  0.00  0.00    +0.212 C 
ENDROOT
BRANCH   9  13
ATOM     13  C   UNL     1       2.512   6.526  -4.201  0.00  0.00    +0.028 A 
ATOM     14  C   UNL     1       2.646   6.209  -2.875  0.00  0.00    +0.059 A 
ATOM     15 CL   UNL     1       1.604   5.020  -2.126  0.00  0.00    -0.082 Cl
ATOM     16  C   UNL     1       3.676   6.752  -2.122  0.00  0.00    +0.011 A 
ATOM     17  C   UNL     1       4.491   7.721  -2.682  0.00  0.00    +0.001 A 
ATOM     18  C   UNL     1       4.618   7.698  -4.064  0.00  0.00    +0.000 A 
ATOM     19  C   UNL     1       3.502   7.306  -4.786  0.00  0.00    +0.002 A 
ENDBRANCH   9  13
BRANCH   7  20
ATOM     20  N   UNL     1      -2.041   8.047  -3.880  0.00  0.00    +0.081 N 
ATOM     21  O   UNL     1      -1.938   9.391  -4.195  0.00  0.00    -0.576 OA
ATOM     22  O   UNL     1      -2.072   7.696  -2.674  0.00  0.00    +0.041 OA
ENDBRANCH   7  20
TORSDOF 2
ENDMDL
MODEL 4
REMARK VINA RESULT:      -7.9      5.374      8.997
REMARK  Name = 
REMARK  2 active torsions:
REMARK  status: ('A' for Active; 'I' for Inactive)
REMARK    1  A    between atoms: C_5  and  C_6
REMARK    2  A    between atoms: C_15  and  N_16
REMARK                            x       y       z     vdW  Elec       q    Type
REMARK                         _______ _______ _______ _____ _____    ______ ____
ROOT
ATOM      1  O   UNL     1       1.998   6.321  -0.131  0.00  0.00    -0.271 OA
ATOM      2  C   UNL     1       1.947   5.926  -1.335  0.00  0.00    +0.270 C 
ATOM      3  N   UNL     1       3.074   6.206  -2.175  0.00  0.00    -0.177 NA
ATOM      4  C   UNL     1       2.978   6.215  -3.606  0.00  0.00    +0.075 A 
ATOM      5  C   UNL     1       1.874   6.046  -4.436  0.00  0.00    +0.039 A 
ATOM      6  C   UNL     1       1.898   6.601  -5.711  0.00  0.00    +0.078 A 
ATOM      7  C   UNL     1       3.152   6.923  -6.216  0.00  0.00    +0.290 A 
ATOM      8  C   UNL     1       4.287   6.435  -5.580  0.00  0.00    +0.077 A 
ATOM      9  C   UNL     1       0.495   5.878  -3.960  0.00  0.00    +0.079 C 
ATOM     10  N   UNL     1       0.154   5.302  -2.870  0.00  0.00    -0.260 NA
ATOM     11  C   UNL     1       4.229   6.340  -4.198  0.00  0.00    +0.023 A 
ATOM     12  C   UNL     1       0.823   4.988  -1.638  0.00  0.00    +0.212 C 
ENDROOT
BRANCH   9  13
ATOM     13  C   UNL     1      -0.566   6.541  -4.730  0.00  0.00    +0.028 A 
ATOM     14  C   UNL     1      -1.174   5.821  -5.725  0.00  0.00    +0.059 A 
ATOM     15 CL   UNL     1      -0.385   4.432  -6.437  0.00  0.00    -0.082 Cl
ATOM     16  C   UNL     1      -2.469   6.118  -6.119  0.00  0.00    +0.011 A 
ATOM     17  C   UNL     1      -3.101   7.234  -5.595  0.00  0.00    +0.001 A 
ATOM     18  C   UNL     1      -2.673   7.655  -4.344  0.00  0.00    +0.000 A 
ATOM     19  C   UNL     1      -1.328   7.489  -4.057  0.00  0.00    +0.002 A 
ENDBRANCH   9  13
BRANCH   7  20
ATOM     20  N   UNL     1       3.223   7.341  -7.584  0.00  0.00    +0.081 N 
ATOM     21  O   UNL     1       2.268   8.270  -7.960  0.00  0.00    -0.576 OA
ATOM     22  O   UNL     1       3.638   6.506  -8.425  0.00  0.00    +0.041 OA
ENDBRANCH   7  20
TORSDOF 2
ENDMDL
MODEL 5
REMARK VINA RESULT:      -7.9      2.039      2.541
REMARK  Name = 
REMARK  2 active torsions:
REMARK  status: ('A' for Active; 'I' for Inactive)
REMARK    1  A    between atoms: C_5  and  C_6
REMARK    2  A    between atoms: C_15  and  N_16
REMARK                            x       y       z     vdW  Elec       q    Type
REMARK                         _______ _______ _______ _____ _____    ______ ____
ROOT
ATOM      1  O   UNL     1       0.311   7.055 -12.339  0.00  0.00    -0.271 OA
ATOM      2  C   UNL     1       0.996   6.504 -11.425  0.00  0.00    +0.270 C 
ATOM      3  N   UNL     1       0.552   6.664 -10.072  0.00  0.00    -0.177 NA
ATOM      4  C   UNL     1       1.428   6.484  -8.952  0.00  0.00    +0.075 A 
ATOM      5  C   UNL     1       2.793   6.212  -8.911  0.00  0.00    +0.039 A 
ATOM      6  C   UNL     1       3.523   6.593  -7.790  0.00  0.00    +0.078 A 
ATOM      7  C   UNL     1       2.790   6.839  -6.636  0.00  0.00    +0.290 A 
ATOM      8  C   UNL     1       1.462   6.433  -6.574  0.00  0.00    +0.077 A 
ATOM      9  C   UNL     1       3.657   6.117 -10.095  0.00  0.00    +0.079 C 
ATOM     10  N   UNL     1       3.291   5.692 -11.245  0.00  0.00    -0.260 NA
ATOM     11  C   UNL     1       0.733   6.522  -7.751  0.00  0.00    +0.023 A 
ATOM     12  C   UNL     1       2.029   5.541 -11.914  0.00  0.00    +0.212 C 
ENDROOT
BRANCH   9  13
ATOM     13  C   UNL     1       5.010   6.678  -9.985  0.00  0.00    +0.028 A 
ATOM     14  C   UNL     1       6.001   5.859  -9.509  0.00  0.00    +0.059 A 
ATOM     15 CL   UNL     1       5.614   4.447  -8.552  0.00  0.00    -0.082 Cl
ATOM     16  C   UNL     1       7.323   6.077  -9.859  0.00  0.00    +0.011 A 
ATOM     17  C   UNL     1       7.658   7.207 -10.586  0.00  0.00    +0.001 A 
ATOM     18  C   UNL     1       6.661   7.743 -11.389  0.00  0.00    +0.000 A 
ATOM     19  C   UNL     1       5.362   7.648 -10.916  0.00  0.00    +0.002 A 
ENDBRANCH   9  13
BRANCH   7  20
ATOM     20  N   UNL     1       3.523   7.072  -5.428  0.00  0.00    +0.081 N 
ATOM     21  O   UNL     1       4.755   6.444  -5.363  0.00  0.00    -0.576 OA
ATOM     22  O   UNL     1       2.862   7.248  -4.374  0.00  0.00    +0.041 OA
ENDBRANCH   7  20
TORSDOF 2
ENDMDL
MODEL 6
REMARK VINA RESULT:      -7.8      4.440      5.652
REMARK  Name = 
REMARK  2 active torsions:
REMARK  status: ('A' for Active; 'I' for Inactive)
REMARK    1  A    between atoms: C_5  and  C_6
REMARK    2  A    between atoms: C_15  and  N_16
REMARK                            x       y       z     vdW  Elec       q    Type
REMARK                         _______ _______ _______ _____ _____    ______ ____
ROOT
ATOM      1  O   UNL     1       1.118   5.562 -10.603  0.00  0.00    -0.271 OA
ATOM      2  C   UNL     1       1.038   5.075  -9.435  0.00  0.00    +0.270 C 
ATOM      3  N   UNL     1      -0.132   5.379  -8.666  0.00  0.00    -0.177 NA
ATOM      4  C   UNL     1      -0.157   5.272  -7.236  0.00  0.00    +0.075 A 
ATOM      5  C   UNL     1       0.858   4.954  -6.339  0.00  0.00    +0.039 A 
ATOM      6  C   UNL     1       0.767   5.411  -5.028  0.00  0.00    +0.078 A 
ATOM      7  C   UNL     1      -0.498   5.792  -4.599  0.00  0.00    +0.290 A 
ATOM      8  C   UNL     1      -1.608   5.445  -5.359  0.00  0.00    +0.077 A 
ATOM      9  C   UNL     1       2.256   4.714  -6.717  0.00  0.00    +0.079 C 
ATOM     10  N   UNL     1       2.645   4.197  -7.821  0.00  0.00    -0.260 NA
ATOM     11  C   UNL     1      -1.441   5.450  -6.736  0.00  0.00    +0.023 A 
ATOM     12  C   UNL     1       2.061   4.031  -9.123  0.00  0.00    +0.212 C 
ENDROOT
BRANCH   9  13
ATOM     13  C   UNL     1       3.294   5.231  -5.816  0.00  0.00    +0.028 A 
ATOM     14  C   UNL     1       3.446   6.590  -5.734  0.00  0.00    +0.059 A 
ATOM     15 CL   UNL     1       2.871   7.635  -7.014  0.00  0.00    -0.082 Cl
ATOM     16  C   UNL     1       3.968   7.173  -4.590  0.00  0.00    +0.011 A 
ATOM     17  C   UNL     1       4.462   6.365  -3.579  0.00  0.00    +0.001 A 
ATOM     18  C   UNL     1       3.922   5.090  -3.489  0.00  0.00    +0.000 A 
ATOM     19  C   UNL     1       3.567   4.478  -4.680  0.00  0.00    +0.002 A 
ENDBRANCH   9  13
BRANCH   7  20
ATOM     20  N   UNL     1      -0.653   6.110  -3.211  0.00  0.00    +0.081 N 
ATOM     21  O   UNL     1      -0.436   5.055  -2.343  0.00  0.00    -0.576 OA
ATOM     22  O   UNL     1      -1.491   6.996  -2.909  0.00  0.00    +0.041 OA
ENDBRANCH   7  20
TORSDOF 2
ENDMDL
MODEL 7
REMARK VINA RESULT:      -7.8      4.328      6.866
REMARK  Name = 
REMARK  2 active torsions:
REMARK  status: ('A' for Active; 'I' for Inactive)
REMARK    1  A    between atoms: C_5  and  C_6
REMARK    2  A    between atoms: C_15  and  N_16
REMARK                            x       y       z     vdW  Elec       q    Type
REMARK                         _______ _______ _______ _____ _____    ______ ____
ROOT
ATOM      1  O   UNL     1       4.630   6.367  -1.866  0.00  0.00    -0.271 OA
ATOM      2  C   UNL     1       3.842   6.737  -2.788  0.00  0.00    +0.270 C 
ATOM      3  N   UNL     1       2.458   6.387  -2.661  0.00  0.00    -0.177 NA
ATOM      4  C   UNL     1       1.571   6.351  -3.787  0.00  0.00    +0.075 A 
ATOM      5  C   UNL     1       1.826   6.552  -5.141  0.00  0.00    +0.039 A 
ATOM      6  C   UNL     1       0.982   5.969  -6.080  0.00  0.00    +0.078 A 
ATOM      7  C   UNL     1      -0.270   5.578  -5.619  0.00  0.00    +0.290 A 
ATOM      8  C   UNL     1      -0.710   6.027  -4.380  0.00  0.00    +0.077 A 
ATOM      9  C   UNL     1       3.158   6.793  -5.709  0.00  0.00    +0.079 C 
ATOM     10  N   UNL     1       4.113   7.408  -5.119  0.00  0.00    -0.260 NA
ATOM     11  C   UNL     1       0.254   6.156  -3.391  0.00  0.00    +0.023 A 
ATOM     12  C   UNL     1       4.426   7.718  -3.752  0.00  0.00    +0.212 C 
ENDROOT
BRANCH   9  13
ATOM     13  C   UNL     1       3.462   6.162  -7.001  0.00  0.00    +0.028 A 
ATOM     14  C   UNL     1       3.198   6.882  -8.136  0.00  0.00    +0.059 A 
ATOM     15 CL   UNL     1       2.054   8.205  -8.114  0.00  0.00    -0.082 Cl
ATOM     16  C   UNL     1       3.905   6.640  -9.303  0.00  0.00    +0.011 A 
ATOM     17  C   UNL     1       4.790   5.576  -9.355  0.00  0.00    +0.001 A 
ATOM     18  C   UNL     1       5.341   5.172  -8.148  0.00  0.00    +0.000 A 
ATOM     19  C   UNL     1       4.533   5.277  -7.027  0.00  0.00    +0.002 A 
ENDBRANCH   9  13
BRANCH   7  20
ATOM     20  N   UNL     1      -1.218   5.127  -6.594  0.00  0.00    +0.081 N 
ATOM     21  O   UNL     1      -0.791   5.214  -7.907  0.00  0.00    -0.576 OA
ATOM     22  O   UNL     1      -2.437   5.275  -6.329  0.00  0.00    +0.041 OA
ENDBRANCH   7  20
TORSDOF 2
ENDMDL
MODEL 8
REMARK VINA RESULT:      -7.6      1.661      4.589
REMARK  Name = 
REMARK  2 active torsions:
REMARK  status: ('A' for Active; 'I' for Inactive)
REMARK    1  A    between atoms: C_5  and  C_6
REMARK    2  A    between atoms: C_15  and  N_16
REMARK                            x       y       z     vdW  Elec       q    Type
REMARK                         _______ _______ _______ _____ _____    ______ ____
ROOT
ATOM      1  O   UNL     1       0.589   6.137  -6.985  0.00  0.00    -0.271 OA
ATOM      2  C   UNL     1       1.174   6.518  -8.044  0.00  0.00    +0.270 C 
ATOM      3  N   UNL     1       0.573   6.170  -9.298  0.00  0.00    -0.177 NA
ATOM      4  C   UNL     1       1.318   6.146 -10.523  0.00  0.00    +0.075 A 
ATOM      5  C   UNL     1       2.674   6.360 -10.757  0.00  0.00    +0.039 A 
ATOM      6  C   UNL     1       3.263   5.788 -11.879  0.00  0.00    +0.078 A 
ATOM      7  C   UNL     1       2.397   5.395 -12.893  0.00  0.00    +0.290 A 
ATOM      8  C   UNL     1       1.078   5.834 -12.869  0.00  0.00    +0.077 A 
ATOM      9  C   UNL     1       3.670   6.603  -9.706  0.00  0.00    +0.079 C 
ATOM     10  N   UNL     1       3.447   7.211  -8.602  0.00  0.00    -0.260 NA
ATOM     11  C   UNL     1       0.488   5.951 -11.619  0.00  0.00    +0.023 A 
ATOM     12  C   UNL     1       2.273   7.507  -7.829  0.00  0.00    +0.212 C 
ENDROOT
BRANCH   9  13
ATOM     13  C   UNL     1       4.992   5.985  -9.877  0.00  0.00    +0.028 A 
ATOM     14  C   UNL     1       6.000   6.768 -10.372  0.00  0.00    +0.059 A 
ATOM     15 CL   UNL     1       5.645   8.218 -11.285  0.00  0.00    -0.082 Cl
ATOM     16  C   UNL     1       7.324   6.483 -10.076  0.00  0.00    +0.011 A 
ATOM     17  C   UNL     1       7.632   5.323  -9.385  0.00  0.00    +0.001 A 
ATOM     18  C   UNL     1       6.641   4.815  -8.557  0.00  0.00    +0.000 A 
ATOM     19  C   UNL     1       5.331   4.979  -8.980  0.00  0.00    +0.002 A 
ENDBRANCH   9  13
BRANCH   7  20
ATOM     20  N   UNL     1       2.981   4.956 -14.124  0.00  0.00    +0.081 N 
ATOM     21  O   UNL     1       3.384   5.971 -14.974  0.00  0.00    -0.576 OA
ATOM     22  O   UNL     1       2.568   3.872 -14.608  0.00  0.00    +0.041 OA
ENDBRANCH   7  20
TORSDOF 2
ENDMDL
MODEL 9
REMARK VINA RESULT:      -7.6      6.331      7.912
REMARK  Name = 
REMARK  2 active torsions:
REMARK  status: ('A' for Active; 'I' for Inactive)
REMARK    1  A    between atoms: C_5  and  C_6
REMARK    2  A    between atoms: C_15  and  N_16
REMARK                            x       y       z     vdW  Elec       q    Type
REMARK                         _______ _______ _______ _____ _____    ______ ____
ROOT
ATOM      1  O   UNL     1       3.549   6.414  -7.583  0.00  0.00    -0.271 OA
ATOM      2  C   UNL     1       2.991   5.875  -6.581  0.00  0.00    +0.270 C 
ATOM      3  N   UNL     1       1.559   5.846  -6.552  0.00  0.00    -0.177 NA
ATOM      4  C   UNL     1       0.821   5.678  -5.334  0.00  0.00    +0.075 A 
ATOM      5  C   UNL     1       1.264   5.585  -4.018  0.00  0.00    +0.039 A 
ATOM      6  C   UNL     1       0.403   5.951  -2.988  0.00  0.00    +0.078 A 
ATOM      7  C   UNL     1      -0.949   5.988  -3.305  0.00  0.00    +0.290 A 
ATOM      8  C   UNL     1      -1.387   5.408  -4.490  0.00  0.00    +0.077 A 
ATOM      9  C   UNL     1       2.667   5.717  -3.602  0.00  0.00    +0.079 C 
ATOM     10  N   UNL     1       3.680   5.358  -4.296  0.00  0.00    -0.260 NA
ATOM     11  C   UNL     1      -0.536   5.511  -5.580  0.00  0.00    +0.023 A 
ATOM     12  C   UNL     1       3.914   5.106  -5.691  0.00  0.00    +0.212 C 
ENDROOT
BRANCH   9  13
ATOM     13  C   UNL     1       2.932   6.438  -2.350  0.00  0.00    +0.028 A 
ATOM     14  C   UNL     1       3.474   5.728  -1.311  0.00  0.00    +0.059 A 
ATOM     15 CL   UNL     1       3.333   3.986  -1.245  0.00  0.00    -0.082 Cl
ATOM     16  C   UNL     1       4.232   6.366  -0.342  0.00  0.00    +0.011 A 
ATOM     17  C   UNL     1       4.328   7.748  -0.353  0.00  0.00    +0.001 A 
ATOM     18  C   UNL     1       4.163   8.368  -1.584  0.00  0.00    +0.000 A 
ATOM     19  C   UNL     1       3.265   7.782  -2.462  0.00  0.00    +0.002 A 
ENDBRANCH   9  13
BRANCH   7  20
ATOM     20  N   UNL     1      -1.872   6.200  -2.230  0.00  0.00    +0.081 N 
ATOM     21  O   UNL     1      -2.573   5.075  -1.833  0.00  0.00    -0.576 OA
ATOM     22  O   UNL     1      -2.416   7.330  -2.147  0.00  0.00    +0.041 OA
ENDBRANCH   7  20
TORSDOF 2
ENDMDL
