MODEL 1
REMARK VINA RESULT:      -8.2      0.000      0.000
REMARK  Name = 
REMARK  4 active torsions:
REMARK  status: ('A' for Active; 'I' for Inactive)
REMARK    1  A    between atoms: O_2  and  N_3
REMARK    2  A    between atoms: C_16  and  C_17
REMARK    3  A    between atoms: N_21  and  C_22
REMARK    4  A    between atoms: C_26  and  C_27
REMARK                            x       y       z     vdW  Elec       q    Type
REMARK                         _______ _______ _______ _____ _____    ______ ____
ROOT
ATOM      1  N   UNL     1       4.224   6.728 -11.413  0.00  0.00    -0.090 NA
ATOM      2  C   UNL     1       3.470   5.781 -10.929  0.00  0.00    +0.097 C 
ATOM      3  C   UNL     1       1.893   6.139 -10.726  0.00  0.00    +0.080 C 
ATOM      4  C   UNL     1       1.628   4.723  -9.900  0.00  0.00    +0.100 C 
ATOM      5  N   UNL     1       2.612   5.050  -8.865  0.00  0.00    -0.286 N 
ATOM      6  C   UNL     1       2.368   5.615  -7.583  0.00  0.00    +0.161 A 
ATOM      7  C   UNL     1       1.959   6.944  -7.593  0.00  0.00    +0.172 A 
ATOM      8  F   UNL     1       2.721   7.838  -8.287  0.00  0.00    -0.201 F 
ATOM      9  C   UNL     1       1.076   7.328  -6.592  0.00  0.00    +0.039 A 
ATOM     10  C   UNL     1       1.017   6.485  -5.488  0.00  0.00    +0.076 A 
ATOM     11  C   UNL     1       0.075   6.729  -4.505  0.00  0.00    +0.206 A 
ATOM     12  C   UNL     1       0.392   6.257  -3.238  0.00  0.00    +0.136 A 
ATOM     13  C   UNL     1       1.573   5.546  -3.053  0.00  0.00    +0.087 A 
ATOM     14  N   UNL     1       2.359   5.164  -4.079  0.00  0.00    -0.313 N 
ATOM     15  O   UNL     1      -1.055   7.138  -4.834  0.00  0.00    -0.286 OA
ATOM     16  C   UNL     1       1.884   5.410  -5.325  0.00  0.00    +0.148 A 
ATOM     17  N   UNL     1       2.518   4.927  -6.423  0.00  0.00    -0.211 NA
ATOM     18  C   UNL     1       3.835   5.136  -9.633  0.00  0.00    +0.137 C 
ENDROOT
BRANCH  14  19
ATOM     19  C   UNL     1       3.739   4.721  -3.900  0.00  0.00    +0.087 C 
ATOM     20  C   UNL     1       4.471   4.956  -2.649  0.00  0.00    +0.025 C 
ATOM     21  C   UNL     1       4.717   5.920  -3.810  0.00  0.00    +0.025 C 
ENDBRANCH  14  19
BRANCH  12  22
ATOM     22  C   UNL     1      -0.715   6.131  -2.283  0.00  0.00    +0.392 C 
ATOM     23  O   UNL     1      -0.528   6.706  -1.032  0.00  0.00    -0.240 OA
ATOM     24  O   UNL     1      -1.318   5.018  -2.295  0.00  0.00    -0.240 OA
ENDBRANCH  12  22
BRANCH   1  26
ATOM     25  C   UNL     1       6.327   7.933 -11.383  0.00  0.00    +0.288 C 
ATOM     26  O   UNL     1       5.553   6.814 -11.035  0.00  0.00    -0.374 OA
ENDBRANCH   1  26
BRANCH   3  27
ATOM     27  C   UNL     1       1.491   5.431 -12.171  0.00  0.00    +0.117 C 
ATOM     28  N   UNL     1       0.279   4.725 -11.760  0.00  0.00    -0.131 NA
ENDBRANCH   3  27
TORSDOF 4
ENDMDL
MODEL 2
REMARK VINA RESULT:      -7.8      2.840      7.544
REMARK  Name = 
REMARK  4 active torsions:
REMARK  status: ('A' for Active; 'I' for Inactive)
REMARK    1  A    between atoms: O_2  and  N_3
REMARK    2  A    between atoms: C_16  and  C_17
REMARK    3  A    between atoms: N_21  and  C_22
REMARK    4  A    between atoms: C_26  and  C_27
REMARK                            x       y       z     vdW  Elec       q    Type
REMARK                         _______ _______ _______ _____ _____    ______ ____
ROOT
ATOM      1  N   UNL     1      -0.433   5.070  -2.589  0.00  0.00    -0.090 NA
ATOM      2  C   UNL     1      -0.380   6.177  -3.276  0.00  0.00    +0.097 C 
ATOM      3  C   UNL     1      -1.576   6.421  -4.356  0.00  0.00    +0.080 C 
ATOM      4  C   UNL     1      -0.796   7.740  -4.995  0.00  0.00    +0.100 C 
ATOM      5  N   UNL     1       0.392   6.962  -5.354  0.00  0.00    -0.286 N 
ATOM      6  C   UNL     1       0.713   6.403  -6.622  0.00  0.00    +0.161 A 
ATOM      7  C   UNL     1      -0.088   5.335  -7.014  0.00  0.00    +0.172 A 
ATOM      8  F   UNL     1      -0.232   4.296  -6.142  0.00  0.00    -0.201 F 
ATOM      9  C   UNL     1      -0.334   5.212  -8.376  0.00  0.00    +0.039 A 
ATOM     10  C   UNL     1       0.544   5.896  -9.208  0.00  0.00    +0.076 A 
ATOM     11  C   UNL     1       0.296   5.927 -10.568  0.00  0.00    +0.206 A 
ATOM     12  C   UNL     1       1.408   6.113 -11.379  0.00  0.00    +0.136 A 
ATOM     13  C   UNL     1       2.654   6.302 -10.791  0.00  0.00    +0.087 A 
ATOM     14  N   UNL     1       2.813   6.462  -9.462  0.00  0.00    -0.313 N 
ATOM     15  O   UNL     1      -0.882   6.011 -10.970  0.00  0.00    -0.286 OA
ATOM     16  C   UNL     1       1.677   6.542  -8.726  0.00  0.00    +0.148 A 
ATOM     17  N   UNL     1       1.720   6.861  -7.407  0.00  0.00    -0.211 NA
ATOM     18  C   UNL     1       0.848   6.499  -4.062  0.00  0.00    +0.137 C 
ENDROOT
BRANCH  14  19
ATOM     19  C   UNL     1       4.105   6.331  -8.796  0.00  0.00    +0.087 C 
ATOM     20  C   UNL     1       5.287   5.811  -9.495  0.00  0.00    +0.025 C 
ATOM     21  C   UNL     1       4.503   4.845  -8.606  0.00  0.00    +0.025 C 
ENDBRANCH  14  19
BRANCH  12  22
ATOM     22  C   UNL     1       1.157   6.548 -12.757  0.00  0.00    +0.392 C 
ATOM     23  O   UNL     1       1.984   6.018 -13.740  0.00  0.00    -0.240 OA
ATOM     24  O   UNL     1       0.850   7.769 -12.894  0.00  0.00    -0.240 OA
ENDBRANCH  12  22
BRANCH   1  26
ATOM     25  C   UNL     1       1.371   4.826  -0.989  0.00  0.00    +0.288 C 
ATOM     26  O   UNL     1       0.738   4.451  -2.185  0.00  0.00    -0.374 OA
ENDBRANCH   1  26
BRANCH   3  27
ATOM     27  C   UNL     1      -2.417   7.373  -3.287  0.00  0.00    +0.117 C 
ATOM     28  N   UNL     1      -3.520   6.465  -2.980  0.00  0.00    -0.131 NA
ENDBRANCH   3  27
TORSDOF 4
ENDMDL
MODEL 3
REMARK VINA RESULT:      -7.7      2.301      3.882
REMARK  Name = 
REMARK  4 active torsions:
REMARK  status: ('A' for Active; 'I' for Inactive)
REMARK    1  A    between atoms: O_2  and  N_3
REMARK    2  A    between atoms: C_16  and  C_17
REMARK    3  A    between atoms: N_21  and  C_22
REMARK    4  A    between atoms: C_26  and  C_27
REMARK                            x       y       z     vdW  Elec       q    Type
REMARK                         _______ _______ _______ _____ _____    ______ ____
ROOT
ATOM      1  N   UNL     1       2.330   5.035 -12.432  0.00  0.00    -0.090 NA
ATOM      2  C   UNL     1       2.699   5.993 -11.628  0.00  0.00    +0.097 C 
ATOM      3  C   UNL     1       3.970   5.678 -10.657  0.00  0.00    +0.080 C 
ATOM      4  C   UNL     1       3.726   7.080  -9.801  0.00  0.00    +0.100 C 
ATOM      5  N   UNL     1       2.368   6.698  -9.409  0.00  0.00    -0.286 N 
ATOM      6  C   UNL     1       1.952   6.109  -8.183  0.00  0.00    +0.161 A 
ATOM      7  C   UNL     1       2.361   4.793  -7.993  0.00  0.00    +0.172 A 
ATOM      8  F   UNL     1       2.090   3.894  -8.982  0.00  0.00    -0.201 F 
ATOM      9  C   UNL     1       2.632   4.411  -6.685  0.00  0.00    +0.039 A 
ATOM     10  C   UNL     1       2.092   5.228  -5.698  0.00  0.00    +0.076 A 
ATOM     11  C   UNL     1       2.417   4.988  -4.375  0.00  0.00    +0.206 A 
ATOM     12  C   UNL     1       1.485   5.419  -3.440  0.00  0.00    +0.136 A 
ATOM     13  C   UNL     1       0.346   6.089  -3.873  0.00  0.00    +0.087 A 
ATOM     14  N   UNL     1       0.172   6.472  -5.153  0.00  0.00    -0.313 N 
ATOM     15  O   UNL     1       3.574   4.622  -4.089  0.00  0.00    -0.286 OA
ATOM     16  C   UNL     1       1.220   6.271  -5.989  0.00  0.00    +0.148 A 
ATOM     17  N   UNL     1       1.211   6.763  -7.254  0.00  0.00    -0.211 NA
ATOM     18  C   UNL     1       1.705   6.593 -10.690  0.00  0.00    +0.137 C 
ENDROOT
BRANCH  14  19
ATOM     19  C   UNL     1      -1.125   6.868  -5.694  0.00  0.00    +0.087 C 
ATOM     20  C   UNL     1      -2.376   6.611  -4.970  0.00  0.00    +0.025 C 
ATOM     21  C   UNL     1      -1.984   5.637  -6.081  0.00  0.00    +0.025 C 
ENDBRANCH  14  19
BRANCH  12  22
ATOM     22  C   UNL     1       1.952   5.555  -2.055  0.00  0.00    +0.392 C 
ATOM     23  O   UNL     1       1.308   4.777  -1.100  0.00  0.00    -0.240 OA
ATOM     24  O   UNL     1       2.255   6.730  -1.697  0.00  0.00    -0.240 OA
ENDBRANCH  12  22
BRANCH   1  26
ATOM     25  C   UNL     1       0.630   4.311 -14.000  0.00  0.00    +0.288 C 
ATOM     26  O   UNL     1       0.997   4.900 -12.779  0.00  0.00    -0.374 OA
ENDBRANCH   1  26
BRANCH   3  27
ATOM     27  C   UNL     1       5.020   6.434 -11.696  0.00  0.00    +0.117 C 
ATOM     28  N   UNL     1       5.366   7.594 -10.878  0.00  0.00    -0.131 NA
ENDBRANCH   3  27
TORSDOF 4
ENDMDL
MODEL 4
REMARK VINA RESULT:      -7.6      2.622      7.559
REMARK  Name = 
REMARK  4 active torsions:
REMARK  status: ('A' for Active; 'I' for Inactive)
REMARK    1  A    between atoms: O_2  and  N_3
REMARK    2  A    between atoms: C_16  and  C_17
REMARK    3  A    between atoms: N_21  and  C_22
REMARK    4  A    between atoms: C_26  and  C_27
REMARK                            x       y       z     vdW  Elec       q    Type
REMARK                         _______ _______ _______ _____ _____    ______ ____
ROOT
ATOM      1  N   UNL     1       2.151   5.295  -3.432  0.00  0.00    -0.090 NA
ATOM      2  C   UNL     1       1.677   6.225  -4.213  0.00  0.00    +0.097 C 
ATOM      3  C   UNL     1       0.320   5.860  -5.039  0.00  0.00    +0.080 C 
ATOM      4  C   UNL     1       0.440   7.247  -5.944  0.00  0.00    +0.100 C 
ATOM      5  N   UNL     1       1.759   6.885  -6.468  0.00  0.00    -0.286 N 
ATOM      6  C   UNL     1       2.059   6.277  -7.719  0.00  0.00    +0.161 A 
ATOM      7  C   UNL     1       1.663   4.949  -7.837  0.00  0.00    +0.172 A 
ATOM      8  F   UNL     1       2.058   4.079  -6.864  0.00  0.00    -0.201 F 
ATOM      9  C   UNL     1       1.266   4.531  -9.102  0.00  0.00    +0.039 A 
ATOM     10  C   UNL     1       1.681   5.336 -10.157  0.00  0.00    +0.076 A 
ATOM     11  C   UNL     1       1.226   5.059 -11.433  0.00  0.00    +0.206 A 
ATOM     12  C   UNL     1       2.044   5.488 -12.470  0.00  0.00    +0.136 A 
ATOM     13  C   UNL     1       3.206   6.192 -12.172  0.00  0.00    +0.087 A 
ATOM     14  N   UNL     1       3.503   6.609 -10.926  0.00  0.00    -0.313 N 
ATOM     15  O   UNL     1       0.054   4.661 -11.588  0.00  0.00    -0.286 OA
ATOM     16  C   UNL     1       2.553   6.405  -9.980  0.00  0.00    +0.148 A 
ATOM     17  N   UNL     1       2.683   6.926  -8.734  0.00  0.00    -0.211 NA
ATOM     18  C   UNL     1       2.554   6.825  -5.262  0.00  0.00    +0.137 C 
ENDROOT
BRANCH  14  19
ATOM     19  C   UNL     1       4.839   7.045 -10.532  0.00  0.00    +0.087 C 
ATOM     20  C   UNL     1       6.012   6.811 -11.384  0.00  0.00    +0.025 C 
ATOM     21  C   UNL     1       5.768   5.842 -10.226  0.00  0.00    +0.025 C 
ENDBRANCH  14  19
BRANCH  12  22
ATOM     22  C   UNL     1       1.433   5.581 -13.800  0.00  0.00    +0.392 C 
ATOM     23  O   UNL     1       1.502   4.447 -14.600  0.00  0.00    -0.240 OA
ATOM     24  O   UNL     1       1.593   6.687 -14.395  0.00  0.00    -0.240 OA
ENDBRANCH  12  22
BRANCH   1  26
ATOM     25  C   UNL     1       4.033   5.006  -1.932  0.00  0.00    +0.288 C 
ATOM     26  O   UNL     1       3.517   5.197  -3.224  0.00  0.00    -0.374 OA
ENDBRANCH   1  26
BRANCH   3  27
ATOM     27  C   UNL     1      -0.633   6.617  -3.911  0.00  0.00    +0.117 C 
ATOM     28  N   UNL     1      -1.277   7.606  -4.773  0.00  0.00    -0.131 NA
ENDBRANCH   3  27
TORSDOF 4
ENDMDL
MODEL 5
REMARK VINA RESULT:      -7.4      2.467      4.221
REMARK  Name = 
REMARK  4 active torsions:
REMARK  status: ('A' for Active; 'I' for Inactive)
REMARK    1  A    between atoms: O_2  and  N_3
REMARK    2  A    between atoms: C_16  and  C_17
REMARK    3  A    between atoms: N_21  and  C_22
REMARK    4  A    between atoms: C_26  and  C_27
REMARK                            x       y       z     vdW  Elec       q    Type
REMARK                         _______ _______ _______ _____ _____    ______ ____
ROOT
ATOM      1  N   UNL     1       1.777   4.688 -10.142  0.00  0.00    -0.090 NA
ATOM      2  C   UNL     1       1.859   5.823  -9.507  0.00  0.00    +0.097 C 
ATOM      3  C   UNL     1       3.141   6.014  -8.519  0.00  0.00    +0.080 C 
ATOM      4  C   UNL     1       2.513   7.418  -7.894  0.00  0.00    +0.100 C 
ATOM      5  N   UNL     1       1.294   6.756  -7.424  0.00  0.00    -0.286 N 
ATOM      6  C   UNL     1       1.016   6.279  -6.112  0.00  0.00    +0.161 A 
ATOM      7  C   UNL     1       1.754   5.167  -5.722  0.00  0.00    +0.172 A 
ATOM      8  F   UNL     1       1.756   4.083  -6.551  0.00  0.00    -0.201 F 
ATOM      9  C   UNL     1       2.081   5.081  -4.375  0.00  0.00    +0.039 A 
ATOM     10  C   UNL     1       1.318   5.870  -3.522  0.00  0.00    +0.076 A 
ATOM     11  C   UNL     1       1.660   5.938  -2.183  0.00  0.00    +0.206 A 
ATOM     12  C   UNL     1       0.623   6.248  -1.313  0.00  0.00    +0.136 A 
ATOM     13  C   UNL     1      -0.641   6.515  -1.828  0.00  0.00    +0.087 A 
ATOM     14  N   UNL     1      -0.876   6.631  -3.150  0.00  0.00    -0.313 N 
ATOM     15  O   UNL     1       2.864   5.941  -1.862  0.00  0.00    -0.286 OA
ATOM     16  C   UNL     1       0.210   6.586  -3.961  0.00  0.00    +0.148 A 
ATOM     17  N   UNL     1       0.104   6.852  -5.287  0.00  0.00    -0.211 NA
ATOM     18  C   UNL     1       0.716   6.279  -8.660  0.00  0.00    +0.137 C 
ENDROOT
BRANCH  14  19
ATOM     19  C   UNL     1      -2.217   6.579  -3.726  0.00  0.00    +0.087 C 
ATOM     20  C   UNL     1      -3.408   6.362  -2.894  0.00  0.00    +0.025 C 
ATOM     21  C   UNL     1      -2.825   5.156  -3.632  0.00  0.00    +0.025 C 
ENDBRANCH  14  19
BRANCH  12  22
ATOM     22  C   UNL     1       1.000   6.719   0.025  0.00  0.00    +0.392 C 
ATOM     23  O   UNL     1       0.073   6.522   1.041  0.00  0.00    -0.240 OA
ATOM     24  O   UNL     1       1.628   7.818   0.056  0.00  0.00    -0.240 OA
ENDBRANCH  12  22
BRANCH   1  26
ATOM     25  C   UNL     1      -0.157   4.548 -11.596  0.00  0.00    +0.288 C 
ATOM     26  O   UNL     1       0.536   4.151 -10.441  0.00  0.00    -0.374 OA
ENDBRANCH   1  26
BRANCH   3  27
ATOM     27  C   UNL     1       3.981   6.847  -9.683  0.00  0.00    +0.117 C 
ATOM     28  N   UNL     1       5.121   5.947  -9.841  0.00  0.00    -0.131 NA
ENDBRANCH   3  27
TORSDOF 4
ENDMDL
MODEL 6
REMARK VINA RESULT:      -7.3      2.621      4.307
REMARK  Name = 
REMARK  4 active torsions:
REMARK  status: ('A' for Active; 'I' for Inactive)
REMARK    1  A    between atoms: O_2  and  N_3
REMARK    2  A    between atoms: C_16  and  C_17
REMARK    3  A    between atoms: N_21  and  C_22
REMARK    4  A    between atoms: C_26  and  C_27
REMARK                            x       y       z     vdW  Elec       q    Type
REMARK                         _______ _______ _______ _____ _____    ______ ____
ROOT
ATOM      1  N   UNL     1       4.884   4.855 -12.938  0.00  0.00    -0.090 NA
ATOM      2  C   UNL     1       4.876   6.000 -12.314  0.00  0.00    +0.097 C 
ATOM      3  C   UNL     1       6.083   6.257 -11.249  0.00  0.00    +0.080 C 
ATOM      4  C   UNL     1       5.356   7.639 -10.685  0.00  0.00    +0.100 C 
ATOM      5  N   UNL     1       4.138   6.931 -10.285  0.00  0.00    -0.286 N 
ATOM      6  C   UNL     1       3.796   6.457  -8.988  0.00  0.00    +0.161 A 
ATOM      7  C   UNL     1       4.554   5.382  -8.536  0.00  0.00    +0.172 A 
ATOM      8  F   UNL     1       4.655   4.290  -9.347  0.00  0.00    -0.201 F 
ATOM      9  C   UNL     1       4.796   5.326  -7.169  0.00  0.00    +0.039 A 
ATOM     10  C   UNL     1       3.947   6.091  -6.377  0.00  0.00    +0.076 A 
ATOM     11  C   UNL     1       4.198   6.188  -5.021  0.00  0.00    +0.206 A 
ATOM     12  C   UNL     1       3.094   6.464  -4.224  0.00  0.00    +0.136 A 
ATOM     13  C   UNL     1       1.856   6.669  -4.823  0.00  0.00    +0.087 A 
ATOM     14  N   UNL     1       1.703   6.761  -6.159  0.00  0.00    -0.313 N 
ATOM     15  O   UNL     1       5.378   6.248  -4.623  0.00  0.00    -0.286 OA
ATOM     16  C   UNL     1       2.840   6.753  -6.897  0.00  0.00    +0.148 A 
ATOM     17  N   UNL     1       2.809   6.999  -8.231  0.00  0.00    -0.211 NA
ATOM     18  C   UNL     1       3.663   6.415 -11.550  0.00  0.00    +0.137 C 
ENDROOT
BRANCH  14  19
ATOM     19  C   UNL     1       0.406   6.644  -6.819  0.00  0.00    +0.087 C 
ATOM     20  C   UNL     1      -0.788   6.176  -6.101  0.00  0.00    +0.025 C 
ATOM     21  C   UNL     1      -0.032   5.164  -6.962  0.00  0.00    +0.025 C 
ENDBRANCH  14  19
BRANCH  12  22
ATOM     22  C   UNL     1       3.364   6.966  -2.871  0.00  0.00    +0.392 C 
ATOM     23  O   UNL     1       2.607   6.422  -1.841  0.00  0.00    -0.240 OA
ATOM     24  O   UNL     1       3.596   8.207  -2.790  0.00  0.00    -0.240 OA
ENDBRANCH  12  22
BRANCH   1  26
ATOM     25  C   UNL     1       2.856   4.864 -14.265  0.00  0.00    +0.288 C 
ATOM     26  O   UNL     1       3.689   4.261 -13.308  0.00  0.00    -0.374 OA
ENDBRANCH   1  26
BRANCH   3  27
ATOM     27  C   UNL     1       6.960   7.112 -12.368  0.00  0.00    +0.117 C 
ATOM     28  N   UNL     1       8.128   6.240 -12.469  0.00  0.00    -0.131 NA
ENDBRANCH   3  27
TORSDOF 4
ENDMDL
MODEL 7
REMARK VINA RESULT:      -7.1      3.589      8.396
REMARK  Name = 
REMARK  4 active torsions:
REMARK  status: ('A' for Active; 'I' for Inactive)
REMARK    1  A    between atoms: O_2  and  N_3
REMARK    2  A    between atoms: C_16  and  C_17
REMARK    3  A    between atoms: N_21  and  C_22
REMARK    4  A    between atoms: C_26  and  C_27
REMARK                            x       y       z     vdW  Elec       q    Type
REMARK                         _______ _______ _______ _____ _____    ______ ____
ROOT
ATOM      1  N   UNL     1       2.892   9.141   0.859  0.00  0.00    -0.090 NA
ATOM      2  C   UNL     1       3.037   7.877   0.572  0.00  0.00    +0.097 C 
ATOM      3  C   UNL     1       4.422   7.456  -0.177  0.00  0.00    +0.080 C 
ATOM      4  C   UNL     1       3.859   5.920  -0.459  0.00  0.00    +0.100 C 
ATOM      5  N   UNL     1       2.706   6.398  -1.226  0.00  0.00    -0.286 N 
ATOM      6  C   UNL     1       2.582   6.493  -2.640  0.00  0.00    +0.161 A 
ATOM      7  C   UNL     1       3.368   7.474  -3.235  0.00  0.00    +0.172 A 
ATOM      8  F   UNL     1       3.283   8.742  -2.739  0.00  0.00    -0.201 F 
ATOM      9  C   UNL     1       3.847   7.197  -4.509  0.00  0.00    +0.039 A 
ATOM     10  C   UNL     1       3.180   6.187  -5.193  0.00  0.00    +0.076 A 
ATOM     11  C   UNL     1       3.671   5.765  -6.416  0.00  0.00    +0.206 A 
ATOM     12  C   UNL     1       2.737   5.204  -7.277  0.00  0.00    +0.136 A 
ATOM     13  C   UNL     1       1.421   5.058  -6.853  0.00  0.00    +0.087 A 
ATOM     14  N   UNL     1       1.037   5.300  -5.584  0.00  0.00    -0.313 N 
ATOM     15  O   UNL     1       4.904   5.703  -6.587  0.00  0.00    -0.286 OA
ATOM     16  C   UNL     1       2.024   5.591  -4.701  0.00  0.00    +0.148 A 
ATOM     17  N   UNL     1       1.766   5.695  -3.373  0.00  0.00    -0.211 NA
ATOM     18  C   UNL     1       1.995   7.181  -0.239  0.00  0.00    +0.137 C 
ENDROOT
BRANCH  14  19
ATOM     19  C   UNL     1      -0.360   5.476  -5.197  0.00  0.00    +0.087 C 
ATOM     20  C   UNL     1      -1.408   5.753  -6.189  0.00  0.00    +0.025 C 
ATOM     21  C   UNL     1      -0.834   6.936  -5.409  0.00  0.00    +0.025 C 
ENDBRANCH  14  19
BRANCH  12  22
ATOM     22  C   UNL     1       3.261   4.395  -8.384  0.00  0.00    +0.392 C 
ATOM     23  O   UNL     1       3.711   5.085  -9.503  0.00  0.00    -0.240 OA
ATOM     24  O   UNL     1       2.635   3.319  -8.613  0.00  0.00    -0.240 OA
ENDBRANCH  12  22
BRANCH   1  26
ATOM     25  C   UNL     1       0.972   9.994   2.068  0.00  0.00    +0.288 C 
ATOM     26  O   UNL     1       1.630   9.709   0.860  0.00  0.00    -0.374 OA
ENDBRANCH   1  26
BRANCH   3  27
ATOM     27  C   UNL     1       5.118   6.992   1.256  0.00  0.00    +0.117 C 
ATOM     28  N   UNL     1       6.045   8.107   1.440  0.00  0.00    -0.131 NA
ENDBRANCH   3  27
TORSDOF 4
ENDMDL
MODEL 8
REMARK VINA RESULT:      -6.8      3.182      7.811
REMARK  Name = 
REMARK  4 active torsions:
REMARK  status: ('A' for Active; 'I' for Inactive)
REMARK    1  A    between atoms: O_2  and  N_3
REMARK    2  A    between atoms: C_16  and  C_17
REMARK    3  A    between atoms: N_21  and  C_22
REMARK    4  A    between atoms: C_26  and  C_27
REMARK                            x       y       z     vdW  Elec       q    Type
REMARK                         _______ _______ _______ _____ _____    ______ ____
ROOT
ATOM      1  N   UNL     1       2.691   7.683   0.119  0.00  0.00    -0.090 NA
ATOM      2  C   UNL     1       2.764   6.515  -0.454  0.00  0.00    +0.097 C 
ATOM      3  C   UNL     1       3.996   6.291  -1.498  0.00  0.00    +0.080 C 
ATOM      4  C   UNL     1       3.365   4.842  -2.007  0.00  0.00    +0.100 C 
ATOM      5  N   UNL     1       2.109   5.452  -2.447  0.00  0.00    -0.286 N 
ATOM      6  C   UNL     1       1.751   5.847  -3.766  0.00  0.00    +0.161 A 
ATOM      7  C   UNL     1       2.443   6.949  -4.258  0.00  0.00    +0.172 A 
ATOM      8  F   UNL     1       2.465   8.078  -3.494  0.00  0.00    -0.201 F 
ATOM      9  C   UNL     1       2.696   6.962  -5.625  0.00  0.00    +0.039 A 
ATOM     10  C   UNL     1       1.906   6.111  -6.389  0.00  0.00    +0.076 A 
ATOM     11  C   UNL     1       2.177   5.972  -7.738  0.00  0.00    +0.206 A 
ATOM     12  C   UNL     1       1.102   5.592  -8.531  0.00  0.00    +0.136 A 
ATOM     13  C   UNL     1      -0.127   5.333  -7.933  0.00  0.00    +0.087 A 
ATOM     14  N   UNL     1      -0.288   5.288  -6.596  0.00  0.00    -0.313 N 
ATOM     15  O   UNL     1       3.362   5.973  -8.123  0.00  0.00    -0.286 OA
ATOM     16  C   UNL     1       0.838   5.401  -5.850  0.00  0.00    +0.148 A 
ATOM     17  N   UNL     1       0.809   5.211  -4.506  0.00  0.00    -0.211 NA
ATOM     18  C   UNL     1       1.588   5.989  -1.210  0.00  0.00    +0.137 C 
ENDROOT
BRANCH  14  19
ATOM     19  C   UNL     1      -1.597   5.349  -5.952  0.00  0.00    +0.087 C 
ATOM     20  C   UNL     1      -2.759   5.953  -6.617  0.00  0.00    +0.025 C 
ATOM     21  C   UNL     1      -1.996   6.805  -5.602  0.00  0.00    +0.025 C 
ENDBRANCH  14  19
BRANCH  12  22
ATOM     22  C   UNL     1       1.418   5.052  -9.858  0.00  0.00    +0.392 C 
ATOM     23  O   UNL     1       1.756   5.972 -10.843  0.00  0.00    -0.240 OA
ATOM     24  O   UNL     1       0.698   4.081 -10.234  0.00  0.00    -0.240 OA
ENDBRANCH  12  22
BRANCH   1  26
ATOM     25  C   UNL     1       1.351   9.518   0.964  0.00  0.00    +0.288 C 
ATOM     26  O   UNL     1       1.457   8.213   0.455  0.00  0.00    -0.374 OA
ENDBRANCH   1  26
BRANCH   3  27
ATOM     27  C   UNL     1       4.914   5.543  -0.336  0.00  0.00    +0.117 C 
ATOM     28  N   UNL     1       4.610   4.150  -0.657  0.00  0.00    -0.131 NA
ENDBRANCH   3  27
TORSDOF 4
ENDMDL
MODEL 9
REMARK VINA RESULT:      -6.2      4.181      8.430
REMARK  Name = 
REMARK  4 active torsions:
REMARK  status: ('A' for Active; 'I' for Inactive)
REMARK    1  A    between atoms: O_2  and  N_3
REMARK    2  A    between atoms: C_16  and  C_17
REMARK    3  A    between atoms: N_21  and  C_22
REMARK    4  A    between atoms: C_26  and  C_27
REMARK                            x       y       z     vdW  Elec       q    Type
REMARK                         _______ _______ _______ _____ _____    ______ ____
ROOT
ATOM      1  N   UNL     1       4.114   7.191   2.536  0.00  0.00    -0.090 NA
ATOM      2  C   UNL     1       3.542   8.024   1.712  0.00  0.00    +0.097 C 
ATOM      3  C   UNL     1       1.924   7.903   1.562  0.00  0.00    +0.080 C 
ATOM      4  C   UNL     1       1.915   8.958   0.280  0.00  0.00    +0.100 C 
ATOM      5  N   UNL     1       2.808   8.117  -0.520  0.00  0.00    -0.286 N 
ATOM      6  C   UNL     1       2.448   7.188  -1.535  0.00  0.00    +0.161 A 
ATOM      7  C   UNL     1       1.800   6.044  -1.082  0.00  0.00    +0.172 A 
ATOM      8  F   UNL     1       2.391   5.333  -0.079  0.00  0.00    -0.201 F 
ATOM      9  C   UNL     1       0.848   5.493  -1.931  0.00  0.00    +0.039 A 
ATOM     10  C   UNL     1       0.933   5.887  -3.262  0.00  0.00    +0.076 A 
ATOM     11  C   UNL     1      -0.051   5.483  -4.146  0.00  0.00    +0.206 A 
ATOM     12  C   UNL     1       0.332   5.412  -5.479  0.00  0.00    +0.136 A 
ATOM     13  C   UNL     1       1.622   5.789  -5.838  0.00  0.00    +0.087 A 
ATOM     14  N   UNL     1       2.478   6.363  -4.970  0.00  0.00    -0.313 N 
ATOM     15  O   UNL     1      -1.233   5.425  -3.756  0.00  0.00    -0.286 OA
ATOM     16  C   UNL     1       1.981   6.662  -3.744  0.00  0.00    +0.148 A 
ATOM     17  N   UNL     1       2.707   7.383  -2.852  0.00  0.00    -0.211 NA
ATOM     18  C   UNL     1       4.004   8.092   0.294  0.00  0.00    +0.137 C 
ENDROOT
BRANCH  14  19
ATOM     19  C   UNL     1       3.913   6.461  -5.217  0.00  0.00    +0.087 C 
ATOM     20  C   UNL     1       4.569   5.691  -6.283  0.00  0.00    +0.025 C 
ATOM     21  C   UNL     1       4.648   5.145  -4.857  0.00  0.00    +0.025 C 
ENDBRANCH  14  19
BRANCH  12  22
ATOM     22  C   UNL     1      -0.744   5.386  -6.477  0.00  0.00    +0.392 C 
ATOM     23  O   UNL     1      -0.362   5.240  -7.805  0.00  0.00    -0.240 OA
ATOM     24  O   UNL     1      -1.702   6.185  -6.263  0.00  0.00    -0.240 OA
ENDBRANCH  12  22
BRANCH   1  26
ATOM     25  C   UNL     1       6.475   7.166   3.083  0.00  0.00    +0.288 C 
ATOM     26  O   UNL     1       5.400   6.743   2.285  0.00  0.00    -0.374 OA
ENDBRANCH   1  26
BRANCH   3  27
ATOM     27  C   UNL     1       1.678   9.137   2.645  0.00  0.00    +0.117 C 
ATOM     28  N   UNL     1       0.872  10.026   1.811  0.00  0.00    -0.131 NA
ENDBRANCH   3  27
TORSDOF 4
ENDMDL
