MODEL 1
REMARK VINA RESULT:      -6.8      0.000      0.000
REMARK  Name = 
REMARK  7 active torsions:
REMARK  status: ('A' for Active; 'I' for Inactive)
REMARK    1  A    between atoms: O_2  and  C_3
REMARK    2  A    between atoms: C_6  and  C_7
REMARK    3  A    between atoms: C_7  and  N_8
REMARK    4  A    between atoms: N_8  and  C_9
REMARK    5  A    between atoms: N_8  and  C_14
REMARK    6  A    between atoms: C_9  and  C_10
REMARK    7  A    between atoms: C_10  and  N_11
REMARK                            x       y       z     vdW  Elec       q    Type
REMARK                         _______ _______ _______ _____ _____    ______ ____
ROOT
ATOM      1  N   UNL     1       2.690   5.736  -7.802  0.00  0.00    -0.288 N 
ENDROOT
BRANCH   1   2
ATOM      2  C   UNL     1       2.946   5.816  -6.394  0.00  0.00    +0.132 A 
ATOM      3  N   UNL     1       3.194   4.692  -5.689  0.00  0.00    -0.229 NA
ATOM      4  C   UNL     1       3.860   4.696  -4.515  0.00  0.00    +0.100 A 
ATOM      5  C   UNL     1       4.749   5.737  -4.315  0.00  0.00    +0.021 A 
ATOM      6  C   UNL     1       4.458   6.956  -4.877  0.00  0.00    +0.004 A 
ATOM      7  C   UNL     1       3.518   6.981  -5.898  0.00  0.00    +0.034 A 
ENDBRANCH   1   2
BRANCH   1   8
ATOM      8  C   UNL     1       3.647   5.054  -8.637  0.00  0.00    +0.119 C 
BRANCH   8  12
ATOM      9  C   UNL     1       6.781   6.533 -10.958  0.00  0.00    +0.139 A 
ATOM     10  C   UNL     1       5.518   7.029 -11.133  0.00  0.00    +0.037 A 
ATOM     11  C   UNL     1       4.576   6.823 -10.164  0.00  0.00    +0.000 A 
ATOM     12  C   UNL     1       4.745   5.950  -9.099  0.00  0.00    -0.002 A 
ATOM     13  C   UNL     1       6.050   5.511  -8.904  0.00  0.00    +0.000 A 
ATOM     14  C   UNL     1       7.042   5.758  -9.844  0.00  0.00    +0.037 A 
BRANCH   9  16
ATOM     15  C   UNL     1       8.781   5.767 -12.179  0.00  0.00    +0.252 C 
ATOM     16  O   UNL     1       7.823   6.753 -11.862  0.00  0.00    -0.471 OA
ENDBRANCH   9  16
ENDBRANCH   8  12
ENDBRANCH   1   8
BRANCH   1  17
ATOM     17  C   UNL     1       1.294   5.650  -8.224  0.00  0.00    +0.110 C 
BRANCH  17  18
ATOM     18  C   UNL     1       1.017   6.506  -9.429  0.00  0.00    +0.094 C 
BRANCH  18  19
ATOM     19  N   UNL     1      -0.061   5.977 -10.253  0.00  0.00    -0.269 NA
ATOM     20  C   UNL     1      -0.468   6.900 -11.288  0.00  0.00    +0.090 C 
ATOM     21  C   UNL     1       0.278   4.669 -10.792  0.00  0.00    +0.090 C 
ENDBRANCH  18  19
ENDBRANCH  17  18
ENDBRANCH   1  17
TORSDOF 7
ENDMDL
MODEL 2
REMARK VINA RESULT:      -6.7      0.859      4.645
REMARK  Name = 
REMARK  7 active torsions:
REMARK  status: ('A' for Active; 'I' for Inactive)
REMARK    1  A    between atoms: O_2  and  C_3
REMARK    2  A    between atoms: C_6  and  C_7
REMARK    3  A    between atoms: C_7  and  N_8
REMARK    4  A    between atoms: N_8  and  C_9
REMARK    5  A    between atoms: N_8  and  C_14
REMARK    6  A    between atoms: C_9  and  C_10
REMARK    7  A    between atoms: C_10  and  N_11
REMARK                            x       y       z     vdW  Elec       q    Type
REMARK                         _______ _______ _______ _____ _____    ______ ____
ROOT
ATOM      1  N   UNL     1       1.965   5.134  -8.461  0.00  0.00    -0.288 N 
ENDROOT
BRANCH   1   2
ATOM      2  C   UNL     1       0.952   5.419  -9.434  0.00  0.00    +0.132 A 
ATOM      3  N   UNL     1       0.706   6.696  -9.795  0.00  0.00    -0.229 NA
ATOM      4  C   UNL     1       0.125   7.026 -10.968  0.00  0.00    +0.100 A 
ATOM      5  C   UNL     1       0.286   6.129 -12.009  0.00  0.00    +0.021 A 
ATOM      6  C   UNL     1       0.377   4.793 -11.707  0.00  0.00    +0.004 A 
ATOM      7  C   UNL     1       0.676   4.454 -10.393  0.00  0.00    +0.034 A 
ENDBRANCH   1   2
BRANCH   1   8
ATOM      8  C   UNL     1       3.202   4.543  -8.910  0.00  0.00    +0.119 C 
BRANCH   8  12
ATOM      9  C   UNL     1       6.659   6.337 -10.401  0.00  0.00    +0.139 A 
ATOM     10  C   UNL     1       5.441   6.679 -10.923  0.00  0.00    +0.037 A 
ATOM     11  C   UNL     1       4.304   6.381 -10.225  0.00  0.00    +0.000 A 
ATOM     12  C   UNL     1       4.279   5.553  -9.112  0.00  0.00    -0.002 A 
ATOM     13  C   UNL     1       5.525   5.273  -8.562  0.00  0.00    +0.000 A 
ATOM     14  C   UNL     1       6.698   5.617  -9.221  0.00  0.00    +0.037 A 
BRANCH   9  16
ATOM     15  C   UNL     1       8.548   5.785 -11.886  0.00  0.00    +0.252 C 
ATOM     16  O   UNL     1       7.873   6.661 -11.011  0.00  0.00    -0.471 OA
ENDBRANCH   9  16
ENDBRANCH   8  12
ENDBRANCH   1   8
BRANCH   1  17
ATOM     17  C   UNL     1       2.063   6.032  -7.313  0.00  0.00    +0.110 C 
BRANCH  17  18
ATOM     18  C   UNL     1       2.070   5.281  -6.010  0.00  0.00    +0.094 C 
BRANCH  18  19
ATOM     19  N   UNL     1       3.051   5.805  -5.069  0.00  0.00    -0.269 NA
ATOM     20  C   UNL     1       4.055   4.828  -4.719  0.00  0.00    +0.090 C 
ATOM     21  C   UNL     1       3.641   7.043  -5.556  0.00  0.00    +0.090 C 
ENDBRANCH  18  19
ENDBRANCH  17  18
ENDBRANCH   1  17
TORSDOF 7
ENDMDL
MODEL 3
REMARK VINA RESULT:      -6.6      3.952      6.772
REMARK  Name = 
REMARK  7 active torsions:
REMARK  status: ('A' for Active; 'I' for Inactive)
REMARK    1  A    between atoms: O_2  and  C_3
REMARK    2  A    between atoms: C_6  and  C_7
REMARK    3  A    between atoms: C_7  and  N_8
REMARK    4  A    between atoms: N_8  and  C_9
REMARK    5  A    between atoms: N_8  and  C_14
REMARK    6  A    between atoms: C_9  and  C_10
REMARK    7  A    between atoms: C_10  and  N_11
REMARK                            x       y       z     vdW  Elec       q    Type
REMARK                         _______ _______ _______ _____ _____    ______ ____
ROOT
ATOM      1  N   UNL     1       2.853   4.702  -6.615  0.00  0.00    -0.288 N 
ENDROOT
BRANCH   1   2
ATOM      2  C   UNL     1       3.806   5.300  -5.728  0.00  0.00    +0.132 A 
ATOM      3  N   UNL     1       4.005   6.635  -5.754  0.00  0.00    -0.229 NA
ATOM      4  C   UNL     1       4.516   7.319  -4.708  0.00  0.00    +0.100 A 
ATOM      5  C   UNL     1       4.318   6.767  -3.455  0.00  0.00    +0.021 A 
ATOM      6  C   UNL     1       4.273   5.399  -3.348  0.00  0.00    +0.004 A 
ATOM      7  C   UNL     1       4.052   4.674  -4.513  0.00  0.00    +0.034 A 
ENDBRANCH   1   2
BRANCH   1   8
ATOM      8  C   UNL     1       1.602   4.237  -6.068  0.00  0.00    +0.119 C 
BRANCH   8  12
ATOM      9  C   UNL     1      -1.762   6.286  -4.699  0.00  0.00    +0.139 A 
ATOM     10  C   UNL     1      -0.559   6.470  -4.075  0.00  0.00    +0.037 A 
ATOM     11  C   UNL     1       0.592   6.099  -4.712  0.00  0.00    +0.000 A 
ATOM     12  C   UNL     1       0.618   5.339  -5.873  0.00  0.00    -0.002 A 
ATOM     13  C   UNL     1      -0.606   5.221  -6.523  0.00  0.00    +0.000 A 
ATOM     14  C   UNL     1      -1.784   5.645  -5.923  0.00  0.00    +0.037 A 
BRANCH   9  16
ATOM     15  C   UNL     1      -3.429   6.278  -2.883  0.00  0.00    +0.252 C 
ATOM     16  O   UNL     1      -2.981   6.698  -4.152  0.00  0.00    -0.471 OA
ENDBRANCH   9  16
ENDBRANCH   8  12
ENDBRANCH   1   8
BRANCH   1  17
ATOM     17  C   UNL     1       2.806   5.206  -7.986  0.00  0.00    +0.110 C 
BRANCH  17  18
ATOM     18  C   UNL     1       3.613   4.354  -8.927  0.00  0.00    +0.094 C 
BRANCH  18  19
ATOM     19  N   UNL     1       4.594   5.127  -9.676  0.00  0.00    -0.269 NA
ATOM     20  C   UNL     1       4.034   6.337 -10.233  0.00  0.00    +0.090 C 
ATOM     21  C   UNL     1       5.780   5.393  -8.876  0.00  0.00    +0.090 C 
ENDBRANCH  18  19
ENDBRANCH  17  18
ENDBRANCH   1  17
TORSDOF 7
ENDMDL
MODEL 4
REMARK VINA RESULT:      -6.6      2.359      4.911
REMARK  Name = 
REMARK  7 active torsions:
REMARK  status: ('A' for Active; 'I' for Inactive)
REMARK    1  A    between atoms: O_2  and  C_3
REMARK    2  A    between atoms: C_6  and  C_7
REMARK    3  A    between atoms: C_7  and  N_8
REMARK    4  A    between atoms: N_8  and  C_9
REMARK    5  A    between atoms: N_8  and  C_14
REMARK    6  A    between atoms: C_9  and  C_10
REMARK    7  A    between atoms: C_10  and  N_11
REMARK                            x       y       z     vdW  Elec       q    Type
REMARK                         _______ _______ _______ _____ _____    ______ ____
ROOT
ATOM      1  N   UNL     1       1.855   6.348  -5.825  0.00  0.00    -0.288 N 
ENDROOT
BRANCH   1   2
ATOM      2  C   UNL     1       0.462   6.485  -6.130  0.00  0.00    +0.132 A 
ATOM      3  N   UNL     1      -0.162   5.542  -6.866  0.00  0.00    -0.229 NA
ATOM      4  C   UNL     1      -1.499   5.349  -6.829  0.00  0.00    +0.100 A 
ATOM      5  C   UNL     1      -2.143   5.723  -5.664  0.00  0.00    +0.021 A 
ATOM      6  C   UNL     1      -1.642   6.789  -4.958  0.00  0.00    +0.004 A 
ATOM      7  C   UNL     1      -0.339   7.183  -5.235  0.00  0.00    +0.034 A 
ENDBRANCH   1   2
BRANCH   1   8
ATOM      8  C   UNL     1       2.808   7.084  -6.619  0.00  0.00    +0.119 C 
BRANCH   8  12
ATOM      9  C   UNL     1       5.405   5.849  -9.640  0.00  0.00    +0.139 A 
ATOM     10  C   UNL     1       5.476   5.262  -8.406  0.00  0.00    +0.037 A 
ATOM     11  C   UNL     1       4.428   5.394  -7.538  0.00  0.00    +0.000 A 
ATOM     12  C   UNL     1       3.372   6.272  -7.735  0.00  0.00    -0.002 A 
ATOM     13  C   UNL     1       3.285   6.805  -9.016  0.00  0.00    +0.000 A 
ATOM     14  C   UNL     1       4.309   6.636  -9.939  0.00  0.00    +0.037 A 
BRANCH   9  16
ATOM     15  C   UNL     1       7.543   6.531 -10.661  0.00  0.00    +0.252 C 
ATOM     16  O   UNL     1       6.397   5.710 -10.614  0.00  0.00    -0.471 OA
ENDBRANCH   9  16
ENDBRANCH   8  12
ENDBRANCH   1   8
BRANCH   1  17
ATOM     17  C   UNL     1       2.216   6.132  -4.426  0.00  0.00    +0.110 C 
BRANCH  17  18
ATOM     18  C   UNL     1       3.172   7.180  -3.923  0.00  0.00    +0.094 C 
BRANCH  18  19
ATOM     19  N   UNL     1       4.445   6.615  -3.498  0.00  0.00    -0.269 NA
ATOM     20  C   UNL     1       4.524   5.192  -3.737  0.00  0.00    +0.090 C 
ATOM     21  C   UNL     1       5.565   7.330  -4.090  0.00  0.00    +0.090 C 
ENDBRANCH  18  19
ENDBRANCH  17  18
ENDBRANCH   1  17
TORSDOF 7
ENDMDL
MODEL 5
REMARK VINA RESULT:      -6.6      3.030      5.563
REMARK  Name = 
REMARK  7 active torsions:
REMARK  status: ('A' for Active; 'I' for Inactive)
REMARK    1  A    between atoms: O_2  and  C_3
REMARK    2  A    between atoms: C_6  and  C_7
REMARK    3  A    between atoms: C_7  and  N_8
REMARK    4  A    between atoms: N_8  and  C_9
REMARK    5  A    between atoms: N_8  and  C_14
REMARK    6  A    between atoms: C_9  and  C_10
REMARK    7  A    between atoms: C_10  and  N_11
REMARK                            x       y       z     vdW  Elec       q    Type
REMARK                         _______ _______ _______ _____ _____    ______ ____
ROOT
ATOM      1  N   UNL     1       0.982   4.916  -6.947  0.00  0.00    -0.288 N 
ENDROOT
BRANCH   1   2
ATOM      2  C   UNL     1      -0.217   4.992  -6.166  0.00  0.00    +0.132 A 
ATOM      3  N   UNL     1      -0.172   5.485  -4.911  0.00  0.00    -0.229 NA
ATOM      4  C   UNL     1      -1.255   5.997  -4.286  0.00  0.00    +0.100 A 
ATOM      5  C   UNL     1      -2.247   6.515  -5.099  0.00  0.00    +0.021 A 
ATOM      6  C   UNL     1      -2.445   5.938  -6.330  0.00  0.00    +0.004 A 
ATOM      7  C   UNL     1      -1.425   5.142  -6.834  0.00  0.00    +0.034 A 
ENDBRANCH   1   2
BRANCH   1   8
ATOM      8  C   UNL     1       1.306   6.020  -7.817  0.00  0.00    +0.119 C 
BRANCH   8  12
ATOM      9  C   UNL     1       1.471   6.396 -11.967  0.00  0.00    +0.139 A 
ATOM     10  C   UNL     1       2.519   5.825 -11.298  0.00  0.00    +0.037 A 
ATOM     11  C   UNL     1       2.336   5.378 -10.020  0.00  0.00    +0.000 A 
ATOM     12  C   UNL     1       1.209   5.659  -9.260  0.00  0.00    -0.002 A 
ATOM     13  C   UNL     1       0.136   6.179  -9.974  0.00  0.00    +0.000 A 
ATOM     14  C   UNL     1       0.278   6.587 -11.295  0.00  0.00    +0.037 A 
BRANCH   9  16
ATOM     15  C   UNL     1       0.597   7.681 -13.882  0.00  0.00    +0.252 C 
ATOM     16  O   UNL     1       1.548   6.818 -13.297  0.00  0.00    -0.471 OA
ENDBRANCH   9  16
ENDBRANCH   8  12
ENDBRANCH   1   8
BRANCH   1  17
ATOM     17  C   UNL     1       2.117   4.203  -6.365  0.00  0.00    +0.110 C 
BRANCH  17  18
ATOM     18  C   UNL     1       3.326   5.087  -6.227  0.00  0.00    +0.094 C 
BRANCH  18  19
ATOM     19  N   UNL     1       3.519   5.559  -4.863  0.00  0.00    -0.269 NA
ATOM     20  C   UNL     1       4.658   4.942  -4.223  0.00  0.00    +0.090 C 
ATOM     21  C   UNL     1       3.585   7.012  -4.810  0.00  0.00    +0.090 C 
ENDBRANCH  18  19
ENDBRANCH  17  18
ENDBRANCH   1  17
TORSDOF 7
ENDMDL
MODEL 6
REMARK VINA RESULT:      -6.5      2.743      5.453
REMARK  Name = 
REMARK  7 active torsions:
REMARK  status: ('A' for Active; 'I' for Inactive)
REMARK    1  A    between atoms: O_2  and  C_3
REMARK    2  A    between atoms: C_6  and  C_7
REMARK    3  A    between atoms: C_7  and  N_8
REMARK    4  A    between atoms: N_8  and  C_9
REMARK    5  A    between atoms: N_8  and  C_14
REMARK    6  A    between atoms: C_9  and  C_10
REMARK    7  A    between atoms: C_10  and  N_11
REMARK                            x       y       z     vdW  Elec       q    Type
REMARK                         _______ _______ _______ _____ _____    ______ ____
ROOT
ATOM      1  N   UNL     1       3.976   5.338 -10.391  0.00  0.00    -0.288 N 
ENDROOT
BRANCH   1   2
ATOM      2  C   UNL     1       5.203   5.911 -10.858  0.00  0.00    +0.132 A 
ATOM      3  N   UNL     1       5.222   7.179 -11.319  0.00  0.00    -0.229 NA
ATOM      4  C   UNL     1       6.344   7.930 -11.354  0.00  0.00    +0.100 A 
ATOM      5  C   UNL     1       7.325   7.614 -10.432  0.00  0.00    +0.021 A 
ATOM      6  C   UNL     1       7.459   6.301 -10.050  0.00  0.00    +0.004 A 
ATOM      7  C   UNL     1       6.392   5.449 -10.308  0.00  0.00    +0.034 A 
ENDBRANCH   1   2
BRANCH   1   8
ATOM      8  C   UNL     1       4.024   4.428  -9.273  0.00  0.00    +0.119 C 
BRANCH   8  12
ATOM      9  C   UNL     1       3.344   5.013  -5.200  0.00  0.00    +0.139 A 
ATOM     10  C   UNL     1       4.343   5.707  -5.824  0.00  0.00    +0.037 A 
ATOM     11  C   UNL     1       4.348   5.798  -7.188  0.00  0.00    +0.000 A 
ATOM     12  C   UNL     1       3.522   5.045  -8.012  0.00  0.00    -0.002 A 
ATOM     13  C   UNL     1       2.476   4.401  -7.361  0.00  0.00    +0.000 A 
ATOM     14  C   UNL     1       2.414   4.345  -5.975  0.00  0.00    +0.037 A 
BRANCH   9  16
ATOM     15  C   UNL     1       4.240   5.341  -2.926  0.00  0.00    +0.252 C 
ATOM     16  O   UNL     1       3.222   4.927  -3.811  0.00  0.00    -0.471 OA
ENDBRANCH   9  16
ENDBRANCH   8  12
ENDBRANCH   1   8
BRANCH   1  17
ATOM     17  C   UNL     1       2.770   6.155 -10.503  0.00  0.00    +0.110 C 
BRANCH  17  18
ATOM     18  C   UNL     1       1.991   5.843 -11.751  0.00  0.00    +0.094 C 
BRANCH  18  19
ATOM     19  N   UNL     1       0.574   5.639 -11.487  0.00  0.00    -0.269 NA
ATOM     20  C   UNL     1       0.336   4.550 -10.568  0.00  0.00    +0.090 C 
ATOM     21  C   UNL     1      -0.066   6.870 -11.050  0.00  0.00    +0.090 C 
ENDBRANCH  18  19
ENDBRANCH  17  18
ENDBRANCH   1  17
TORSDOF 7
ENDMDL
MODEL 7
REMARK VINA RESULT:      -6.5      4.157      6.613
REMARK  Name = 
REMARK  7 active torsions:
REMARK  status: ('A' for Active; 'I' for Inactive)
REMARK    1  A    between atoms: O_2  and  C_3
REMARK    2  A    between atoms: C_6  and  C_7
REMARK    3  A    between atoms: C_7  and  N_8
REMARK    4  A    between atoms: N_8  and  C_9
REMARK    5  A    between atoms: N_8  and  C_14
REMARK    6  A    between atoms: C_9  and  C_10
REMARK    7  A    between atoms: C_10  and  N_11
REMARK                            x       y       z     vdW  Elec       q    Type
REMARK                         _______ _______ _______ _____ _____    ______ ____
ROOT
ATOM      1  N   UNL     1       2.562   4.913  -6.800  0.00  0.00    -0.288 N 
ENDROOT
BRANCH   1   2
ATOM      2  C   UNL     1       3.568   5.402  -5.905  0.00  0.00    +0.132 A 
ATOM      3  N   UNL     1       3.811   6.727  -5.824  0.00  0.00    -0.229 NA
ATOM      4  C   UNL     1       4.384   7.302  -4.744  0.00  0.00    +0.100 A 
ATOM      5  C   UNL     1       4.216   6.649  -3.536  0.00  0.00    +0.021 A 
ATOM      6  C   UNL     1       4.127   5.279  -3.546  0.00  0.00    +0.004 A 
ATOM      7  C   UNL     1       3.838   4.666  -4.758  0.00  0.00    +0.034 A 
ENDBRANCH   1   2
BRANCH   1   8
ATOM      8  C   UNL     1       1.352   4.363  -6.241  0.00  0.00    +0.119 C 
BRANCH   8  12
ATOM      9  C   UNL     1      -1.988   6.161  -4.508  0.00  0.00    +0.139 A 
ATOM     10  C   UNL     1      -0.767   6.279  -3.902  0.00  0.00    +0.037 A 
ATOM     11  C   UNL     1       0.366   6.013  -4.619  0.00  0.00    +0.000 A 
ATOM     12  C   UNL     1       0.362   5.414  -5.871  0.00  0.00    -0.002 A 
ATOM     13  C   UNL     1      -0.880   5.364  -6.492  0.00  0.00    +0.000 A 
ATOM     14  C   UNL     1      -2.043   5.687  -5.805  0.00  0.00    +0.037 A 
BRANCH   9  16
ATOM     15  C   UNL     1      -3.341   6.478  -2.471  0.00  0.00    +0.252 C 
ATOM     16  O   UNL     1      -3.192   6.478  -3.874  0.00  0.00    -0.471 OA
ENDBRANCH   9  16
ENDBRANCH   8  12
ENDBRANCH   1   8
BRANCH   1  17
ATOM     17  C   UNL     1       2.423   5.594  -8.086  0.00  0.00    +0.110 C 
BRANCH  17  18
ATOM     18  C   UNL     1       1.864   4.684  -9.146  0.00  0.00    +0.094 C 
BRANCH  18  19
ATOM     19  N   UNL     1       0.647   5.211  -9.748  0.00  0.00    -0.269 NA
ATOM     20  C   UNL     1       0.768   6.606 -10.104  0.00  0.00    +0.090 C 
ATOM     21  C   UNL     1       0.218   4.396 -10.874  0.00  0.00    +0.090 C 
ENDBRANCH  18  19
ENDBRANCH  17  18
ENDBRANCH   1  17
TORSDOF 7
ENDMDL
MODEL 8
REMARK VINA RESULT:      -6.5      3.161      5.613
REMARK  Name = 
REMARK  7 active torsions:
REMARK  status: ('A' for Active; 'I' for Inactive)
REMARK    1  A    between atoms: O_2  and  C_3
REMARK    2  A    between atoms: C_6  and  C_7
REMARK    3  A    between atoms: C_7  and  N_8
REMARK    4  A    between atoms: N_8  and  C_9
REMARK    5  A    between atoms: N_8  and  C_14
REMARK    6  A    between atoms: C_9  and  C_10
REMARK    7  A    between atoms: C_10  and  N_11
REMARK                            x       y       z     vdW  Elec       q    Type
REMARK                         _______ _______ _______ _____ _____    ______ ____
ROOT
ATOM      1  N   UNL     1       1.114   5.258  -7.063  0.00  0.00    -0.288 N 
ENDROOT
BRANCH   1   2
ATOM      2  C   UNL     1       0.000   5.419  -6.176  0.00  0.00    +0.132 A 
ATOM      3  N   UNL     1       0.066   6.315  -5.168  0.00  0.00    -0.229 NA
ATOM      4  C   UNL     1      -1.031   6.845  -4.586  0.00  0.00    +0.100 A 
ATOM      5  C   UNL     1      -2.175   6.899  -5.362  0.00  0.00    +0.021 A 
ATOM      6  C   UNL     1      -2.373   5.912  -6.296  0.00  0.00    +0.004 A 
ATOM      7  C   UNL     1      -1.272   5.151  -6.665  0.00  0.00    +0.034 A 
ENDBRANCH   1   2
BRANCH   1   8
ATOM      8  C   UNL     1       2.155   4.330  -6.697  0.00  0.00    +0.119 C 
BRANCH   8  12
ATOM      9  C   UNL     1       4.163   6.886  -4.082  0.00  0.00    +0.139 A 
ATOM     10  C   UNL     1       3.902   5.598  -3.702  0.00  0.00    +0.037 A 
ATOM     11  C   UNL     1       3.578   4.669  -4.651  0.00  0.00    +0.000 A 
ATOM     12  C   UNL     1       3.277   4.988  -5.967  0.00  0.00    -0.002 A 
ATOM     13  C   UNL     1       3.610   6.283  -6.347  0.00  0.00    +0.000 A 
ATOM     14  C   UNL     1       4.001   7.231  -5.411  0.00  0.00    +0.037 A 
BRANCH   9  16
ATOM     15  C   UNL     1       3.837   8.212  -2.030  0.00  0.00    +0.252 C 
ATOM     16  O   UNL     1       4.567   7.882  -3.191  0.00  0.00    -0.471 OA
ENDBRANCH   9  16
ENDBRANCH   8  12
ENDBRANCH   1   8
BRANCH   1  17
ATOM     17  C   UNL     1       0.855   5.401  -8.494  0.00  0.00    +0.110 C 
BRANCH  17  18
ATOM     18  C   UNL     1       1.855   4.644  -9.325  0.00  0.00    +0.094 C 
BRANCH  18  19
ATOM     19  N   UNL     1       2.838   5.518  -9.948  0.00  0.00    -0.269 NA
ATOM     20  C   UNL     1       4.181   4.993  -9.854  0.00  0.00    +0.090 C 
ATOM     21  C   UNL     1       2.472   5.834 -11.320  0.00  0.00    +0.090 C 
ENDBRANCH  18  19
ENDBRANCH  17  18
ENDBRANCH   1  17
TORSDOF 7
ENDMDL
MODEL 9
REMARK VINA RESULT:      -6.5      3.027      5.795
REMARK  Name = 
REMARK  7 active torsions:
REMARK  status: ('A' for Active; 'I' for Inactive)
REMARK    1  A    between atoms: O_2  and  C_3
REMARK    2  A    between atoms: C_6  and  C_7
REMARK    3  A    between atoms: C_7  and  N_8
REMARK    4  A    between atoms: N_8  and  C_9
REMARK    5  A    between atoms: N_8  and  C_14
REMARK    6  A    between atoms: C_9  and  C_10
REMARK    7  A    between atoms: C_10  and  N_11
REMARK                            x       y       z     vdW  Elec       q    Type
REMARK                         _______ _______ _______ _____ _____    ______ ____
ROOT
ATOM      1  N   UNL     1       2.854   5.434  -5.381  0.00  0.00    -0.288 N 
ENDROOT
BRANCH   1   2
ATOM      2  C   UNL     1       1.441   5.392  -5.148  0.00  0.00    +0.132 A 
ATOM      3  N   UNL     1       0.829   6.426  -4.533  0.00  0.00    -0.229 NA
ATOM      4  C   UNL     1      -0.492   6.679  -4.665  0.00  0.00    +0.100 A 
ATOM      5  C   UNL     1      -1.090   6.236  -5.831  0.00  0.00    +0.021 A 
ATOM      6  C   UNL     1      -0.608   5.088  -6.413  0.00  0.00    +0.004 A 
ATOM      7  C   UNL     1       0.654   4.658  -6.026  0.00  0.00    +0.034 A 
ENDBRANCH   1   2
BRANCH   1   8
ATOM      8  C   UNL     1       3.423   6.636  -5.939  0.00  0.00    +0.119 C 
BRANCH   8  12
ATOM      9  C   UNL     1       2.045   5.795  -9.784  0.00  0.00    +0.139 A 
ATOM     10  C   UNL     1       1.553   6.880  -9.112  0.00  0.00    +0.037 A 
ATOM     11  C   UNL     1       2.233   7.366  -8.031  0.00  0.00    +0.000 A 
ATOM     12  C   UNL     1       3.287   6.699  -7.422  0.00  0.00    -0.002 A 
ATOM     13  C   UNL     1       3.811   5.640  -8.154  0.00  0.00    +0.000 A 
ATOM     14  C   UNL     1       3.173   5.164  -9.292  0.00  0.00    +0.037 A 
BRANCH   9  16
ATOM     15  C   UNL     1       0.153   4.731 -10.952  0.00  0.00    +0.252 C 
ATOM     16  O   UNL     1       1.455   5.273 -10.938  0.00  0.00    -0.471 OA
ENDBRANCH   9  16
ENDBRANCH   8  12
ENDBRANCH   1   8
BRANCH   1  17
ATOM     17  C   UNL     1       3.707   4.689  -4.458  0.00  0.00    +0.110 C 
BRANCH  17  18
ATOM     18  C   UNL     1       4.328   5.583  -3.419  0.00  0.00    +0.094 C 
BRANCH  18  19
ATOM     19  N   UNL     1       3.509   5.699  -2.221  0.00  0.00    -0.269 NA
ATOM     20  C   UNL     1       3.995   4.874  -1.140  0.00  0.00    +0.090 C 
ATOM     21  C   UNL     1       3.354   7.089  -1.819  0.00  0.00    +0.090 C 
ENDBRANCH  18  19
ENDBRANCH  17  18
ENDBRANCH   1  17
TORSDOF 7
ENDMDL
