MODEL 1
REMARK VINA RESULT:      -6.9      0.000      0.000
REMARK  Name = 
REMARK  6 active torsions:
REMARK  status: ('A' for Active; 'I' for Inactive)
REMARK    1  A    between atoms: C_2  and  N_4
REMARK    2  A    between atoms: N_4  and  C_5
REMARK    3  A    between atoms: C_5  and  C_6
REMARK    4  A    between atoms: C_6  and  C_8
REMARK    5  A    between atoms: C_8  and  O_9
REMARK    6  A    between atoms: O_9  and  C_10
REMARK                            x       y       z     vdW  Elec       q    Type
REMARK                         _______ _______ _______ _____ _____    ______ ____
ROOT
ATOM      1  C   UNL     1      -0.897   5.332  -2.642  0.00  0.00    +0.139 A 
ATOM      2  C   UNL     1      -1.011   5.526  -3.991  0.00  0.00    +0.034 A 
ATOM      3  C   UNL     1      -2.178   6.068  -4.508  0.00  0.00    +0.003 A 
ATOM      4  C   UNL     1      -2.370   6.138  -5.871  0.00  0.00    +0.000 A 
ATOM      5  C   UNL     1      -1.478   5.457  -6.674  0.00  0.00    +0.000 A 
ATOM      6  C   UNL     1      -0.235   5.140  -6.151  0.00  0.00    +0.000 A 
ATOM      7  C   UNL     1      -3.039   6.752  -3.667  0.00  0.00    +0.000 A 
ATOM      8  C   UNL     1      -2.883   6.539  -2.305  0.00  0.00    +0.003 A 
ATOM      9  C   UNL     1       0.083   5.513  -4.849  0.00  0.00    +0.003 A 
ATOM     10  C   UNL     1      -1.909   5.698  -1.797  0.00  0.00    +0.037 A 
ENDROOT
BRANCH   1  11
ATOM     11  O   UNL     1       0.249   4.759  -2.123  0.00  0.00    -0.473 OA
BRANCH  11  12
ATOM     12  C   UNL     1       0.945   5.347  -1.099  0.00  0.00    +0.240 C 
BRANCH  12  13
ATOM     13  C   UNL     1       2.558   5.240  -1.408  0.00  0.00    +0.213 C 
ATOM     14  O   UNL     1       2.953   5.984  -0.144  0.00  0.00    -0.218 OA
BRANCH  13  15
ATOM     15  C   UNL     1       2.551   6.629  -2.300  0.00  0.00    +0.125 C 
BRANCH  15  16
ATOM     16  N   UNL     1       3.379   6.191  -3.419  0.00  0.00    -0.217 NA
BRANCH  16  18
ATOM     17  C   UNL     1       3.547   6.965  -5.521  0.00  0.00    +0.019 C 
ATOM     18  C   UNL     1       3.732   7.281  -4.294  0.00  0.00    +0.073 C 
ATOM     19  C   UNL     1       5.194   7.660  -4.151  0.00  0.00    +0.019 C 
ENDBRANCH  16  18
ENDBRANCH  15  16
ENDBRANCH  13  15
ENDBRANCH  12  13
ENDBRANCH  11  12
ENDBRANCH   1  11
TORSDOF 6
ENDMDL
MODEL 2
REMARK VINA RESULT:      -6.7      5.954      8.913
REMARK  Name = 
REMARK  6 active torsions:
REMARK  status: ('A' for Active; 'I' for Inactive)
REMARK    1  A    between atoms: C_2  and  N_4
REMARK    2  A    between atoms: N_4  and  C_5
REMARK    3  A    between atoms: C_5  and  C_6
REMARK    4  A    between atoms: C_6  and  C_8
REMARK    5  A    between atoms: C_8  and  O_9
REMARK    6  A    between atoms: O_9  and  C_10
REMARK                            x       y       z     vdW  Elec       q    Type
REMARK                         _______ _______ _______ _____ _____    ______ ____
ROOT
ATOM      1  C   UNL     1       4.312   6.467 -10.980  0.00  0.00    +0.139 A 
ATOM      2  C   UNL     1       5.631   6.346 -11.317  0.00  0.00    +0.034 A 
ATOM      3  C   UNL     1       5.987   5.608 -12.436  0.00  0.00    +0.003 A 
ATOM      4  C   UNL     1       7.314   5.354 -12.710  0.00  0.00    +0.000 A 
ATOM      5  C   UNL     1       8.235   5.660 -11.730  0.00  0.00    +0.000 A 
ATOM      6  C   UNL     1       7.879   6.583 -10.761  0.00  0.00    +0.000 A 
ATOM      7  C   UNL     1       5.032   5.332 -13.399  0.00  0.00    +0.000 A 
ATOM      8  C   UNL     1       3.705   5.480 -13.023  0.00  0.00    +0.003 A 
ATOM      9  C   UNL     1       6.620   7.175 -10.798  0.00  0.00    +0.003 A 
ATOM     10  C   UNL     1       3.339   5.895 -11.755  0.00  0.00    +0.037 A 
ENDROOT
BRANCH   1  11
ATOM     11  O   UNL     1       3.952   7.172  -9.847  0.00  0.00    -0.473 OA
BRANCH  11  12
ATOM     12  C   UNL     1       3.543   6.534  -8.704  0.00  0.00    +0.240 C 
BRANCH  12  13
ATOM     13  C   UNL     1       1.988   6.960  -8.373  0.00  0.00    +0.213 C 
ATOM     14  O   UNL     1       2.359   8.366  -7.934  0.00  0.00    -0.218 OA
BRANCH  13  15
ATOM     15  C   UNL     1       2.084   6.383  -6.830  0.00  0.00    +0.125 C 
BRANCH  15  16
ATOM     16  N   UNL     1       3.149   7.246  -6.326  0.00  0.00    -0.217 NA
BRANCH  16  18
ATOM     17  C   UNL     1       4.566   7.581  -4.615  0.00  0.00    +0.019 C 
ATOM     18  C   UNL     1       3.690   6.769  -5.077  0.00  0.00    +0.073 C 
ATOM     19  C   UNL     1       4.378   5.427  -5.245  0.00  0.00    +0.019 C 
ENDBRANCH  16  18
ENDBRANCH  15  16
ENDBRANCH  13  15
ENDBRANCH  12  13
ENDBRANCH  11  12
ENDBRANCH   1  11
TORSDOF 6
ENDMDL
MODEL 3
REMARK VINA RESULT:      -6.7      7.619     11.036
REMARK  Name = 
REMARK  6 active torsions:
REMARK  status: ('A' for Active; 'I' for Inactive)
REMARK    1  A    between atoms: C_2  and  N_4
REMARK    2  A    between atoms: N_4  and  C_5
REMARK    3  A    between atoms: C_5  and  C_6
REMARK    4  A    between atoms: C_6  and  C_8
REMARK    5  A    between atoms: C_8  and  O_9
REMARK    6  A    between atoms: O_9  and  C_10
REMARK                            x       y       z     vdW  Elec       q    Type
REMARK                         _______ _______ _______ _____ _____    ______ ____
ROOT
ATOM      1  C   UNL     1       5.674   5.299 -12.781  0.00  0.00    +0.139 A 
ATOM      2  C   UNL     1       5.746   5.479 -11.427  0.00  0.00    +0.034 A 
ATOM      3  C   UNL     1       6.953   5.838 -10.847  0.00  0.00    +0.003 A 
ATOM      4  C   UNL     1       7.081   5.883  -9.475  0.00  0.00    +0.000 A 
ATOM      5  C   UNL     1       6.055   5.349  -8.723  0.00  0.00    +0.000 A 
ATOM      6  C   UNL     1       4.807   5.224  -9.312  0.00  0.00    +0.000 A 
ATOM      7  C   UNL     1       7.951   6.380 -11.638  0.00  0.00    +0.000 A 
ATOM      8  C   UNL     1       7.836   6.188 -13.007  0.00  0.00    +0.003 A 
ATOM      9  C   UNL     1       4.618   5.636 -10.628  0.00  0.00    +0.003 A 
ATOM     10  C   UNL     1       6.773   5.504 -13.570  0.00  0.00    +0.037 A 
ENDROOT
BRANCH   1  11
ATOM     11  O   UNL     1       4.483   4.906 -13.362  0.00  0.00    -0.473 OA
BRANCH  11  12
ATOM     12  C   UNL     1       3.669   5.801 -14.006  0.00  0.00    +0.240 C 
BRANCH  12  13
ATOM     13  C   UNL     1       2.121   5.241 -13.982  0.00  0.00    +0.213 C 
ATOM     14  O   UNL     1       1.656   6.181 -15.081  0.00  0.00    -0.218 OA
BRANCH  13  15
ATOM     15  C   UNL     1       1.680   6.303 -12.799  0.00  0.00    +0.125 C 
BRANCH  15  16
ATOM     16  N   UNL     1       0.722   5.466 -12.082  0.00  0.00    -0.217 NA
BRANCH  16  18
ATOM     17  C   UNL     1      -0.303   7.398 -11.566  0.00  0.00    +0.019 C 
ATOM     18  C   UNL     1      -0.051   6.222 -11.127  0.00  0.00    +0.073 C 
ATOM     19  C   UNL     1       0.692   6.389  -9.815  0.00  0.00    +0.019 C 
ENDBRANCH  16  18
ENDBRANCH  15  16
ENDBRANCH  13  15
ENDBRANCH  12  13
ENDBRANCH  11  12
ENDBRANCH   1  11
TORSDOF 6
ENDMDL
MODEL 4
REMARK VINA RESULT:      -6.6      6.450      9.766
REMARK  Name = 
REMARK  6 active torsions:
REMARK  status: ('A' for Active; 'I' for Inactive)
REMARK    1  A    between atoms: C_2  and  N_4
REMARK    2  A    between atoms: N_4  and  C_5
REMARK    3  A    between atoms: C_5  and  C_6
REMARK    4  A    between atoms: C_6  and  C_8
REMARK    5  A    between atoms: C_8  and  O_9
REMARK    6  A    between atoms: O_9  and  C_10
REMARK                            x       y       z     vdW  Elec       q    Type
REMARK                         _______ _______ _______ _____ _____    ______ ____
ROOT
ATOM      1  C   UNL     1       4.825   5.786 -10.892  0.00  0.00    +0.139 A 
ATOM      2  C   UNL     1       6.025   5.686 -11.540  0.00  0.00    +0.034 A 
ATOM      3  C   UNL     1       7.203   5.738 -10.810  0.00  0.00    +0.003 A 
ATOM      4  C   UNL     1       8.420   5.786 -11.455  0.00  0.00    +0.000 A 
ATOM      5  C   UNL     1       8.411   6.005 -12.817  0.00  0.00    +0.000 A 
ATOM      6  C   UNL     1       7.251   5.717 -13.518  0.00  0.00    +0.000 A 
ATOM      7  C   UNL     1       7.167   5.503  -9.447  0.00  0.00    +0.000 A 
ATOM      8  C   UNL     1       5.929   5.599  -8.829  0.00  0.00    +0.003 A 
ATOM      9  C   UNL     1       6.140   5.219 -12.845  0.00  0.00    +0.003 A 
ATOM     10  C   UNL     1       4.775   5.901  -9.530  0.00  0.00    +0.037 A 
ENDROOT
BRANCH   1  11
ATOM     11  O   UNL     1       3.648   5.770 -11.617  0.00  0.00    -0.473 OA
BRANCH  11  12
ATOM     12  C   UNL     1       2.498   6.338 -11.132  0.00  0.00    +0.240 C 
BRANCH  12  13
ATOM     13  C   UNL     1       1.208   5.422 -11.587  0.00  0.00    +0.213 C 
ATOM     14  O   UNL     1       0.193   6.499 -11.242  0.00  0.00    -0.218 OA
BRANCH  13  15
ATOM     15  C   UNL     1       1.080   4.734 -10.093  0.00  0.00    +0.125 C 
BRANCH  15  16
ATOM     16  N   UNL     1       1.135   5.942  -9.275  0.00  0.00    -0.217 NA
BRANCH  16  18
ATOM     17  C   UNL     1      -0.313   5.499  -7.615  0.00  0.00    +0.019 C 
ATOM     18  C   UNL     1       0.930   5.661  -7.875  0.00  0.00    +0.073 C 
ATOM     19  C   UNL     1       1.419   6.801  -7.001  0.00  0.00    +0.019 C 
ENDBRANCH  16  18
ENDBRANCH  15  16
ENDBRANCH  13  15
ENDBRANCH  12  13
ENDBRANCH  11  12
ENDBRANCH   1  11
TORSDOF 6
ENDMDL
MODEL 5
REMARK VINA RESULT:      -6.5      6.665      9.901
REMARK  Name = 
REMARK  6 active torsions:
REMARK  status: ('A' for Active; 'I' for Inactive)
REMARK    1  A    between atoms: C_2  and  N_4
REMARK    2  A    between atoms: N_4  and  C_5
REMARK    3  A    between atoms: C_5  and  C_6
REMARK    4  A    between atoms: C_6  and  C_8
REMARK    5  A    between atoms: C_8  and  O_9
REMARK    6  A    between atoms: O_9  and  C_10
REMARK                            x       y       z     vdW  Elec       q    Type
REMARK                         _______ _______ _______ _____ _____    ______ ____
ROOT
ATOM      1  C   UNL     1       5.483   5.641 -10.294  0.00  0.00    +0.139 A 
ATOM      2  C   UNL     1       5.802   5.607 -11.623  0.00  0.00    +0.034 A 
ATOM      3  C   UNL     1       7.129   5.710 -12.011  0.00  0.00    +0.003 A 
ATOM      4  C   UNL     1       7.458   5.823 -13.345  0.00  0.00    +0.000 A 
ATOM      5  C   UNL     1       6.431   6.053 -14.236  0.00  0.00    +0.000 A 
ATOM      6  C   UNL     1       5.143   5.715 -13.853  0.00  0.00    +0.000 A 
ATOM      7  C   UNL     1       8.128   5.461 -11.086  0.00  0.00    +0.000 A 
ATOM      8  C   UNL     1       7.762   5.491  -9.748  0.00  0.00    +0.003 A 
ATOM      9  C   UNL     1       4.918   5.157 -12.598  0.00  0.00    +0.003 A 
ATOM     10  C   UNL     1       6.463   5.742  -9.344  0.00  0.00    +0.037 A 
ENDROOT
BRANCH   1  11
ATOM     11  O   UNL     1       4.159   5.574  -9.901  0.00  0.00    -0.473 OA
BRANCH  11  12
ATOM     12  C   UNL     1       3.802   5.561  -8.578  0.00  0.00    +0.240 C 
BRANCH  12  13
ATOM     13  C   UNL     1       2.266   4.986  -8.437  0.00  0.00    +0.213 C 
ATOM     14  O   UNL     1       2.678   3.541  -8.661  0.00  0.00    -0.218 OA
BRANCH  13  15
ATOM     15  C   UNL     1       1.958   5.214 -10.042  0.00  0.00    +0.125 C 
BRANCH  15  16
ATOM     16  N   UNL     1       0.531   4.908 -10.050  0.00  0.00    -0.217 NA
BRANCH  16  18
ATOM     17  C   UNL     1       0.622   5.061 -12.289  0.00  0.00    +0.019 C 
ATOM     18  C   UNL     1      -0.109   5.328 -11.272  0.00  0.00    +0.073 C 
ATOM     19  C   UNL     1      -0.355   6.825 -11.287  0.00  0.00    +0.019 C 
ENDBRANCH  16  18
ENDBRANCH  15  16
ENDBRANCH  13  15
ENDBRANCH  12  13
ENDBRANCH  11  12
ENDBRANCH   1  11
TORSDOF 6
ENDMDL
MODEL 6
REMARK VINA RESULT:      -6.5      2.063      3.726
REMARK  Name = 
REMARK  6 active torsions:
REMARK  status: ('A' for Active; 'I' for Inactive)
REMARK    1  A    between atoms: C_2  and  N_4
REMARK    2  A    between atoms: N_4  and  C_5
REMARK    3  A    between atoms: C_5  and  C_6
REMARK    4  A    between atoms: C_6  and  C_8
REMARK    5  A    between atoms: C_8  and  O_9
REMARK    6  A    between atoms: O_9  and  C_10
REMARK                            x       y       z     vdW  Elec       q    Type
REMARK                         _______ _______ _______ _____ _____    ______ ____
ROOT
ATOM      1  C   UNL     1       0.082   5.343  -5.092  0.00  0.00    +0.139 A 
ATOM      2  C   UNL     1      -0.848   5.673  -4.145  0.00  0.00    +0.034 A 
ATOM      3  C   UNL     1      -2.137   6.001  -4.537  0.00  0.00    +0.003 A 
ATOM      4  C   UNL     1      -3.046   6.476  -3.615  0.00  0.00    +0.000 A 
ATOM      5  C   UNL     1      -2.567   6.818  -2.367  0.00  0.00    +0.000 A 
ATOM      6  C   UNL     1      -1.364   6.269  -1.955  0.00  0.00    +0.000 A 
ATOM      7  C   UNL     1      -2.579   5.630  -5.795  0.00  0.00    +0.000 A 
ATOM      8  C   UNL     1      -1.607   5.289  -6.723  0.00  0.00    +0.003 A 
ATOM      9  C   UNL     1      -0.677   5.396  -2.793  0.00  0.00    +0.003 A 
ATOM     10  C   UNL     1      -0.258   5.301  -6.417  0.00  0.00    +0.037 A 
ENDROOT
BRANCH   1  11
ATOM     11  O   UNL     1       1.378   5.049  -4.711  0.00  0.00    -0.473 OA
BRANCH  11  12
ATOM     12  C   UNL     1       2.274   4.492  -5.586  0.00  0.00    +0.240 C 
BRANCH  12  13
ATOM     13  C   UNL     1       3.780   5.073  -5.263  0.00  0.00    +0.213 C 
ATOM     14  O   UNL     1       3.401   5.570  -3.878  0.00  0.00    -0.218 OA
BRANCH  13  15
ATOM     15  C   UNL     1       3.440   6.535  -5.950  0.00  0.00    +0.125 C 
BRANCH  15  16
ATOM     16  N   UNL     1       3.793   6.229  -7.333  0.00  0.00    -0.217 NA
BRANCH  16  18
ATOM     17  C   UNL     1       2.127   7.697  -7.672  0.00  0.00    +0.019 C 
ATOM     18  C   UNL     1       2.975   6.952  -8.276  0.00  0.00    +0.073 C 
ATOM     19  C   UNL     1       2.183   6.010  -9.163  0.00  0.00    +0.019 C 
ENDBRANCH  16  18
ENDBRANCH  15  16
ENDBRANCH  13  15
ENDBRANCH  12  13
ENDBRANCH  11  12
ENDBRANCH   1  11
TORSDOF 6
ENDMDL
MODEL 7
REMARK VINA RESULT:      -6.5      6.077      9.129
REMARK  Name = 
REMARK  6 active torsions:
REMARK  status: ('A' for Active; 'I' for Inactive)
REMARK    1  A    between atoms: C_2  and  N_4
REMARK    2  A    between atoms: N_4  and  C_5
REMARK    3  A    between atoms: C_5  and  C_6
REMARK    4  A    between atoms: C_6  and  C_8
REMARK    5  A    between atoms: C_8  and  O_9
REMARK    6  A    between atoms: O_9  and  C_10
REMARK                            x       y       z     vdW  Elec       q    Type
REMARK                         _______ _______ _______ _____ _____    ______ ____
ROOT
ATOM      1  C   UNL     1       5.461   5.814 -10.237  0.00  0.00    +0.139 A 
ATOM      2  C   UNL     1       5.811   5.653 -11.549  0.00  0.00    +0.034 A 
ATOM      3  C   UNL     1       7.152   5.596 -11.896  0.00  0.00    +0.003 A 
ATOM      4  C   UNL     1       7.528   5.579 -13.223  0.00  0.00    +0.000 A 
ATOM      5  C   UNL     1       6.554   5.845 -14.163  0.00  0.00    +0.000 A 
ATOM      6  C   UNL     1       5.229   5.664 -13.802  0.00  0.00    +0.000 A 
ATOM      7  C   UNL     1       8.095   5.318 -10.922  0.00  0.00    +0.000 A 
ATOM      8  C   UNL     1       7.697   5.480  -9.603  0.00  0.00    +0.003 A 
ATOM      9  C   UNL     1       4.914   5.223 -12.520  0.00  0.00    +0.003 A 
ATOM     10  C   UNL     1       6.419   5.887  -9.263  0.00  0.00    +0.037 A 
ENDROOT
BRANCH   1  11
ATOM     11  O   UNL     1       4.126   5.907  -9.887  0.00  0.00    -0.473 OA
BRANCH  11  12
ATOM     12  C   UNL     1       3.566   7.097  -9.500  0.00  0.00    +0.240 C 
BRANCH  12  13
ATOM     13  C   UNL     1       2.130   6.802  -8.752  0.00  0.00    +0.213 C 
ATOM     14  O   UNL     1       2.211   8.045  -7.883  0.00  0.00    -0.218 OA
BRANCH  13  15
ATOM     15  C   UNL     1       2.844   5.868  -7.594  0.00  0.00    +0.125 C 
BRANCH  15  16
ATOM     16  N   UNL     1       3.287   6.922  -6.686  0.00  0.00    -0.217 NA
BRANCH  16  18
ATOM     17  C   UNL     1       4.079   5.314  -5.333  0.00  0.00    +0.019 C 
ATOM     18  C   UNL     1       4.338   6.475  -5.806  0.00  0.00    +0.073 C 
ATOM     19  C   UNL     1       4.506   7.407  -4.620  0.00  0.00    +0.019 C 
ENDBRANCH  16  18
ENDBRANCH  15  16
ENDBRANCH  13  15
ENDBRANCH  12  13
ENDBRANCH  11  12
ENDBRANCH   1  11
TORSDOF 6
ENDMDL
MODEL 8
REMARK VINA RESULT:      -6.4      4.072      5.609
REMARK  Name = 
REMARK  6 active torsions:
REMARK  status: ('A' for Active; 'I' for Inactive)
REMARK    1  A    between atoms: C_2  and  N_4
REMARK    2  A    between atoms: N_4  and  C_5
REMARK    3  A    between atoms: C_5  and  C_6
REMARK    4  A    between atoms: C_6  and  C_8
REMARK    5  A    between atoms: C_8  and  O_9
REMARK    6  A    between atoms: O_9  and  C_10
REMARK                            x       y       z     vdW  Elec       q    Type
REMARK                         _______ _______ _______ _____ _____    ______ ____
ROOT
ATOM      1  C   UNL     1       1.652   4.700  -6.161  0.00  0.00    +0.139 A 
ATOM      2  C   UNL     1       0.374   5.171  -6.034  0.00  0.00    +0.034 A 
ATOM      3  C   UNL     1      -0.022   5.763  -4.845  0.00  0.00    +0.003 A 
ATOM      4  C   UNL     1      -1.341   6.112  -4.645  0.00  0.00    +0.000 A 
ATOM      5  C   UNL     1      -2.265   5.652  -5.560  0.00  0.00    +0.000 A 
ATOM      6  C   UNL     1      -1.815   5.282  -6.817  0.00  0.00    +0.000 A 
ATOM      7  C   UNL     1       0.940   6.219  -3.960  0.00  0.00    +0.000 A 
ATOM      8  C   UNL     1       2.227   5.729  -4.130  0.00  0.00    +0.003 A 
ATOM      9  C   UNL     1      -0.462   5.383  -7.125  0.00  0.00    +0.003 A 
ATOM     10  C   UNL     1       2.550   4.839  -5.138  0.00  0.00    +0.037 A 
ENDROOT
BRANCH   1  11
ATOM     11  O   UNL     1       2.043   4.077  -7.331  0.00  0.00    -0.473 OA
BRANCH  11  12
ATOM     12  C   UNL     1       3.233   4.379  -7.943  0.00  0.00    +0.240 C 
BRANCH  12  13
ATOM     13  C   UNL     1       3.002   5.628  -8.990  0.00  0.00    +0.213 C 
ATOM     14  O   UNL     1       1.963   4.882  -9.809  0.00  0.00    -0.218 OA
BRANCH  13  15
ATOM     15  C   UNL     1       4.230   5.126  -9.970  0.00  0.00    +0.125 C 
BRANCH  15  16
ATOM     16  N   UNL     1       4.864   6.415 -10.228  0.00  0.00    -0.217 NA
BRANCH  16  18
ATOM     17  C   UNL     1       6.950   5.848  -9.616  0.00  0.00    +0.019 C 
ATOM     18  C   UNL     1       6.251   6.275 -10.599  0.00  0.00    +0.073 C 
ATOM     19  C   UNL     1       6.851   7.602 -11.025  0.00  0.00    +0.019 C 
ENDBRANCH  16  18
ENDBRANCH  15  16
ENDBRANCH  13  15
ENDBRANCH  12  13
ENDBRANCH  11  12
ENDBRANCH   1  11
TORSDOF 6
ENDMDL
MODEL 9
REMARK VINA RESULT:      -6.4      7.041     10.323
REMARK  Name = 
REMARK  6 active torsions:
REMARK  status: ('A' for Active; 'I' for Inactive)
REMARK    1  A    between atoms: C_2  and  N_4
REMARK    2  A    between atoms: N_4  and  C_5
REMARK    3  A    between atoms: C_5  and  C_6
REMARK    4  A    between atoms: C_6  and  C_8
REMARK    5  A    between atoms: C_8  and  O_9
REMARK    6  A    between atoms: O_9  and  C_10
REMARK                            x       y       z     vdW  Elec       q    Type
REMARK                         _______ _______ _______ _____ _____    ______ ____
ROOT
ATOM      1  C   UNL     1       4.834   5.373 -11.762  0.00  0.00    +0.139 A 
ATOM      2  C   UNL     1       6.171   5.657 -11.806  0.00  0.00    +0.034 A 
ATOM      3  C   UNL     1       6.782   5.882 -13.031  0.00  0.00    +0.003 A 
ATOM      4  C   UNL     1       8.150   6.026 -13.110  0.00  0.00    +0.000 A 
ATOM      5  C   UNL     1       8.888   5.718 -11.986  0.00  0.00    +0.000 A 
ATOM      6  C   UNL     1       8.247   5.730 -10.758  0.00  0.00    +0.000 A 
ATOM      7  C   UNL     1       6.002   6.197 -14.131  0.00  0.00    +0.000 A 
ATOM      8  C   UNL     1       4.649   5.907 -14.041  0.00  0.00    +0.003 A 
ATOM      9  C   UNL     1       6.895   6.049 -10.686  0.00  0.00    +0.003 A 
ATOM     10  C   UNL     1       4.089   5.342 -12.909  0.00  0.00    +0.037 A 
ENDROOT
BRANCH   1  11
ATOM     11  O   UNL     1       4.225   5.114 -10.548  0.00  0.00    -0.473 OA
BRANCH  11  12
ATOM     12  C   UNL     1       3.387   6.023  -9.956  0.00  0.00    +0.240 C 
BRANCH  12  13
ATOM     13  C   UNL     1       2.515   5.270  -8.780  0.00  0.00    +0.213 C 
ATOM     14  O   UNL     1       3.333   3.992  -8.850  0.00  0.00    -0.218 OA
BRANCH  13  15
ATOM     15  C   UNL     1       1.411   4.699  -9.866  0.00  0.00    +0.125 C 
BRANCH  15  16
ATOM     16  N   UNL     1       0.497   5.837  -9.888  0.00  0.00    -0.217 NA
BRANCH  16  18
ATOM     17  C   UNL     1       0.455   5.378 -12.086  0.00  0.00    +0.019 C 
ATOM     18  C   UNL     1      -0.198   5.953 -11.147  0.00  0.00    +0.073 C 
ATOM     19  C   UNL     1      -0.375   7.403 -11.555  0.00  0.00    +0.019 C 
ENDBRANCH  16  18
ENDBRANCH  15  16
ENDBRANCH  13  15
ENDBRANCH  12  13
ENDBRANCH  11  12
ENDBRANCH   1  11
TORSDOF 6
ENDMDL
