MODEL 1
REMARK VINA RESULT:      -8.5      0.000      0.000
REMARK  Name = 
REMARK  6 active torsions:
REMARK  status: ('A' for Active; 'I' for Inactive)
REMARK    1  A    between atoms: C_4  and  C_6
REMARK    2  A    between atoms: C_9  and  N_10
REMARK    3  A    between atoms: C_11  and  C_13
REMARK    4  A    between atoms: N_15  and  C_16
REMARK    5  A    between atoms: C_23  and  N_24
REMARK    6  A    between atoms: C_25  and  C_27
REMARK                            x       y       z     vdW  Elec       q    Type
REMARK                         _______ _______ _______ _____ _____    ______ ____
ROOT
ATOM      1  C   UNL     1       2.214   6.450  -6.722  0.00  0.00    +0.079 C 
ATOM      2  C   UNL     1       1.553   4.966  -6.776  0.00  0.00    +0.033 C 
ATOM      3  C   UNL     1       1.130   4.613  -5.243  0.00  0.00    +0.116 C 
ATOM      4  C   UNL     1      -0.368   5.445  -5.408  0.00  0.00    +0.116 C 
ATOM      5  C   UNL     1       0.219   6.965  -5.407  0.00  0.00    +0.024 C 
ATOM      6  C   UNL     1       0.759   7.203  -6.761  0.00  0.00    +0.011 C 
ENDROOT
BRANCH   1   9
ATOM      7  C   UNL     1       4.063   6.419  -8.840  0.00  0.00    +0.115 C 
ATOM      8  N   UNL     1       3.574   6.095  -8.864  0.00  0.00    -0.276 N 
ATOM      9  C   UNL     1       2.322   6.515  -8.328  0.00  0.00    +0.225 C 
ATOM     10  O   UNL     1       1.827   7.608  -8.702  0.00  0.00    -0.275 OA
ATOM     11  C   UNL     1       3.503   4.977  -9.815  0.00  0.00    +0.115 C 
ENDBRANCH   1   9
BRANCH   3  12
ATOM     12  N   UNL     1       1.909   5.745  -4.493  0.00  0.00    -0.200 NA
ATOM     13  C   UNL     1       3.023   5.357  -3.729  0.00  0.00    +0.289 C 
ATOM     14  O   UNL     1       3.762   4.427  -4.175  0.00  0.00    -0.266 OA
BRANCH  13  15
ATOM     15  C   UNL     1       3.598   6.340  -2.797  0.00  0.00    +0.165 A 
ATOM     16  S   UNL     1       3.928   8.017  -2.992  0.00  0.00    -0.065 S 
ATOM     17  C   UNL     1       3.909   8.475  -1.332  0.00  0.00    +0.039 A 
ATOM     18  C   UNL     1       3.589   9.787  -0.688  0.00  0.00    +0.107 C 
ATOM     19  N   UNL     1       2.705   9.688   0.427  0.00  0.00    -0.267 NA
ATOM     20  C   UNL     1       1.961   8.464   0.517  0.00  0.00    +0.079 C 
ATOM     21  C   UNL     1       3.004   7.355   0.634  0.00  0.00    +0.063 C 
ATOM     22  C   UNL     1       3.529   9.757   1.633  0.00  0.00    +0.090 C 
ATOM     23  C   UNL     1       3.565   7.256  -0.756  0.00  0.00    +0.064 A 
ATOM     24  N   UNL     1       3.917   6.220  -1.506  0.00  0.00    -0.238 NA
ENDBRANCH  13  15
ENDBRANCH   3  12
BRANCH   4  25
ATOM     25  N   UNL     1      -0.587   5.458  -3.858  0.00  0.00    -0.198 NA
ATOM     26  C   UNL     1      -1.937   5.538  -3.431  0.00  0.00    +0.321 C 
ATOM     27  O   UNL     1      -2.752   4.864  -4.131  0.00  0.00    -0.263 OA
BRANCH  26  28
ATOM     28  C   UNL     1      -2.441   6.613  -2.567  0.00  0.00    +0.326 C 
ATOM     29  N   UNL     1      -1.602   7.311  -1.675  0.00  0.00    -0.153 NA
ATOM     30  O   UNL     1      -3.680   6.798  -2.372  0.00  0.00    -0.263 OA
BRANCH  29  31
ATOM     31  C   UNL     1      -1.891   7.472  -0.277  0.00  0.00    +0.155 A 
ATOM     32  N   UNL     1      -1.666   8.744   0.141  0.00  0.00    -0.226 NA
ATOM     33  C   UNL     1      -1.492   9.090   1.414  0.00  0.00    +0.112 A 
ATOM     34  C   UNL     1      -1.199   8.143   2.351  0.00  0.00    +0.077 A 
ATOM     35 CL   UNL     1      -0.194   8.510   3.750  0.00  0.00    -0.081 Cl
ATOM     36  C   UNL     1      -1.344   6.815   1.969  0.00  0.00    +0.016 A 
ATOM     37  C   UNL     1      -1.645   6.485   0.650  0.00  0.00    +0.037 A 
ENDBRANCH  29  31
ENDBRANCH  26  28
ENDBRANCH   4  25
TORSDOF 6
ENDMDL
MODEL 2
REMARK VINA RESULT:      -8.4      3.790      8.468
REMARK  Name = 
REMARK  6 active torsions:
REMARK  status: ('A' for Active; 'I' for Inactive)
REMARK    1  A    between atoms: C_4  and  C_6
REMARK    2  A    between atoms: C_9  and  N_10
REMARK    3  A    between atoms: C_11  and  C_13
REMARK    4  A    between atoms: N_15  and  C_16
REMARK    5  A    between atoms: C_23  and  N_24
REMARK    6  A    between atoms: C_25  and  C_27
REMARK                            x       y       z     vdW  Elec       q    Type
REMARK                         _______ _______ _______ _____ _____    ______ ____
ROOT
ATOM      1  C   UNL     1       3.117   8.212   0.260  0.00  0.00    +0.079 C 
ATOM      2  C   UNL     1       4.443   7.285   0.413  0.00  0.00    +0.033 C 
ATOM      3  C   UNL     1       4.253   6.059  -0.642  0.00  0.00    +0.116 C 
ATOM      4  C   UNL     1       4.885   7.004  -1.935  0.00  0.00    +0.116 C 
ATOM      5  C   UNL     1       3.614   8.004  -2.124  0.00  0.00    +0.024 C 
ATOM      6  C   UNL     1       3.710   9.008  -1.044  0.00  0.00    +0.011 C 
ENDROOT
BRANCH   1   9
ATOM      7  C   UNL     1       2.441   9.893   2.410  0.00  0.00    +0.115 C 
ATOM      8  N   UNL     1       2.942   9.585   2.416  0.00  0.00    -0.276 N 
ATOM      9  C   UNL     1       3.722   9.329   1.250  0.00  0.00    +0.225 C 
ATOM     10  O   UNL     1       4.114  10.294   0.547  0.00  0.00    -0.275 OA
ATOM     11  C   UNL     1       3.636   9.372   3.692  0.00  0.00    +0.115 C 
ENDBRANCH   1   9
BRANCH   3  12
ATOM     12  N   UNL     1       2.736   6.244  -0.981  0.00  0.00    -0.200 NA
ATOM     13  C   UNL     1       1.978   5.077  -1.182  0.00  0.00    +0.289 C 
ATOM     14  O   UNL     1       2.229   4.067  -0.455  0.00  0.00    -0.266 OA
BRANCH  13  15
ATOM     15  C   UNL     1       0.638   5.216  -1.772  0.00  0.00    +0.165 A 
ATOM     16  S   UNL     1      -0.741   6.096  -1.241  0.00  0.00    -0.065 S 
ATOM     17  C   UNL     1      -1.536   6.266  -2.759  0.00  0.00    +0.039 A 
ATOM     18  C   UNL     1      -2.483   7.315  -3.249  0.00  0.00    +0.107 C 
ATOM     19  N   UNL     1      -2.181   7.809  -4.553  0.00  0.00    -0.267 NA
ATOM     20  C   UNL     1      -0.849   7.545  -5.019  0.00  0.00    +0.079 C 
ATOM     21  C   UNL     1      -0.713   6.024  -5.040  0.00  0.00    +0.063 C 
ATOM     22  C   UNL     1      -3.083   7.134  -5.486  0.00  0.00    +0.090 C 
ATOM     23  C   UNL     1      -0.593   5.665  -3.586  0.00  0.00    +0.064 A 
ATOM     24  N   UNL     1       0.164   4.784  -2.943  0.00  0.00    -0.238 NA
ENDBRANCH  13  15
ENDBRANCH   3  12
BRANCH   4  25
ATOM     25  N   UNL     1       4.339   5.998  -3.002  0.00  0.00    -0.198 NA
ATOM     26  C   UNL     1       4.563   6.358  -4.355  0.00  0.00    +0.321 C 
ATOM     27  O   UNL     1       5.694   6.890  -4.578  0.00  0.00    -0.263 OA
BRANCH  26  28
ATOM     28  C   UNL     1       3.478   6.529  -5.330  0.00  0.00    +0.326 C 
ATOM     29  N   UNL     1       2.663   5.453  -5.736  0.00  0.00    -0.153 NA
ATOM     30  O   UNL     1       3.378   7.563  -6.056  0.00  0.00    -0.263 OA
BRANCH  29  31
ATOM     31  C   UNL     1       2.437   5.106  -7.111  0.00  0.00    +0.155 A 
ATOM     32  N   UNL     1       3.595   4.795  -7.749  0.00  0.00    -0.226 NA
ATOM     33  C   UNL     1       3.741   4.800  -9.072  0.00  0.00    +0.112 A 
ATOM     34  C   UNL     1       2.831   5.438  -9.863  0.00  0.00    +0.077 A 
ATOM     35 CL   UNL     1       3.299   6.193 -11.383  0.00  0.00    -0.081 Cl
ATOM     36  C   UNL     1       1.648   5.844  -9.258  0.00  0.00    +0.016 A 
ATOM     37  C   UNL     1       1.475   5.716  -7.882  0.00  0.00    +0.037 A 
ENDBRANCH  29  31
ENDBRANCH  26  28
ENDBRANCH   4  25
TORSDOF 6
ENDMDL
MODEL 3
REMARK VINA RESULT:      -7.9      5.890     12.062
REMARK  Name = 
REMARK  6 active torsions:
REMARK  status: ('A' for Active; 'I' for Inactive)
REMARK    1  A    between atoms: C_4  and  C_6
REMARK    2  A    between atoms: C_9  and  N_10
REMARK    3  A    between atoms: C_11  and  C_13
REMARK    4  A    between atoms: N_15  and  C_16
REMARK    5  A    between atoms: C_23  and  N_24
REMARK    6  A    between atoms: C_25  and  C_27
REMARK                            x       y       z     vdW  Elec       q    Type
REMARK                         _______ _______ _______ _____ _____    ______ ____
ROOT
ATOM      1  C   UNL     1       1.294   6.142  -6.991  0.00  0.00    +0.079 C 
ATOM      2  C   UNL     1       2.219   4.834  -6.720  0.00  0.00    +0.033 C 
ATOM      3  C   UNL     1       2.820   4.406  -8.172  0.00  0.00    +0.116 C 
ATOM      4  C   UNL     1       4.115   5.531  -8.026  0.00  0.00    +0.116 C 
ATOM      5  C   UNL     1       3.252   6.895  -8.245  0.00  0.00    +0.024 C 
ATOM      6  C   UNL     1       2.572   7.168  -6.963  0.00  0.00    +0.011 C 
ENDROOT
BRANCH   1   9
ATOM      7  C   UNL     1      -0.532   7.213  -5.140  0.00  0.00    +0.115 C 
ATOM      8  N   UNL     1      -0.291   6.684  -5.052  0.00  0.00    -0.276 N 
ATOM      9  C   UNL     1       1.050   6.360  -5.414  0.00  0.00    +0.225 C 
ATOM     10  O   UNL     1       1.994   7.062  -4.972  0.00  0.00    -0.275 OA
ATOM     11  C   UNL     1      -0.925   5.757  -4.106  0.00  0.00    +0.115 C 
ENDBRANCH   1   9
BRANCH   3  12
ATOM     12  N   UNL     1       1.902   5.273  -9.097  0.00  0.00    -0.200 NA
ATOM     13  C   UNL     1       1.229   4.608 -10.135  0.00  0.00    +0.289 C 
ATOM     14  O   UNL     1       0.784   3.441  -9.911  0.00  0.00    -0.266 OA
BRANCH  13  15
ATOM     15  C   UNL     1       0.593   5.424 -11.182  0.00  0.00    +0.165 A 
ATOM     16  S   UNL     1       0.296   7.116 -11.264  0.00  0.00    -0.065 S 
ATOM     17  C   UNL     1       0.191   7.273 -12.976  0.00  0.00    +0.039 A 
ATOM     18  C   UNL     1       0.473   8.443 -13.865  0.00  0.00    +0.107 C 
ATOM     19  N   UNL     1       1.267   8.128 -15.007  0.00  0.00    -0.267 NA
ATOM     20  C   UNL     1       1.989   6.890 -14.933  0.00  0.00    +0.079 C 
ATOM     21  C   UNL     1       0.929   5.803 -14.773  0.00  0.00    +0.063 C 
ATOM     22  C   UNL     1       0.353   8.003 -16.142  0.00  0.00    +0.090 C 
ATOM     23  C   UNL     1       0.476   5.965 -13.349  0.00  0.00    +0.064 A 
ATOM     24  N   UNL     1       0.174   5.085 -12.403  0.00  0.00    -0.238 NA
ENDBRANCH  13  15
ENDBRANCH   3  12
BRANCH   4  25
ATOM     25  N   UNL     1       4.449   5.418  -9.551  0.00  0.00    -0.198 NA
ATOM     26  C   UNL     1       5.780   5.749  -9.912  0.00  0.00    +0.321 C 
ATOM     27  O   UNL     1       6.663   5.357  -9.090  0.00  0.00    -0.263 OA
BRANCH  26  28
ATOM     28  C   UNL     1       6.108   6.806 -10.878  0.00  0.00    +0.326 C 
ATOM     29  N   UNL     1       5.624   6.785 -12.201  0.00  0.00    -0.153 NA
ATOM     30  O   UNL     1       7.042   7.639 -10.676  0.00  0.00    -0.263 OA
BRANCH  29  31
ATOM     31  C   UNL     1       6.468   6.912 -13.356  0.00  0.00    +0.155 A 
ATOM     32  N   UNL     1       5.944   7.765 -14.273  0.00  0.00    -0.226 NA
ATOM     33  C   UNL     1       6.300   7.791 -15.555  0.00  0.00    +0.112 A 
ATOM     34  C   UNL     1       6.976   6.742 -16.104  0.00  0.00    +0.077 A 
ATOM     35 CL   UNL     1       6.772   6.295 -17.795  0.00  0.00    -0.081 Cl
ATOM     36  C   UNL     1       7.485   5.793 -15.224  0.00  0.00    +0.016 A 
ATOM     37  C   UNL     1       7.193   5.858 -13.865  0.00  0.00    +0.037 A 
ENDBRANCH  29  31
ENDBRANCH  26  28
ENDBRANCH   4  25
TORSDOF 6
ENDMDL
MODEL 4
REMARK VINA RESULT:      -6.9      3.687      8.328
REMARK  Name = 
REMARK  6 active torsions:
REMARK  status: ('A' for Active; 'I' for Inactive)
REMARK    1  A    between atoms: C_4  and  C_6
REMARK    2  A    between atoms: C_9  and  N_10
REMARK    3  A    between atoms: C_11  and  C_13
REMARK    4  A    between atoms: N_15  and  C_16
REMARK    5  A    between atoms: C_23  and  N_24
REMARK    6  A    between atoms: C_25  and  C_27
REMARK                            x       y       z     vdW  Elec       q    Type
REMARK                         _______ _______ _______ _____ _____    ______ ____
ROOT
ATOM      1  C   UNL     1       3.780   8.220   0.392  0.00  0.00    +0.079 C 
ATOM      2  C   UNL     1       5.114   7.449  -0.125  0.00  0.00    +0.033 C 
ATOM      3  C   UNL     1       4.604   6.387  -1.250  0.00  0.00    +0.116 C 
ATOM      4  C   UNL     1       4.646   7.590  -2.481  0.00  0.00    +0.116 C 
ATOM      5  C   UNL     1       3.345   8.445  -2.002  0.00  0.00    +0.024 C 
ATOM      6  C   UNL     1       3.788   9.274  -0.862  0.00  0.00    +0.011 C 
ENDROOT
BRANCH   1   9
ATOM      7  C   UNL     1       4.173   9.098   3.034  0.00  0.00    +0.115 C 
ATOM      8  N   UNL     1       4.631   8.974   2.688  0.00  0.00    -0.276 N 
ATOM      9  C   UNL     1       4.653   9.236   1.287  0.00  0.00    +0.225 C 
ATOM     10  O   UNL     1       4.428  10.401   0.874  0.00  0.00    -0.275 OA
ATOM     11  C   UNL     1       5.944   8.731   3.299  0.00  0.00    +0.115 C 
ENDBRANCH   1   9
BRANCH   3  12
ATOM     12  N   UNL     1       3.065   6.435  -0.973  0.00  0.00    -0.200 NA
ATOM     13  C   UNL     1       2.377   5.210  -0.965  0.00  0.00    +0.289 C 
ATOM     14  O   UNL     1       2.961   4.197  -0.471  0.00  0.00    -0.266 OA
BRANCH  13  15
ATOM     15  C   UNL     1       0.906   5.242  -0.990  0.00  0.00    +0.165 A 
ATOM     16  S   UNL     1      -0.213   6.231  -0.137  0.00  0.00    -0.065 S 
ATOM     17  C   UNL     1      -1.548   6.096  -1.216  0.00  0.00    +0.039 A 
ATOM     18  C   UNL     1      -2.682   7.034  -1.483  0.00  0.00    +0.107 C 
ATOM     19  N   UNL     1      -2.948   7.246  -2.868  0.00  0.00    -0.267 NA
ATOM     20  C   UNL     1      -1.889   6.875  -3.764  0.00  0.00    +0.079 C 
ATOM     21  C   UNL     1      -1.667   5.381  -3.542  0.00  0.00    +0.063 C 
ATOM     22  C   UNL     1      -4.093   6.406  -3.217  0.00  0.00    +0.090 C 
ATOM     23  C   UNL     1      -0.964   5.325  -2.216  0.00  0.00    +0.064 A 
ATOM     24  N   UNL     1       0.043   4.586  -1.769  0.00  0.00    -0.238 NA
ENDBRANCH  13  15
ENDBRANCH   3  12
BRANCH   4  25
ATOM     25  N   UNL     1       3.791   6.702  -3.446  0.00  0.00    -0.198 NA
ATOM     26  C   UNL     1       4.505   6.080  -4.501  0.00  0.00    +0.321 C 
ATOM     27  O   UNL     1       5.656   5.653  -4.178  0.00  0.00    -0.263 OA
BRANCH  26  28
ATOM     28  C   UNL     1       4.181   6.286  -5.919  0.00  0.00    +0.326 C 
ATOM     29  N   UNL     1       2.907   6.719  -6.338  0.00  0.00    -0.153 NA
ATOM     30  O   UNL     1       4.914   5.840  -6.851  0.00  0.00    -0.263 OA
BRANCH  29  31
ATOM     31  C   UNL     1       2.127   6.039  -7.335  0.00  0.00    +0.155 A 
ATOM     32  N   UNL     1       2.583   6.291  -8.589  0.00  0.00    -0.226 NA
ATOM     33  C   UNL     1       1.863   6.111  -9.693  0.00  0.00    +0.112 A 
ATOM     34  C   UNL     1       0.508   5.976  -9.617  0.00  0.00    +0.077 A 
ATOM     35 CL   UNL     1      -0.549   6.543 -10.906  0.00  0.00    -0.081 Cl
ATOM     36  C   UNL     1      -0.034   5.781  -8.353  0.00  0.00    +0.016 A 
ATOM     37  C   UNL     1       0.769   5.857  -7.218  0.00  0.00    +0.037 A 
ENDBRANCH  29  31
ENDBRANCH  26  28
ENDBRANCH   4  25
TORSDOF 6
ENDMDL
MODEL 5
REMARK VINA RESULT:      -6.0      3.943      8.127
REMARK  Name = 
REMARK  6 active torsions:
REMARK  status: ('A' for Active; 'I' for Inactive)
REMARK    1  A    between atoms: C_4  and  C_6
REMARK    2  A    between atoms: C_9  and  N_10
REMARK    3  A    between atoms: C_11  and  C_13
REMARK    4  A    between atoms: N_15  and  C_16
REMARK    5  A    between atoms: C_23  and  N_24
REMARK    6  A    between atoms: C_25  and  C_27
REMARK                            x       y       z     vdW  Elec       q    Type
REMARK                         _______ _______ _______ _____ _____    ______ ____
ROOT
ATOM      1  C   UNL     1       3.865  11.246   1.959  0.00  0.00    +0.079 C 
ATOM      2  C   UNL     1       5.149  10.315   1.604  0.00  0.00    +0.033 C 
ATOM      3  C   UNL     1       4.580   8.792   1.510  0.00  0.00    +0.116 C 
ATOM      4  C   UNL     1       4.104   9.014  -0.129  0.00  0.00    +0.116 C 
ATOM      5  C   UNL     1       2.827   9.990   0.139  0.00  0.00    +0.024 C 
ATOM      6  C   UNL     1       3.378  11.335   0.397  0.00  0.00    +0.011 C 
ENDROOT
BRANCH   1   9
ATOM      7  C   UNL     1       4.143  13.861   2.956  0.00  0.00    +0.115 C 
ATOM      8  N   UNL     1       4.615  13.520   2.871  0.00  0.00    -0.276 N 
ATOM      9  C   UNL     1       4.732  12.594   1.794  0.00  0.00    +0.225 C 
ATOM     10  O   UNL     1       4.590  13.000   0.613  0.00  0.00    -0.275 OA
ATOM     11  C   UNL     1       5.876  13.864   3.541  0.00  0.00    +0.115 C 
ENDBRANCH   1   9
BRANCH   3  12
ATOM     12  N   UNL     1       3.171   9.002   2.160  0.00  0.00    -0.200 NA
ATOM     13  C   UNL     1       2.695   7.982   3.001  0.00  0.00    +0.289 C 
ATOM     14  O   UNL     1       3.528   7.385   3.750  0.00  0.00    -0.266 OA
BRANCH  13  15
ATOM     15  C   UNL     1       1.278   8.015   3.394  0.00  0.00    +0.165 A 
ATOM     16  S   UNL     1       0.239   9.338   3.750  0.00  0.00    -0.065 S 
ATOM     17  C   UNL     1      -1.269   8.572   3.429  0.00  0.00    +0.039 A 
ATOM     18  C   UNL     1      -2.580   9.148   2.994  0.00  0.00    +0.107 C 
ATOM     19  N   UNL     1      -3.200   8.439   1.922  0.00  0.00    -0.267 NA
ATOM     20  C   UNL     1      -2.336   7.568   1.177  0.00  0.00    +0.079 C 
ATOM     21  C   UNL     1      -1.811   6.548   2.185  0.00  0.00    +0.063 C 
ATOM     22  C   UNL     1      -4.231   7.587   2.513  0.00  0.00    +0.090 C 
ATOM     23  C   UNL     1      -0.814   7.334   2.989  0.00  0.00    +0.064 A 
ATOM     24  N   UNL     1       0.383   7.028   3.474  0.00  0.00    -0.238 NA
ENDBRANCH  13  15
ENDBRANCH   3  12
BRANCH   4  25
ATOM     25  N   UNL     1       3.213   7.728  -0.096  0.00  0.00    -0.198 NA
ATOM     26  C   UNL     1       3.722   6.612  -0.809  0.00  0.00    +0.321 C 
ATOM     27  O   UNL     1       4.978   6.456  -0.718  0.00  0.00    -0.263 OA
BRANCH  26  28
ATOM     28  C   UNL     1       2.988   5.955  -1.898  0.00  0.00    +0.326 C 
ATOM     29  N   UNL     1       1.825   6.519  -2.461  0.00  0.00    -0.153 NA
ATOM     30  O   UNL     1       3.187   4.744  -2.213  0.00  0.00    -0.263 OA
BRANCH  29  31
ATOM     31  C   UNL     1       0.585   5.805  -2.597  0.00  0.00    +0.155 A 
ATOM     32  N   UNL     1      -0.052   6.118  -3.755  0.00  0.00    -0.226 NA
ATOM     33  C   UNL     1      -1.348   5.910  -3.971  0.00  0.00    +0.112 A 
ATOM     34  C   UNL     1      -2.192   5.672  -2.926  0.00  0.00    +0.077 A 
ATOM     35 CL   UNL     1      -3.875   6.188  -2.963  0.00  0.00    -0.081 Cl
ATOM     36  C   UNL     1      -1.606   5.410  -1.693  0.00  0.00    +0.016 A 
ATOM     37  C   UNL     1      -0.228   5.520  -1.525  0.00  0.00    +0.037 A 
ENDBRANCH  29  31
ENDBRANCH  26  28
ENDBRANCH   4  25
TORSDOF 6
ENDMDL
MODEL 6
REMARK VINA RESULT:      -6.0      3.192      7.391
REMARK  Name = 
REMARK  6 active torsions:
REMARK  status: ('A' for Active; 'I' for Inactive)
REMARK    1  A    between atoms: C_4  and  C_6
REMARK    2  A    between atoms: C_9  and  N_10
REMARK    3  A    between atoms: C_11  and  C_13
REMARK    4  A    between atoms: N_15  and  C_16
REMARK    5  A    between atoms: C_23  and  N_24
REMARK    6  A    between atoms: C_25  and  C_27
REMARK                            x       y       z     vdW  Elec       q    Type
REMARK                         _______ _______ _______ _____ _____    ______ ____
ROOT
ATOM      1  C   UNL     1       1.712   5.671  -8.525  0.00  0.00    +0.079 C 
ATOM      2  C   UNL     1       1.528   4.644  -7.279  0.00  0.00    +0.033 C 
ATOM      3  C   UNL     1       2.879   4.791  -6.381  0.00  0.00    +0.116 C 
ATOM      4  C   UNL     1       2.239   6.152  -5.543  0.00  0.00    +0.116 C 
ATOM      5  C   UNL     1       2.348   7.233  -6.757  0.00  0.00    +0.024 C 
ATOM      6  C   UNL     1       1.208   6.965  -7.656  0.00  0.00    +0.011 C 
ENDROOT
BRANCH   1   9
ATOM      7  C   UNL     1      -0.106   6.326 -10.568  0.00  0.00    +0.115 C 
ATOM      8  N   UNL     1      -0.040   5.769 -10.391  0.00  0.00    -0.276 N 
ATOM      9  C   UNL     1       0.210   5.396  -9.039  0.00  0.00    +0.225 C 
ATOM     10  O   UNL     1      -0.579   5.777  -8.138  0.00  0.00    -0.275 OA
ATOM     11  C   UNL     1      -0.506   4.684 -11.264  0.00  0.00    +0.115 C 
ENDBRANCH   1   9
BRANCH   3  12
ATOM     12  N   UNL     1       3.777   5.580  -7.391  0.00  0.00    -0.200 NA
ATOM     13  C   UNL     1       4.478   4.826  -8.348  0.00  0.00    +0.289 C 
ATOM     14  O   UNL     1       3.907   3.809  -8.847  0.00  0.00    -0.266 OA
BRANCH  13  15
ATOM     15  C   UNL     1       5.536   5.499  -9.119  0.00  0.00    +0.165 A 
ATOM     16  S   UNL     1       7.242   5.278  -9.120  0.00  0.00    -0.065 S 
ATOM     17  C   UNL     1       7.578   5.904 -10.688  0.00  0.00    +0.039 A 
ATOM     18  C   UNL     1       8.693   5.598 -11.640  0.00  0.00    +0.107 C 
ATOM     19  N   UNL     1       8.267   5.374 -12.982  0.00  0.00    -0.267 NA
ATOM     20  C   UNL     1       6.871   5.082 -13.146  0.00  0.00    +0.079 C 
ATOM     21  C   UNL     1       6.128   6.302 -12.605  0.00  0.00    +0.063 C 
ATOM     22  C   UNL     1       8.516   6.611 -13.722  0.00  0.00    +0.090 C 
ATOM     23  C   UNL     1       6.283   6.174 -11.117  0.00  0.00    +0.064 A 
ATOM     24  N   UNL     1       5.447   6.389 -10.109  0.00  0.00    -0.238 NA
ENDBRANCH  13  15
ENDBRANCH   3  12
BRANCH   4  25
ATOM     25  N   UNL     1       3.651   6.534  -4.986  0.00  0.00    -0.198 NA
ATOM     26  C   UNL     1       3.910   6.137  -3.649  0.00  0.00    +0.321 C 
ATOM     27  O   UNL     1       3.449   4.996  -3.340  0.00  0.00    -0.263 OA
BRANCH  26  28
ATOM     28  C   UNL     1       4.269   7.085  -2.587  0.00  0.00    +0.326 C 
ATOM     29  N   UNL     1       4.545   6.662  -1.271  0.00  0.00    -0.153 NA
ATOM     30  O   UNL     1       4.095   8.335  -2.709  0.00  0.00    -0.263 OA
BRANCH  29  31
ATOM     31  C   UNL     1       3.904   7.216  -0.111  0.00  0.00    +0.155 A 
ATOM     32  N   UNL     1       2.570   6.961  -0.103  0.00  0.00    -0.226 NA
ATOM     33  C   UNL     1       1.686   7.643   0.621  0.00  0.00    +0.112 A 
ATOM     34  C   UNL     1       2.017   8.855   1.150  0.00  0.00    +0.077 A 
ATOM     35 CL   UNL     1       0.818  10.127   1.366  0.00  0.00    -0.081 Cl
ATOM     36  C   UNL     1       3.360   9.210   1.115  0.00  0.00    +0.016 A 
ATOM     37  C   UNL     1       4.287   8.413   0.449  0.00  0.00    +0.037 A 
ENDBRANCH  29  31
ENDBRANCH  26  28
ENDBRANCH   4  25
TORSDOF 6
ENDMDL
MODEL 7
REMARK VINA RESULT:      -5.8      3.151      7.285
REMARK  Name = 
REMARK  6 active torsions:
REMARK  status: ('A' for Active; 'I' for Inactive)
REMARK    1  A    between atoms: C_4  and  C_6
REMARK    2  A    between atoms: C_9  and  N_10
REMARK    3  A    between atoms: C_11  and  C_13
REMARK    4  A    between atoms: N_15  and  C_16
REMARK    5  A    between atoms: C_23  and  N_24
REMARK    6  A    between atoms: C_25  and  C_27
REMARK                            x       y       z     vdW  Elec       q    Type
REMARK                         _______ _______ _______ _____ _____    ______ ____
ROOT
ATOM      1  C   UNL     1       0.299   5.905  -6.692  0.00  0.00    +0.079 C 
ATOM      2  C   UNL     1       0.308   4.638  -5.674  0.00  0.00    +0.033 C 
ATOM      3  C   UNL     1       1.869   4.404  -5.271  0.00  0.00    +0.116 C 
ATOM      4  C   UNL     1       1.779   5.589  -4.025  0.00  0.00    +0.116 C 
ATOM      5  C   UNL     1       1.720   6.910  -4.976  0.00  0.00    +0.024 C 
ATOM      6  C   UNL     1       0.333   7.002  -5.475  0.00  0.00    +0.011 C 
ENDROOT
BRANCH   1   9
ATOM      7  C   UNL     1      -1.962   5.767  -5.025  0.00  0.00    +0.115 C 
ATOM      8  N   UNL     1      -1.926   6.174  -5.449  0.00  0.00    -0.276 N 
ATOM      9  C   UNL     1      -1.312   5.940  -6.714  0.00  0.00    +0.225 C 
ATOM     10  O   UNL     1      -1.707   4.981  -7.423  0.00  0.00    -0.275 OA
ATOM     11  C   UNL     1      -2.798   7.353  -5.385  0.00  0.00    +0.115 C 
ENDBRANCH   1   9
BRANCH   3  12
ATOM     12  N   UNL     1       2.553   5.303  -6.355  0.00  0.00    -0.200 NA
ATOM     13  C   UNL     1       3.149   4.648  -7.446  0.00  0.00    +0.289 C 
ATOM     14  O   UNL     1       2.574   3.617  -7.914  0.00  0.00    -0.266 OA
BRANCH  13  15
ATOM     15  C   UNL     1       4.034   5.430  -8.323  0.00  0.00    +0.165 A 
ATOM     16  S   UNL     1       5.739   5.373  -8.540  0.00  0.00    -0.065 S 
ATOM     17  C   UNL     1       5.817   6.052 -10.121  0.00  0.00    +0.039 A 
ATOM     18  C   UNL     1       6.827   5.869 -11.210  0.00  0.00    +0.107 C 
ATOM     19  N   UNL     1       6.259   5.625 -12.495  0.00  0.00    -0.267 NA
ATOM     20  C   UNL     1       4.887   5.202 -12.493  0.00  0.00    +0.079 C 
ATOM     21  C   UNL     1       4.108   6.338 -11.833  0.00  0.00    +0.063 C 
ATOM     22  C   UNL     1       6.298   6.890 -13.227  0.00  0.00    +0.090 C 
ATOM     23  C   UNL     1       4.459   6.203 -10.379  0.00  0.00    +0.064 A 
ATOM     24  N   UNL     1       3.739   6.322  -9.271  0.00  0.00    -0.238 NA
ENDBRANCH  13  15
ENDBRANCH   3  12
BRANCH   4  25
ATOM     25  N   UNL     1       3.338   5.658  -3.911  0.00  0.00    -0.198 NA
ATOM     26  C   UNL     1       3.860   5.583  -2.595  0.00  0.00    +0.321 C 
ATOM     27  O   UNL     1       3.254   4.770  -1.832  0.00  0.00    -0.263 OA
BRANCH  26  28
ATOM     28  C   UNL     1       4.709   6.629  -2.008  0.00  0.00    +0.326 C 
ATOM     29  N   UNL     1       4.673   6.936  -0.633  0.00  0.00    -0.153 NA
ATOM     30  O   UNL     1       5.313   7.486  -2.720  0.00  0.00    -0.263 OA
BRANCH  29  31
ATOM     31  C   UNL     1       4.482   8.265  -0.124  0.00  0.00    +0.155 A 
ATOM     32  N   UNL     1       4.760   8.341   1.203  0.00  0.00    -0.226 NA
ATOM     33  C   UNL     1       4.329   9.316   2.000  0.00  0.00    +0.112 A 
ATOM     34  C   UNL     1       3.306  10.127   1.606  0.00  0.00    +0.077 A 
ATOM     35 CL   UNL     1       2.174  10.816   2.766  0.00  0.00    -0.081 Cl
ATOM     36  C   UNL     1       2.924  10.052   0.271  0.00  0.00    +0.016 A 
ATOM     37  C   UNL     1       3.481   9.095  -0.573  0.00  0.00    +0.037 A 
ENDBRANCH  29  31
ENDBRANCH  26  28
ENDBRANCH   4  25
TORSDOF 6
ENDMDL
