MODEL 1
REMARK VINA RESULT:      -7.0      0.000      0.000
REMARK  Name = 
REMARK  7 active torsions:
REMARK  status: ('A' for Active; 'I' for Inactive)
REMARK    1  A    between atoms: N_2  and  C_4
REMARK    2  A    between atoms: C_4  and  C_5
REMARK    3  A    between atoms: C_5  and  O_6
REMARK    4  A    between atoms: O_6  and  C_7
REMARK    5  A    between atoms: C_7  and  C_9
REMARK    6  A    between atoms: C_9  and  C_10
REMARK    7  A    between atoms: C_9  and  C_16
REMARK                            x       y       z     vdW  Elec       q    Type
REMARK                         _______ _______ _______ _____ _____    ______ ____
ROOT
ATOM      1  C   UNL     1       1.572   6.179  -6.272  0.00  0.00    +0.149 C 
ENDROOT
BRANCH   1   2
ATOM      2  C   UNL     1       0.060   6.264  -5.714  0.00  0.00    -0.010 A 
ATOM      3  C   UNL     1      -0.347   7.222  -4.896  0.00  0.00    -0.004 A 
ATOM      4  C   UNL     1      -1.692   7.568  -4.876  0.00  0.00    -0.000 A 
ATOM      5  C   UNL     1      -2.613   6.709  -5.454  0.00  0.00    -0.000 A 
ATOM      6  C   UNL     1      -2.167   5.771  -6.363  0.00  0.00    -0.000 A 
ATOM      7  C   UNL     1      -0.829   5.395  -6.333  0.00  0.00    -0.004 A 
ENDBRANCH   1   2
BRANCH   1   8
ATOM      8  C   UNL     1       2.265   5.680  -4.866  0.00  0.00    +0.140 C 
ATOM      9  C   UNL     1       2.686   7.013  -4.273  0.00  0.00    +0.031 C 
ATOM     10  C   UNL     1       4.130   7.217  -4.614  0.00  0.00    +0.003 C 
ATOM     11  C   UNL     1       4.691   5.833  -4.704  0.00  0.00    +0.003 C 
ATOM     12  C   UNL     1       3.544   5.024  -5.195  0.00  0.00    +0.031 C 
ATOM     13  O   UNL     1       1.394   5.067  -4.077  0.00  0.00    -0.225 OA
ENDBRANCH   1   8
BRANCH   1  14
ATOM     14  C   UNL     1       1.420   4.695  -6.893  0.00  0.00    +0.323 C 
ATOM     15  O   UNL     1       1.767   3.717  -6.265  0.00  0.00    -0.250 OA
BRANCH  14  16
ATOM     16  O   UNL     1       1.649   4.781  -8.271  0.00  0.00    -0.447 OA
BRANCH  16  17
ATOM     17  C   UNL     1       2.756   4.014  -8.737  0.00  0.00    +0.226 C 
BRANCH  17  18
ATOM     18  C   UNL     1       3.971   4.923  -8.887  0.00  0.00    +0.120 C 
BRANCH  18  20
ATOM     19  C   UNL     1       3.436   5.769 -11.037  0.00  0.00    +0.090 C 
ATOM     20  N   UNL     1       4.352   5.079 -10.268  0.00  0.00    -0.267 NA
ATOM     21  C   UNL     1       5.687   5.664 -10.353  0.00  0.00    +0.090 C 
ENDBRANCH  18  20
ENDBRANCH  17  18
ENDBRANCH  16  17
ENDBRANCH  14  16
ENDBRANCH   1  14
TORSDOF 7
ENDMDL
MODEL 2
REMARK VINA RESULT:      -6.9      1.627      1.967
REMARK  Name = 
REMARK  7 active torsions:
REMARK  status: ('A' for Active; 'I' for Inactive)
REMARK    1  A    between atoms: N_2  and  C_4
REMARK    2  A    between atoms: C_4  and  C_5
REMARK    3  A    between atoms: C_5  and  O_6
REMARK    4  A    between atoms: O_6  and  C_7
REMARK    5  A    between atoms: C_7  and  C_9
REMARK    6  A    between atoms: C_9  and  C_10
REMARK    7  A    between atoms: C_9  and  C_16
REMARK                            x       y       z     vdW  Elec       q    Type
REMARK                         _______ _______ _______ _____ _____    ______ ____
ROOT
ATOM      1  C   UNL     1       1.447   6.112  -6.195  0.00  0.00    +0.149 C 
ENDROOT
BRANCH   1   2
ATOM      2  C   UNL     1      -0.075   6.228  -5.672  0.00  0.00    -0.010 A 
ATOM      3  C   UNL     1      -0.484   7.196  -4.867  0.00  0.00    -0.004 A 
ATOM      4  C   UNL     1      -1.821   7.567  -4.879  0.00  0.00    -0.000 A 
ATOM      5  C   UNL     1      -2.745   6.723  -5.475  0.00  0.00    -0.000 A 
ATOM      6  C   UNL     1      -2.296   5.773  -6.369  0.00  0.00    -0.000 A 
ATOM      7  C   UNL     1      -0.966   5.372  -6.307  0.00  0.00    -0.004 A 
ENDBRANCH   1   2
BRANCH   1   8
ATOM      8  C   UNL     1       2.093   5.577  -4.780  0.00  0.00    +0.140 C 
ATOM      9  C   UNL     1       2.569   6.886  -4.176  0.00  0.00    +0.031 C 
ATOM     10  C   UNL     1       4.026   7.021  -4.493  0.00  0.00    +0.003 C 
ATOM     11  C   UNL     1       4.521   5.611  -4.580  0.00  0.00    +0.003 C 
ATOM     12  C   UNL     1       3.343   4.860  -5.092  0.00  0.00    +0.031 C 
ATOM     13  O   UNL     1       1.181   5.004  -4.006  0.00  0.00    -0.225 OA
ENDBRANCH   1   8
BRANCH   1  14
ATOM     14  C   UNL     1       1.273   4.642  -6.840  0.00  0.00    +0.323 C 
ATOM     15  O   UNL     1       1.425   3.643  -6.169  0.00  0.00    -0.250 OA
BRANCH  14  16
ATOM     16  O   UNL     1       1.736   4.696  -8.161  0.00  0.00    -0.447 OA
BRANCH  16  17
ATOM     17  C   UNL     1       1.914   6.013  -8.673  0.00  0.00    +0.226 C 
BRANCH  17  18
ATOM     18  C   UNL     1       1.660   6.008 -10.176  0.00  0.00    +0.120 C 
BRANCH  18  20
ATOM     19  C   UNL     1      -0.175   7.067 -11.242  0.00  0.00    +0.090 C 
ATOM     20  N   UNL     1       0.251   5.999 -10.479  0.00  0.00    -0.267 NA
ATOM     21  C   UNL     1      -0.122   4.718 -11.075  0.00  0.00    +0.090 C 
ENDBRANCH  18  20
ENDBRANCH  17  18
ENDBRANCH  16  17
ENDBRANCH  14  16
ENDBRANCH   1  14
TORSDOF 7
ENDMDL
MODEL 3
REMARK VINA RESULT:      -6.9      2.549      4.812
REMARK  Name = 
REMARK  7 active torsions:
REMARK  status: ('A' for Active; 'I' for Inactive)
REMARK    1  A    between atoms: N_2  and  C_4
REMARK    2  A    between atoms: C_4  and  C_5
REMARK    3  A    between atoms: C_5  and  O_6
REMARK    4  A    between atoms: O_6  and  C_7
REMARK    5  A    between atoms: C_7  and  C_9
REMARK    6  A    between atoms: C_9  and  C_10
REMARK    7  A    between atoms: C_9  and  C_16
REMARK                            x       y       z     vdW  Elec       q    Type
REMARK                         _______ _______ _______ _____ _____    ______ ____
ROOT
ATOM      1  C   UNL     1       1.945   5.756  -7.071  0.00  0.00    +0.149 C 
ENDROOT
BRANCH   1   2
ATOM      2  C   UNL     1       0.406   6.120  -6.750  0.00  0.00    -0.010 A 
ATOM      3  C   UNL     1      -0.610   5.439  -7.255  0.00  0.00    -0.004 A 
ATOM      4  C   UNL     1      -1.819   5.421  -6.572  0.00  0.00    -0.000 A 
ATOM      5  C   UNL     1      -2.037   6.357  -5.573  0.00  0.00    -0.000 A 
ATOM      6  C   UNL     1      -0.949   6.995  -5.012  0.00  0.00    -0.000 A 
ATOM      7  C   UNL     1       0.238   7.051  -5.733  0.00  0.00    -0.004 A 
ENDBRANCH   1   2
BRANCH   1   8
ATOM      8  C   UNL     1       2.202   6.963  -8.158  0.00  0.00    +0.140 C 
ATOM      9  C   UNL     1       1.235   6.561  -9.257  0.00  0.00    +0.031 C 
ATOM     10  C   UNL     1       2.018   5.812 -10.290  0.00  0.00    +0.003 C 
ATOM     11  C   UNL     1       3.397   6.387 -10.202  0.00  0.00    +0.003 C 
ATOM     12  C   UNL     1       3.529   6.754  -8.766  0.00  0.00    +0.031 C 
ATOM     13  O   UNL     1       1.885   8.151  -7.661  0.00  0.00    -0.225 OA
ENDBRANCH   1   8
BRANCH   1  14
ATOM     14  C   UNL     1       2.557   6.562  -5.812  0.00  0.00    +0.323 C 
ATOM     15  O   UNL     1       3.443   7.376  -5.962  0.00  0.00    -0.250 OA
BRANCH  14  16
ATOM     16  O   UNL     1       2.554   5.701  -4.709  0.00  0.00    -0.447 OA
BRANCH  16  17
ATOM     17  C   UNL     1       3.618   4.753  -4.694  0.00  0.00    +0.226 C 
BRANCH  17  18
ATOM     18  C   UNL     1       4.593   5.108  -3.578  0.00  0.00    +0.120 C 
BRANCH  18  20
ATOM     19  C   UNL     1       3.821   4.926  -1.342  0.00  0.00    +0.090 C 
ATOM     20  N   UNL     1       3.924   5.728  -2.462  0.00  0.00    -0.267 NA
ATOM     21  C   UNL     1       4.547   7.013  -2.158  0.00  0.00    +0.090 C 
ENDBRANCH  18  20
ENDBRANCH  17  18
ENDBRANCH  16  17
ENDBRANCH  14  16
ENDBRANCH   1  14
TORSDOF 7
ENDMDL
MODEL 4
REMARK VINA RESULT:      -6.9      2.652      6.742
REMARK  Name = 
REMARK  7 active torsions:
REMARK  status: ('A' for Active; 'I' for Inactive)
REMARK    1  A    between atoms: N_2  and  C_4
REMARK    2  A    between atoms: C_4  and  C_5
REMARK    3  A    between atoms: C_5  and  O_6
REMARK    4  A    between atoms: O_6  and  C_7
REMARK    5  A    between atoms: C_7  and  C_9
REMARK    6  A    between atoms: C_9  and  C_10
REMARK    7  A    between atoms: C_9  and  C_16
REMARK                            x       y       z     vdW  Elec       q    Type
REMARK                         _______ _______ _______ _____ _____    ______ ____
ROOT
ATOM      1  C   UNL     1       3.600   6.590  -9.291  0.00  0.00    +0.149 C 
ENDROOT
BRANCH   1   2
ATOM      2  C   UNL     1       5.031   6.586 -10.038  0.00  0.00    -0.010 A 
ATOM      3  C   UNL     1       5.361   7.480 -10.956  0.00  0.00    -0.004 A 
ATOM      4  C   UNL     1       6.702   7.773 -11.164  0.00  0.00    -0.000 A 
ATOM      5  C   UNL     1       7.662   6.911 -10.656  0.00  0.00    -0.000 A 
ATOM      6  C   UNL     1       7.305   6.043  -9.645  0.00  0.00    -0.000 A 
ATOM      7  C   UNL     1       5.963   5.717  -9.485  0.00  0.00    -0.004 A 
ENDBRANCH   1   2
BRANCH   1   8
ATOM      8  C   UNL     1       2.832   5.590 -10.347  0.00  0.00    +0.140 C 
ATOM      9  C   UNL     1       2.026   6.596 -11.150  0.00  0.00    +0.031 C 
ATOM     10  C   UNL     1       0.645   6.625 -10.571  0.00  0.00    +0.003 C 
ATOM     11  C   UNL     1       0.442   5.248 -10.022  0.00  0.00    +0.003 C 
ATOM     12  C   UNL     1       1.808   4.837  -9.600  0.00  0.00    +0.031 C 
ATOM     13  O   UNL     1       3.689   4.943 -11.126  0.00  0.00    -0.225 OA
ENDBRANCH   1   8
BRANCH   1  14
ATOM     14  C   UNL     1       3.977   5.425  -8.237  0.00  0.00    +0.323 C 
ATOM     15  O   UNL     1       3.684   4.268  -8.454  0.00  0.00    -0.250 OA
BRANCH  14  16
ATOM     16  O   UNL     1       3.873   5.962  -6.949  0.00  0.00    -0.447 OA
BRANCH  16  17
ATOM     17  C   UNL     1       2.972   7.060  -6.835  0.00  0.00    +0.226 C 
BRANCH  17  18
ATOM     18  C   UNL     1       1.670   6.579  -6.205  0.00  0.00    +0.120 C 
BRANCH  18  20
ATOM     19  C   UNL     1       1.715   5.551  -4.068  0.00  0.00    +0.090 C 
ATOM     20  N   UNL     1       1.864   5.379  -5.429  0.00  0.00    -0.267 NA
ATOM     21  C   UNL     1       1.009   4.311  -5.942  0.00  0.00    +0.090 C 
ENDBRANCH  18  20
ENDBRANCH  17  18
ENDBRANCH  16  17
ENDBRANCH  14  16
ENDBRANCH   1  14
TORSDOF 7
ENDMDL
MODEL 5
REMARK VINA RESULT:      -6.8      3.092      6.738
REMARK  Name = 
REMARK  7 active torsions:
REMARK  status: ('A' for Active; 'I' for Inactive)
REMARK    1  A    between atoms: N_2  and  C_4
REMARK    2  A    between atoms: C_4  and  C_5
REMARK    3  A    between atoms: C_5  and  O_6
REMARK    4  A    between atoms: O_6  and  C_7
REMARK    5  A    between atoms: C_7  and  C_9
REMARK    6  A    between atoms: C_9  and  C_10
REMARK    7  A    between atoms: C_9  and  C_16
REMARK                            x       y       z     vdW  Elec       q    Type
REMARK                         _______ _______ _______ _____ _____    ______ ____
ROOT
ATOM      1  C   UNL     1       3.470   6.404  -9.292  0.00  0.00    +0.149 C 
ENDROOT
BRANCH   1   2
ATOM      2  C   UNL     1       4.906   6.477 -10.024  0.00  0.00    -0.010 A 
ATOM      3  C   UNL     1       5.198   7.389 -10.938  0.00  0.00    -0.004 A 
ATOM      4  C   UNL     1       6.524   7.751 -11.133  0.00  0.00    -0.000 A 
ATOM      5  C   UNL     1       7.523   6.941 -10.616  0.00  0.00    -0.000 A 
ATOM      6  C   UNL     1       7.202   6.053  -9.609  0.00  0.00    -0.000 A 
ATOM      7  C   UNL     1       5.877   5.658  -9.463  0.00  0.00    -0.004 A 
ENDBRANCH   1   2
BRANCH   1   8
ATOM      8  C   UNL     1       2.685   5.600 -10.493  0.00  0.00    +0.140 C 
ATOM      9  C   UNL     1       1.897   6.736 -11.122  0.00  0.00    +0.031 C 
ATOM     10  C   UNL     1       0.517   6.696 -10.543  0.00  0.00    +0.003 C 
ATOM     11  C   UNL     1       0.289   5.253 -10.221  0.00  0.00    +0.003 C 
ATOM     12  C   UNL     1       1.647   4.755  -9.874  0.00  0.00    +0.031 C 
ATOM     13  O   UNL     1       3.530   5.072 -11.368  0.00  0.00    -0.225 OA
ENDBRANCH   1   8
BRANCH   1  14
ATOM     14  C   UNL     1       3.807   5.081  -8.429  0.00  0.00    +0.323 C 
ATOM     15  O   UNL     1       3.753   3.978  -8.930  0.00  0.00    -0.250 OA
BRANCH  14  16
ATOM     16  O   UNL     1       3.361   5.297  -7.120  0.00  0.00    -0.447 OA
BRANCH  16  17
ATOM     17  C   UNL     1       3.195   6.668  -6.769  0.00  0.00    +0.226 C 
BRANCH  17  18
ATOM     18  C   UNL     1       3.300   6.817  -5.256  0.00  0.00    +0.120 C 
BRANCH  18  20
ATOM     19  C   UNL     1       5.152   7.816  -4.160  0.00  0.00    +0.090 C 
ATOM     20  N   UNL     1       4.663   6.695  -4.801  0.00  0.00    -0.267 NA
ATOM     21  C   UNL     1       4.810   5.492  -3.986  0.00  0.00    +0.090 C 
ENDBRANCH  18  20
ENDBRANCH  17  18
ENDBRANCH  16  17
ENDBRANCH  14  16
ENDBRANCH   1  14
TORSDOF 7
ENDMDL
MODEL 6
REMARK VINA RESULT:      -6.7      2.232      4.484
REMARK  Name = 
REMARK  7 active torsions:
REMARK  status: ('A' for Active; 'I' for Inactive)
REMARK    1  A    between atoms: N_2  and  C_4
REMARK    2  A    between atoms: C_4  and  C_5
REMARK    3  A    between atoms: C_5  and  O_6
REMARK    4  A    between atoms: O_6  and  C_7
REMARK    5  A    between atoms: C_7  and  C_9
REMARK    6  A    between atoms: C_9  and  C_10
REMARK    7  A    between atoms: C_9  and  C_16
REMARK                            x       y       z     vdW  Elec       q    Type
REMARK                         _______ _______ _______ _____ _____    ______ ____
ROOT
ATOM      1  C   UNL     1       3.082   5.236  -7.028  0.00  0.00    +0.149 C 
ENDROOT
BRANCH   1   2
ATOM      2  C   UNL     1       4.011   5.761  -5.818  0.00  0.00    -0.010 A 
ATOM      3  C   UNL     1       4.349   7.033  -5.676  0.00  0.00    -0.004 A 
ATOM      4  C   UNL     1       4.662   7.513  -4.411  0.00  0.00    -0.000 A 
ATOM      5  C   UNL     1       4.927   6.606  -3.397  0.00  0.00    -0.000 A 
ATOM      6  C   UNL     1       4.493   5.304  -3.541  0.00  0.00    -0.000 A 
ATOM      7  C   UNL     1       4.237   4.822  -4.820  0.00  0.00    -0.004 A 
ENDBRANCH   1   2
BRANCH   1   8
ATOM      8  C   UNL     1       1.889   6.355  -6.851  0.00  0.00    +0.140 C 
ATOM      9  C   UNL     1       1.396   6.019  -5.455  0.00  0.00    +0.031 C 
ATOM     10  C   UNL     1       0.195   5.138  -5.605  0.00  0.00    +0.003 C 
ATOM     11  C   UNL     1      -0.411   5.551  -6.910  0.00  0.00    +0.003 C 
ATOM     12  C   UNL     1       0.765   5.966  -7.723  0.00  0.00    +0.031 C 
ATOM     13  O   UNL     1       2.362   7.593  -6.899  0.00  0.00    -0.225 OA
ENDBRANCH   1   8
BRANCH   1  14
ATOM     14  C   UNL     1       3.869   6.046  -8.184  0.00  0.00    +0.323 C 
ATOM     15  O   UNL     1       3.283   6.478  -9.153  0.00  0.00    -0.250 OA
BRANCH  14  16
ATOM     16  O   UNL     1       5.144   5.483  -8.309  0.00  0.00    -0.447 OA
BRANCH  16  17
ATOM     17  C   UNL     1       5.734   5.633  -9.598  0.00  0.00    +0.226 C 
BRANCH  17  18
ATOM     18  C   UNL     1       7.233   5.864  -9.443  0.00  0.00    +0.120 C 
BRANCH  18  20
ATOM     19  C   UNL     1       8.170   5.641 -11.610  0.00  0.00    +0.090 C 
ATOM     20  N   UNL     1       7.795   6.508 -10.603  0.00  0.00    -0.267 NA
ATOM     21  C   UNL     1       6.888   7.546 -11.085  0.00  0.00    +0.090 C 
ENDBRANCH  18  20
ENDBRANCH  17  18
ENDBRANCH  16  17
ENDBRANCH  14  16
ENDBRANCH   1  14
TORSDOF 7
ENDMDL
MODEL 7
REMARK VINA RESULT:      -6.7      3.090      4.978
REMARK  Name = 
REMARK  7 active torsions:
REMARK  status: ('A' for Active; 'I' for Inactive)
REMARK    1  A    between atoms: N_2  and  C_4
REMARK    2  A    between atoms: C_4  and  C_5
REMARK    3  A    between atoms: C_5  and  O_6
REMARK    4  A    between atoms: O_6  and  C_7
REMARK    5  A    between atoms: C_7  and  C_9
REMARK    6  A    between atoms: C_9  and  C_10
REMARK    7  A    between atoms: C_9  and  C_16
REMARK                            x       y       z     vdW  Elec       q    Type
REMARK                         _______ _______ _______ _____ _____    ______ ____
ROOT
ATOM      1  C   UNL     1      -0.454   6.575  -3.031  0.00  0.00    +0.149 C 
ENDROOT
BRANCH   1   2
ATOM      2  C   UNL     1      -0.974   5.869  -4.386  0.00  0.00    -0.010 A 
ATOM      3  C   UNL     1      -2.183   6.077  -4.883  0.00  0.00    -0.004 A 
ATOM      4  C   UNL     1      -2.393   5.909  -6.245  0.00  0.00    -0.000 A 
ATOM      5  C   UNL     1      -1.443   5.228  -6.990  0.00  0.00    -0.000 A 
ATOM      6  C   UNL     1      -0.169   5.094  -6.478  0.00  0.00    -0.000 A 
ATOM      7  C   UNL     1       0.016   5.211  -5.105  0.00  0.00    -0.004 A 
ENDBRANCH   1   2
BRANCH   1   8
ATOM      8  C   UNL     1      -1.544   5.871  -2.021  0.00  0.00    +0.140 C 
ATOM      9  C   UNL     1      -2.535   7.008  -1.841  0.00  0.00    +0.031 C 
ATOM     10  C   UNL     1      -2.187   7.706  -0.563  0.00  0.00    +0.003 C 
ATOM     11  C   UNL     1      -1.579   6.639   0.292  0.00  0.00    +0.003 C 
ATOM     12  C   UNL     1      -0.917   5.740  -0.692  0.00  0.00    +0.031 C 
ATOM     13  O   UNL     1      -2.129   4.820  -2.580  0.00  0.00    -0.225 OA
ENDBRANCH   1   8
BRANCH   1  14
ATOM     14  C   UNL     1       0.721   5.505  -2.744  0.00  0.00    +0.323 C 
ATOM     15  O   UNL     1       0.514   4.514  -2.077  0.00  0.00    -0.250 OA
BRANCH  14  16
ATOM     16  O   UNL     1       1.924   6.211  -2.626  0.00  0.00    -0.447 OA
BRANCH  16  17
ATOM     17  C   UNL     1       3.096   5.406  -2.732  0.00  0.00    +0.226 C 
BRANCH  17  18
ATOM     18  C   UNL     1       3.701   5.577  -4.121  0.00  0.00    +0.120 C 
BRANCH  18  20
ATOM     19  C   UNL     1       4.817   7.658  -4.340  0.00  0.00    +0.090 C 
ATOM     20  N   UNL     1       3.652   6.949  -4.558  0.00  0.00    -0.267 NA
ATOM     21  C   UNL     1       3.227   7.013  -5.954  0.00  0.00    +0.090 C 
ENDBRANCH  18  20
ENDBRANCH  17  18
ENDBRANCH  16  17
ENDBRANCH  14  16
ENDBRANCH   1  14
TORSDOF 7
ENDMDL
MODEL 8
REMARK VINA RESULT:      -6.6      2.661      4.898
REMARK  Name = 
REMARK  7 active torsions:
REMARK  status: ('A' for Active; 'I' for Inactive)
REMARK    1  A    between atoms: N_2  and  C_4
REMARK    2  A    between atoms: C_4  and  C_5
REMARK    3  A    between atoms: C_5  and  O_6
REMARK    4  A    between atoms: O_6  and  C_7
REMARK    5  A    between atoms: C_7  and  C_9
REMARK    6  A    between atoms: C_9  and  C_10
REMARK    7  A    between atoms: C_9  and  C_16
REMARK                            x       y       z     vdW  Elec       q    Type
REMARK                         _______ _______ _______ _____ _____    ______ ____
ROOT
ATOM      1  C   UNL     1       3.163   5.053  -7.510  0.00  0.00    +0.149 C 
ENDROOT
BRANCH   1   2
ATOM      2  C   UNL     1       4.249   5.792  -8.448  0.00  0.00    -0.010 A 
ATOM      3  C   UNL     1       5.511   5.402  -8.525  0.00  0.00    -0.004 A 
ATOM      4  C   UNL     1       6.237   5.682  -9.675  0.00  0.00    -0.000 A 
ATOM      5  C   UNL     1       5.745   6.625 -10.564  0.00  0.00    -0.000 A 
ATOM      6  C   UNL     1       4.406   6.954 -10.509  0.00  0.00    -0.000 A 
ATOM      7  C   UNL     1       3.707   6.717  -9.331  0.00  0.00    -0.004 A 
ENDBRANCH   1   2
BRANCH   1   8
ATOM      8  C   UNL     1       3.127   6.195  -6.326  0.00  0.00    +0.140 C 
ATOM      9  C   UNL     1       4.508   6.015  -5.721  0.00  0.00    +0.031 C 
ATOM     10  C   UNL     1       4.359   5.133  -4.521  0.00  0.00    +0.003 C 
ATOM     11  C   UNL     1       2.974   5.410  -4.025  0.00  0.00    +0.003 C 
ATOM     12  C   UNL     1       2.217   5.724  -5.266  0.00  0.00    +0.031 C 
ATOM     13  O   UNL     1       2.984   7.416  -6.823  0.00  0.00    -0.225 OA
ENDBRANCH   1   8
BRANCH   1  14
ATOM     14  C   UNL     1       1.872   5.620  -8.298  0.00  0.00    +0.323 C 
ATOM     15  O   UNL     1       0.945   6.122  -7.698  0.00  0.00    -0.250 OA
BRANCH  14  16
ATOM     16  O   UNL     1       1.647   4.792  -9.404  0.00  0.00    -0.447 OA
BRANCH  16  17
ATOM     17  C   UNL     1       0.359   4.935  -9.998  0.00  0.00    +0.226 C 
BRANCH  17  18
ATOM     18  C   UNL     1       0.521   5.200 -11.491  0.00  0.00    +0.120 C 
BRANCH  18  20
ATOM     19  C   UNL     1       1.282   6.847 -13.019  0.00  0.00    +0.090 C 
ATOM     20  N   UNL     1       0.773   6.594 -11.760  0.00  0.00    -0.267 NA
ATOM     21  C   UNL     1      -0.428   7.379 -11.488  0.00  0.00    +0.090 C 
ENDBRANCH  18  20
ENDBRANCH  17  18
ENDBRANCH  16  17
ENDBRANCH  14  16
ENDBRANCH   1  14
TORSDOF 7
ENDMDL
MODEL 9
REMARK VINA RESULT:      -6.6      1.286      3.959
REMARK  Name = 
REMARK  7 active torsions:
REMARK  status: ('A' for Active; 'I' for Inactive)
REMARK    1  A    between atoms: N_2  and  C_4
REMARK    2  A    between atoms: C_4  and  C_5
REMARK    3  A    between atoms: C_5  and  O_6
REMARK    4  A    between atoms: O_6  and  C_7
REMARK    5  A    between atoms: C_7  and  C_9
REMARK    6  A    between atoms: C_9  and  C_10
REMARK    7  A    between atoms: C_9  and  C_16
REMARK                            x       y       z     vdW  Elec       q    Type
REMARK                         _______ _______ _______ _____ _____    ______ ____
ROOT
ATOM      1  C   UNL     1       0.959   4.788  -5.528  0.00  0.00    +0.149 C 
ENDROOT
BRANCH   1   2
ATOM      2  C   UNL     1       2.255   5.525  -4.911  0.00  0.00    -0.010 A 
ATOM      3  C   UNL     1       2.728   5.250  -3.705  0.00  0.00    -0.004 A 
ATOM      4  C   UNL     1       4.071   5.477  -3.438  0.00  0.00    -0.000 A 
ATOM      5  C   UNL     1       4.802   6.272  -4.306  0.00  0.00    -0.000 A 
ATOM      6  C   UNL     1       4.320   6.477  -5.583  0.00  0.00    -0.000 A 
ATOM      7  C   UNL     1       2.962   6.299  -5.822  0.00  0.00    -0.004 A 
ENDBRANCH   1   2
BRANCH   1   8
ATOM      8  C   UNL     1      -0.012   6.115  -5.569  0.00  0.00    +0.140 C 
ATOM      9  C   UNL     1      -0.328   6.277  -4.093  0.00  0.00    +0.031 C 
ATOM     10  C   UNL     1      -1.655   5.630  -3.846  0.00  0.00    +0.003 C 
ATOM     11  C   UNL     1      -2.387   5.772  -5.144  0.00  0.00    +0.003 C 
ATOM     12  C   UNL     1      -1.303   5.718  -6.162  0.00  0.00    +0.031 C 
ATOM     13  O   UNL     1       0.627   7.180  -6.035  0.00  0.00    -0.225 OA
ENDBRANCH   1   8
BRANCH   1  14
ATOM     14  C   UNL     1       1.435   4.909  -7.067  0.00  0.00    +0.323 C 
ATOM     15  O   UNL     1       0.655   5.226  -7.939  0.00  0.00    -0.250 OA
BRANCH  14  16
ATOM     16  O   UNL     1       2.405   3.926  -7.295  0.00  0.00    -0.447 OA
BRANCH  16  17
ATOM     17  C   UNL     1       2.715   3.707  -8.668  0.00  0.00    +0.226 C 
BRANCH  17  18
ATOM     18  C   UNL     1       3.995   4.456  -9.022  0.00  0.00    +0.120 C 
BRANCH  18  20
ATOM     19  C   UNL     1       3.650   6.762  -9.459  0.00  0.00    +0.090 C 
ATOM     20  N   UNL     1       3.753   5.493  -9.994  0.00  0.00    -0.267 NA
ATOM     21  C   UNL     1       4.757   5.427 -11.052  0.00  0.00    +0.090 C 
ENDBRANCH  18  20
ENDBRANCH  17  18
ENDBRANCH  16  17
ENDBRANCH  14  16
ENDBRANCH   1  14
TORSDOF 7
ENDMDL
