MODEL 1
REMARK VINA RESULT:      -8.4      0.000      0.000
REMARK  Name = 
REMARK  10 active torsions:
REMARK  status: ('A' for Active; 'I' for Inactive)
REMARK    1  A    between atoms: O_2  and  C_3
REMARK    2  A    between atoms: C_8  and  O_9
REMARK    3  A    between atoms: O_9  and  C_10
REMARK    4  A    between atoms: C_10  and  C_11
REMARK    5  A    between atoms: C_11  and  N_12
REMARK    6  A    between atoms: N_12  and  C_13
REMARK    7  A    between atoms: C_13  and  C_14
REMARK    8  A    between atoms: C_14  and  C_16
REMARK    9  A    between atoms: C_16  and  O_17
REMARK   10  A    between atoms: O_17  and  C_18
REMARK                            x       y       z     vdW  Elec       q    Type
REMARK                         _______ _______ _______ _____ _____    ______ ____
ROOT
ATOM      1  C   UNL     1       4.669   6.235  -5.426  0.00  0.00    +0.213 C 
ATOM      2  O   UNL     1       3.763   7.478  -5.572  0.00  0.00    -0.218 OA
ENDROOT
BRANCH   1   3
ATOM      3  C   UNL     1       4.040   5.822  -3.929  0.00  0.00    +0.126 C 
BRANCH   3   4
ATOM      4  N   UNL     1       3.143   6.870  -3.569  0.00  0.00    -0.211 NA
BRANCH   4   5
ATOM      5  C   UNL     1       2.405   6.364  -2.412  0.00  0.00    +0.136 C 
BRANCH   5   6
ATOM      6  C   UNL     1       1.254   5.466  -2.833  0.00  0.00    +0.224 C 
BRANCH   6   7
ATOM      7  O   UNL     1       0.343   6.309  -3.522  0.00  0.00    -0.471 OA
BRANCH   7   9
ATOM      8  C   UNL     1      -1.830   5.714  -4.264  0.00  0.00    +0.172 A 
ATOM      9  C   UNL     1      -0.470   5.704  -4.486  0.00  0.00    +0.172 A 
ATOM     10  C   UNL     1       0.026   5.254  -5.695  0.00  0.00    +0.040 A 
ATOM     11  C   UNL     1      -0.819   5.201  -6.764  0.00  0.00    +0.003 A 
ATOM     12  C   UNL     1      -2.141   5.592  -6.628  0.00  0.00    +0.003 A 
ATOM     13  C   UNL     1      -2.675   5.707  -5.351  0.00  0.00    +0.040 A 
BRANCH   8  15
ATOM     14  C   UNL     1      -2.787   5.426  -2.553  0.00  0.00    +0.253 C 
ATOM     15  O   UNL     1      -2.278   5.474  -2.962  0.00  0.00    -0.468 OA
ENDBRANCH   8  15
ENDBRANCH   7   9
ENDBRANCH   6   7
ENDBRANCH   5   6
ENDBRANCH   4   5
ENDBRANCH   3   4
ENDBRANCH   1   3
BRANCH   1  16
ATOM     16  C   UNL     1       3.538   5.271  -6.198  0.00  0.00    +0.240 C 
BRANCH  16  17
ATOM     17  O   UNL     1       4.117   4.879  -7.381  0.00  0.00    -0.473 OA
BRANCH  17  18
ATOM     18  C   UNL     1       3.530   4.601  -8.590  0.00  0.00    +0.140 A 
ATOM     19  C   UNL     1       4.019   5.240  -9.726  0.00  0.00    +0.053 A 
ATOM     20  C   UNL     1       3.195   5.719 -10.725  0.00  0.00    +0.084 A 
ATOM     21  N   UNL     1       3.892   6.634 -11.438  0.00  0.00    -0.245 NA
ATOM     22  C   UNL     1       5.178   6.614 -11.016  0.00  0.00    +0.081 A 
ATOM     23  C   UNL     1       6.332   7.289 -11.369  0.00  0.00    +0.019 A 
ATOM     24  C   UNL     1       7.551   6.959 -10.789  0.00  0.00    +0.002 A 
ATOM     25  C   UNL     1       7.599   6.024  -9.772  0.00  0.00    +0.000 A 
ATOM     26  C   UNL     1       6.403   5.817  -9.089  0.00  0.00    +0.002 A 
ATOM     27  C   UNL     1       1.841   5.481 -10.672  0.00  0.00    +0.019 A 
ATOM     28  C   UNL     1       1.401   4.603  -9.703  0.00  0.00    +0.005 A 
ATOM     29  C   UNL     1       5.289   5.770  -9.917  0.00  0.00    +0.022 A 
ATOM     30  C   UNL     1       2.234   4.121  -8.704  0.00  0.00    +0.037 A 
ENDBRANCH  17  18
ENDBRANCH  16  17
ENDBRANCH   1  16
TORSDOF 10
ENDMDL
MODEL 2
REMARK VINA RESULT:      -8.4      2.593      8.503
REMARK  Name = 
REMARK  10 active torsions:
REMARK  status: ('A' for Active; 'I' for Inactive)
REMARK    1  A    between atoms: O_2  and  C_3
REMARK    2  A    between atoms: C_8  and  O_9
REMARK    3  A    between atoms: O_9  and  C_10
REMARK    4  A    between atoms: C_10  and  C_11
REMARK    5  A    between atoms: C_11  and  N_12
REMARK    6  A    between atoms: N_12  and  C_13
REMARK    7  A    between atoms: C_13  and  C_14
REMARK    8  A    between atoms: C_14  and  C_16
REMARK    9  A    between atoms: C_16  and  O_17
REMARK   10  A    between atoms: O_17  and  C_18
REMARK                            x       y       z     vdW  Elec       q    Type
REMARK                         _______ _______ _______ _____ _____    ______ ____
ROOT
ATOM      1  C   UNL     1       0.271   6.066 -11.124  0.00  0.00    +0.213 C 
ATOM      2  O   UNL     1       0.729   7.214 -10.198  0.00  0.00    -0.218 OA
ENDROOT
BRANCH   1   3
ATOM      3  C   UNL     1       1.312   6.506 -12.361  0.00  0.00    +0.126 C 
BRANCH   3   4
ATOM      4  N   UNL     1       2.152   5.378 -12.597  0.00  0.00    -0.211 NA
BRANCH   4   5
ATOM      5  C   UNL     1       2.593   5.511 -13.985  0.00  0.00    +0.136 C 
BRANCH   5   6
ATOM      6  C   UNL     1       4.076   5.821 -14.074  0.00  0.00    +0.224 C 
BRANCH   6   7
ATOM      7  O   UNL     1       4.691   5.047 -13.055  0.00  0.00    -0.471 OA
BRANCH   7   9
ATOM      8  C   UNL     1       5.841   5.970 -11.196  0.00  0.00    +0.172 A 
ATOM      9  C   UNL     1       5.877   5.552 -12.509  0.00  0.00    +0.172 A 
ATOM     10  C   UNL     1       7.083   5.493 -13.179  0.00  0.00    +0.040 A 
ATOM     11  C   UNL     1       8.233   5.468 -12.446  0.00  0.00    +0.003 A 
ATOM     12  C   UNL     1       8.177   5.501 -11.061  0.00  0.00    +0.003 A 
ATOM     13  C   UNL     1       6.995   5.898 -10.450  0.00  0.00    +0.040 A 
BRANCH   8  15
ATOM     14  C   UNL     1       4.476   7.210 -10.472  0.00  0.00    +0.253 C 
ATOM     15  O   UNL     1       4.714   6.679 -10.771  0.00  0.00    -0.468 OA
ENDBRANCH   8  15
ENDBRANCH   7   9
ENDBRANCH   6   7
ENDBRANCH   5   6
ENDBRANCH   4   5
ENDBRANCH   3   4
ENDBRANCH   1   3
BRANCH   1  16
ATOM     16  C   UNL     1       1.425   5.035 -10.483  0.00  0.00    +0.240 C 
BRANCH  16  17
ATOM     17  O   UNL     1       1.089   4.863  -9.162  0.00  0.00    -0.473 OA
BRANCH  17  18
ATOM     18  C   UNL     1       1.898   4.811  -8.054  0.00  0.00    +0.140 A 
ATOM     19  C   UNL     1       1.462   5.431  -6.886  0.00  0.00    +0.053 A 
ATOM     20  C   UNL     1       2.307   6.148  -6.063  0.00  0.00    +0.084 A 
ATOM     21  N   UNL     1       1.548   6.960  -5.291  0.00  0.00    -0.245 NA
ATOM     22  C   UNL     1       0.248   6.644  -5.492  0.00  0.00    +0.081 A 
ATOM     23  C   UNL     1      -0.957   7.099  -4.986  0.00  0.00    +0.019 A 
ATOM     24  C   UNL     1      -2.151   6.482  -5.339  0.00  0.00    +0.002 A 
ATOM     25  C   UNL     1      -2.152   5.475  -6.286  0.00  0.00    +0.000 A 
ATOM     26  C   UNL     1      -1.058   5.458  -7.146  0.00  0.00    +0.002 A 
ATOM     27  C   UNL     1       3.657   6.186  -6.328  0.00  0.00    +0.019 A 
ATOM     28  C   UNL     1       4.122   5.338  -7.312  0.00  0.00    +0.005 A 
ATOM     29  C   UNL     1       0.154   5.707  -6.514  0.00  0.00    +0.022 A 
ATOM     30  C   UNL     1       3.269   4.615  -8.133  0.00  0.00    +0.037 A 
ENDBRANCH  17  18
ENDBRANCH  16  17
ENDBRANCH   1  16
TORSDOF 10
ENDMDL
MODEL 3
REMARK VINA RESULT:      -8.4      2.197      8.357
REMARK  Name = 
REMARK  10 active torsions:
REMARK  status: ('A' for Active; 'I' for Inactive)
REMARK    1  A    between atoms: O_2  and  C_3
REMARK    2  A    between atoms: C_8  and  O_9
REMARK    3  A    between atoms: O_9  and  C_10
REMARK    4  A    between atoms: C_10  and  C_11
REMARK    5  A    between atoms: C_11  and  N_12
REMARK    6  A    between atoms: N_12  and  C_13
REMARK    7  A    between atoms: C_13  and  C_14
REMARK    8  A    between atoms: C_14  and  C_16
REMARK    9  A    between atoms: C_16  and  O_17
REMARK   10  A    between atoms: O_17  and  C_18
REMARK                            x       y       z     vdW  Elec       q    Type
REMARK                         _______ _______ _______ _____ _____    ______ ____
ROOT
ATOM      1  C   UNL     1       3.243   5.870  -4.949  0.00  0.00    +0.213 C 
ATOM      2  O   UNL     1       4.568   5.132  -4.654  0.00  0.00    -0.218 OA
ENDROOT
BRANCH   1   3
ATOM      3  C   UNL     1       3.724   6.343  -6.482  0.00  0.00    +0.126 C 
BRANCH   3   4
ATOM      4  N   UNL     1       2.838   7.390  -6.874  0.00  0.00    -0.211 NA
BRANCH   4   5
ATOM      5  C   UNL     1       2.768   7.308  -8.332  0.00  0.00    +0.136 C 
BRANCH   5   6
ATOM      6  C   UNL     1       3.337   5.997  -8.846  0.00  0.00    +0.224 C 
BRANCH   6   7
ATOM      7  O   UNL     1       3.956   6.308 -10.086  0.00  0.00    -0.471 OA
BRANCH   7   9
ATOM      8  C   UNL     1       5.670   5.652 -11.589  0.00  0.00    +0.172 A 
ATOM      9  C   UNL     1       5.248   5.810 -10.287  0.00  0.00    +0.172 A 
ATOM     10  C   UNL     1       6.142   5.633  -9.248  0.00  0.00    +0.040 A 
ATOM     11  C   UNL     1       7.476   5.692  -9.522  0.00  0.00    +0.003 A 
ATOM     12  C   UNL     1       7.912   5.926 -10.817  0.00  0.00    +0.003 A 
ATOM     13  C   UNL     1       7.015   5.759 -11.864  0.00  0.00    +0.040 A 
BRANCH   8  15
ATOM     14  C   UNL     1       4.587   5.064 -13.140  0.00  0.00    +0.253 C 
ATOM     15  O   UNL     1       4.753   5.142 -12.511  0.00  0.00    -0.468 OA
ENDBRANCH   8  15
ENDBRANCH   7   9
ENDBRANCH   6   7
ENDBRANCH   5   6
ENDBRANCH   4   5
ENDBRANCH   3   4
ENDBRANCH   1   3
BRANCH   1  16
ATOM     16  C   UNL     1       2.555   4.473  -5.565  0.00  0.00    +0.240 C 
BRANCH  16  17
ATOM     17  O   UNL     1       1.242   4.487  -5.163  0.00  0.00    -0.473 OA
BRANCH  17  18
ATOM     18  C   UNL     1       0.207   5.286  -5.583  0.00  0.00    +0.140 A 
ATOM     19  C   UNL     1      -0.771   5.642  -4.659  0.00  0.00    +0.053 A 
ATOM     20  C   UNL     1      -2.114   5.688  -4.976  0.00  0.00    +0.084 A 
ATOM     21  N   UNL     1      -2.818   5.633  -3.821  0.00  0.00    -0.245 NA
ATOM     22  C   UNL     1      -1.948   5.726  -2.788  0.00  0.00    +0.081 A 
ATOM     23  C   UNL     1      -2.067   5.746  -1.410  0.00  0.00    +0.019 A 
ATOM     24  C   UNL     1      -0.953   5.954  -0.606  0.00  0.00    +0.002 A 
ATOM     25  C   UNL     1       0.303   6.031  -1.177  0.00  0.00    +0.000 A 
ATOM     26  C   UNL     1       0.428   5.448  -2.435  0.00  0.00    +0.002 A 
ATOM     27  C   UNL     1      -2.522   5.475  -6.273  0.00  0.00    +0.019 A 
ATOM     28  C   UNL     1      -1.534   5.411  -7.233  0.00  0.00    +0.005 A 
ATOM     29  C   UNL     1      -0.647   5.702  -3.277  0.00  0.00    +0.022 A 
ATOM     30  C   UNL     1      -0.185   5.371  -6.910  0.00  0.00    +0.037 A 
ENDBRANCH  17  18
ENDBRANCH  16  17
ENDBRANCH   1  16
TORSDOF 10
ENDMDL
MODEL 4
REMARK VINA RESULT:      -8.2      1.568      3.266
REMARK  Name = 
REMARK  10 active torsions:
REMARK  status: ('A' for Active; 'I' for Inactive)
REMARK    1  A    between atoms: O_2  and  C_3
REMARK    2  A    between atoms: C_8  and  O_9
REMARK    3  A    between atoms: O_9  and  C_10
REMARK    4  A    between atoms: C_10  and  C_11
REMARK    5  A    between atoms: C_11  and  N_12
REMARK    6  A    between atoms: N_12  and  C_13
REMARK    7  A    between atoms: C_13  and  C_14
REMARK    8  A    between atoms: C_14  and  C_16
REMARK    9  A    between atoms: C_16  and  O_17
REMARK   10  A    between atoms: O_17  and  C_18
REMARK                            x       y       z     vdW  Elec       q    Type
REMARK                         _______ _______ _______ _____ _____    ______ ____
ROOT
ATOM      1  C   UNL     1       3.362   5.937  -7.495  0.00  0.00    +0.213 C 
ATOM      2  O   UNL     1       2.892   4.475  -7.660  0.00  0.00    -0.218 OA
ENDROOT
BRANCH   1   3
ATOM      3  C   UNL     1       3.581   5.792  -5.841  0.00  0.00    +0.126 C 
BRANCH   3   4
ATOM      4  N   UNL     1       3.338   7.086  -5.290  0.00  0.00    -0.211 NA
BRANCH   4   5
ATOM      5  C   UNL     1       2.965   6.846  -3.897  0.00  0.00    +0.136 C 
BRANCH   5   6
ATOM      6  C   UNL     1       1.922   5.749  -3.778  0.00  0.00    +0.224 C 
BRANCH   6   7
ATOM      7  O   UNL     1       0.666   6.403  -3.878  0.00  0.00    -0.471 OA
BRANCH   7   9
ATOM      8  C   UNL     1      -1.606   5.791  -4.185  0.00  0.00    +0.172 A 
ATOM      9  C   UNL     1      -0.312   5.775  -4.658  0.00  0.00    +0.172 A 
ATOM     10  C   UNL     1      -0.049   5.296  -5.927  0.00  0.00    +0.040 A 
ATOM     11  C   UNL     1      -1.079   5.217  -6.817  0.00  0.00    +0.003 A 
ATOM     12  C   UNL     1      -2.354   5.612  -6.444  0.00  0.00    +0.003 A 
ATOM     13  C   UNL     1      -2.640   5.758  -5.093  0.00  0.00    +0.040 A 
BRANCH   8  15
ATOM     14  C   UNL     1      -2.218   5.438  -2.334  0.00  0.00    +0.253 C 
ATOM     15  O   UNL     1      -1.800   5.581  -2.816  0.00  0.00    -0.468 OA
ENDBRANCH   8  15
ENDBRANCH   7   9
ENDBRANCH   6   7
ENDBRANCH   5   6
ENDBRANCH   4   5
ENDBRANCH   3   4
ENDBRANCH   1   3
BRANCH   1  16
ATOM     16  C   UNL     1       4.954   5.498  -7.772  0.00  0.00    +0.240 C 
BRANCH  16  17
ATOM     17  O   UNL     1       5.048   5.235  -9.117  0.00  0.00    -0.473 OA
BRANCH  17  18
ATOM     18  C   UNL     1       5.925   5.735 -10.047  0.00  0.00    +0.140 A 
ATOM     19  C   UNL     1       5.554   5.709 -11.389  0.00  0.00    +0.053 A 
ATOM     20  C   UNL     1       6.438   5.393 -12.401  0.00  0.00    +0.084 A 
ATOM     21  N   UNL     1       5.717   5.033 -13.488  0.00  0.00    -0.245 NA
ATOM     22  C   UNL     1       4.412   5.280 -13.234  0.00  0.00    +0.081 A 
ATOM     23  C   UNL     1       3.234   5.141 -13.947  0.00  0.00    +0.019 A 
ATOM     24  C   UNL     1       2.029   5.587 -13.419  0.00  0.00    +0.002 A 
ATOM     25  C   UNL     1       1.983   6.076 -12.126  0.00  0.00    +0.000 A 
ATOM     26  C   UNL     1       3.022   5.670 -11.293  0.00  0.00    +0.002 A 
ATOM     27  C   UNL     1       7.769   5.190 -12.112  0.00  0.00    +0.019 A 
ATOM     28  C   UNL     1       8.182   5.501 -10.834  0.00  0.00    +0.005 A 
ATOM     29  C   UNL     1       4.267   5.677 -11.909  0.00  0.00    +0.022 A 
ATOM     30  C   UNL     1       7.290   5.823  -9.822  0.00  0.00    +0.037 A 
ENDBRANCH  17  18
ENDBRANCH  16  17
ENDBRANCH   1  16
TORSDOF 10
ENDMDL
MODEL 5
REMARK VINA RESULT:      -8.1      2.104      3.955
REMARK  Name = 
REMARK  10 active torsions:
REMARK  status: ('A' for Active; 'I' for Inactive)
REMARK    1  A    between atoms: O_2  and  C_3
REMARK    2  A    between atoms: C_8  and  O_9
REMARK    3  A    between atoms: O_9  and  C_10
REMARK    4  A    between atoms: C_10  and  C_11
REMARK    5  A    between atoms: C_11  and  N_12
REMARK    6  A    between atoms: N_12  and  C_13
REMARK    7  A    between atoms: C_13  and  C_14
REMARK    8  A    between atoms: C_14  and  C_16
REMARK    9  A    between atoms: C_16  and  O_17
REMARK   10  A    between atoms: O_17  and  C_18
REMARK                            x       y       z     vdW  Elec       q    Type
REMARK                         _______ _______ _______ _____ _____    ______ ____
ROOT
ATOM      1  C   UNL     1       4.062   5.374  -7.260  0.00  0.00    +0.213 C 
ATOM      2  O   UNL     1       3.468   6.548  -8.070  0.00  0.00    -0.218 OA
ENDROOT
BRANCH   1   3
ATOM      3  C   UNL     1       2.864   4.303  -7.733  0.00  0.00    +0.126 C 
BRANCH   3   4
ATOM      4  N   UNL     1       2.282   3.798  -6.532  0.00  0.00    -0.211 NA
BRANCH   4   5
ATOM      5  C   UNL     1       2.943   4.526  -5.449  0.00  0.00    +0.136 C 
BRANCH   5   6
ATOM      6  C   UNL     1       1.940   5.248  -4.567  0.00  0.00    +0.224 C 
BRANCH   6   7
ATOM      7  O   UNL     1       0.660   4.853  -5.039  0.00  0.00    -0.471 OA
BRANCH   7   9
ATOM      8  C   UNL     1      -1.158   5.742  -6.276  0.00  0.00    +0.172 A 
ATOM      9  C   UNL     1      -0.287   5.867  -5.215  0.00  0.00    +0.172 A 
ATOM     10  C   UNL     1      -0.472   6.874  -4.288  0.00  0.00    +0.040 A 
ATOM     11  C   UNL     1      -1.697   7.469  -4.211  0.00  0.00    +0.003 A 
ATOM     12  C   UNL     1      -2.724   7.061  -5.049  0.00  0.00    +0.003 A 
ATOM     13  C   UNL     1      -2.409   6.306  -6.171  0.00  0.00    +0.040 A 
BRANCH   8  15
ATOM     14  C   UNL     1      -0.530   5.398  -8.123  0.00  0.00    +0.253 C 
ATOM     15  O   UNL     1      -0.641   5.279  -7.490  0.00  0.00    -0.468 OA
ENDBRANCH   8  15
ENDBRANCH   7   9
ENDBRANCH   6   7
ENDBRANCH   5   6
ENDBRANCH   4   5
ENDBRANCH   3   4
ENDBRANCH   1   3
BRANCH   1  16
ATOM     16  C   UNL     1       5.021   4.915  -8.554  0.00  0.00    +0.240 C 
BRANCH  16  17
ATOM     17  O   UNL     1       5.146   6.029  -9.348  0.00  0.00    -0.473 OA
BRANCH  17  18
ATOM     18  C   UNL     1       6.024   6.276 -10.374  0.00  0.00    +0.140 A 
ATOM     19  C   UNL     1       5.623   5.980 -11.674  0.00  0.00    +0.053 A 
ATOM     20  C   UNL     1       6.470   5.412 -12.605  0.00  0.00    +0.084 A 
ATOM     21  N   UNL     1       5.710   4.862 -13.581  0.00  0.00    -0.245 NA
ATOM     22  C   UNL     1       4.422   5.220 -13.370  0.00  0.00    +0.081 A 
ATOM     23  C   UNL     1       3.224   4.988 -14.022  0.00  0.00    +0.019 A 
ATOM     24  C   UNL     1       2.052   5.595 -13.588  0.00  0.00    +0.002 A 
ATOM     25  C   UNL     1       2.057   6.351 -12.430  0.00  0.00    +0.000 A 
ATOM     26  C   UNL     1       3.094   6.084 -11.542  0.00  0.00    +0.002 A 
ATOM     27  C   UNL     1       7.796   5.212 -12.296  0.00  0.00    +0.019 A 
ATOM     28  C   UNL     1       8.251   5.769 -11.119  0.00  0.00    +0.005 A 
ATOM     29  C   UNL     1       4.325   5.899 -12.160  0.00  0.00    +0.022 A 
ATOM     30  C   UNL     1       7.397   6.343 -10.190  0.00  0.00    +0.037 A 
ENDBRANCH  17  18
ENDBRANCH  16  17
ENDBRANCH   1  16
TORSDOF 10
ENDMDL
MODEL 6
REMARK VINA RESULT:      -8.1      1.864      8.187
REMARK  Name = 
REMARK  10 active torsions:
REMARK  status: ('A' for Active; 'I' for Inactive)
REMARK    1  A    between atoms: O_2  and  C_3
REMARK    2  A    between atoms: C_8  and  O_9
REMARK    3  A    between atoms: O_9  and  C_10
REMARK    4  A    between atoms: C_10  and  C_11
REMARK    5  A    between atoms: C_11  and  N_12
REMARK    6  A    between atoms: N_12  and  C_13
REMARK    7  A    between atoms: C_13  and  C_14
REMARK    8  A    between atoms: C_14  and  C_16
REMARK    9  A    between atoms: C_16  and  O_17
REMARK   10  A    between atoms: O_17  and  C_18
REMARK                            x       y       z     vdW  Elec       q    Type
REMARK                         _______ _______ _______ _____ _____    ______ ____
ROOT
ATOM      1  C   UNL     1       0.945   6.012  -8.002  0.00  0.00    +0.213 C 
ATOM      2  O   UNL     1       1.607   4.617  -7.958  0.00  0.00    -0.218 OA
ENDROOT
BRANCH   1   3
ATOM      3  C   UNL     1       0.459   5.846  -9.597  0.00  0.00    +0.126 C 
BRANCH   3   4
ATOM      4  N   UNL     1       1.433   5.017 -10.228  0.00  0.00    -0.211 NA
BRANCH   4   5
ATOM      5  C   UNL     1       1.641   5.606 -11.550  0.00  0.00    +0.136 C 
BRANCH   5   6
ATOM      6  C   UNL     1       2.989   6.299 -11.648  0.00  0.00    +0.224 C 
BRANCH   6   7
ATOM      7  O   UNL     1       3.811   5.677 -10.671  0.00  0.00    -0.471 OA
BRANCH   7   9
ATOM      8  C   UNL     1       5.828   5.717  -9.424  0.00  0.00    +0.172 A 
ATOM      9  C   UNL     1       5.016   6.317 -10.361  0.00  0.00    +0.172 A 
ATOM     10  C   UNL     1       5.472   7.414 -11.066  0.00  0.00    +0.040 A 
ATOM     11  C   UNL     1       6.815   7.643 -11.113  0.00  0.00    +0.003 A 
ATOM     12  C   UNL     1       7.691   6.785 -10.465  0.00  0.00    +0.003 A 
ATOM     13  C   UNL     1       7.188   5.916  -9.507  0.00  0.00    +0.040 A 
BRANCH   8  15
ATOM     14  C   UNL     1       4.957   5.253  -7.706  0.00  0.00    +0.253 C 
ATOM     15  O   UNL     1       5.218   5.156  -8.299  0.00  0.00    -0.468 OA
ENDBRANCH   8  15
ENDBRANCH   7   9
ENDBRANCH   6   7
ENDBRANCH   5   6
ENDBRANCH   4   5
ENDBRANCH   3   4
ENDBRANCH   1   3
BRANCH   1  16
ATOM     16  C   UNL     1      -0.510   5.382  -7.465  0.00  0.00    +0.240 C 
BRANCH  16  17
ATOM     17  O   UNL     1      -0.349   5.148  -6.120  0.00  0.00    -0.473 OA
BRANCH  17  18
ATOM     18  C   UNL     1      -0.993   5.719  -5.051  0.00  0.00    +0.140 A 
ATOM     19  C   UNL     1      -0.362   5.698  -3.810  0.00  0.00    +0.053 A 
ATOM     20  C   UNL     1      -1.041   5.457  -2.632  0.00  0.00    +0.084 A 
ATOM     21  N   UNL     1      -0.137   5.077  -1.699  0.00  0.00    -0.245 NA
ATOM     22  C   UNL     1       1.103   5.239  -2.217  0.00  0.00    +0.081 A 
ATOM     23  C   UNL     1       2.390   5.045  -1.749  0.00  0.00    +0.019 A 
ATOM     24  C   UNL     1       3.487   5.408  -2.521  0.00  0.00    +0.002 A 
ATOM     25  C   UNL     1       3.298   5.866  -3.812  0.00  0.00    +0.000 A 
ATOM     26  C   UNL     1       2.093   5.506  -4.408  0.00  0.00    +0.002 A 
ATOM     27  C   UNL     1      -2.411   5.327  -2.643  0.00  0.00    +0.019 A 
ATOM     28  C   UNL     1      -3.056   5.636  -3.822  0.00  0.00    +0.005 A 
ATOM     29  C   UNL     1       0.999   5.600  -3.556  0.00  0.00    +0.022 A 
ATOM     30  C   UNL     1      -2.369   5.883  -5.002  0.00  0.00    +0.037 A 
ENDBRANCH  17  18
ENDBRANCH  16  17
ENDBRANCH   1  16
TORSDOF 10
ENDMDL
MODEL 7
REMARK VINA RESULT:      -8.0      1.858      8.080
REMARK  Name = 
REMARK  10 active torsions:
REMARK  status: ('A' for Active; 'I' for Inactive)
REMARK    1  A    between atoms: O_2  and  C_3
REMARK    2  A    between atoms: C_8  and  O_9
REMARK    3  A    between atoms: O_9  and  C_10
REMARK    4  A    between atoms: C_10  and  C_11
REMARK    5  A    between atoms: C_11  and  N_12
REMARK    6  A    between atoms: N_12  and  C_13
REMARK    7  A    between atoms: C_13  and  C_14
REMARK    8  A    between atoms: C_14  and  C_16
REMARK    9  A    between atoms: C_16  and  O_17
REMARK   10  A    between atoms: O_17  and  C_18
REMARK                            x       y       z     vdW  Elec       q    Type
REMARK                         _______ _______ _______ _____ _____    ______ ____
ROOT
ATOM      1  C   UNL     1       3.591   7.550  -3.367  0.00  0.00    +0.213 C 
ATOM      2  O   UNL     1       4.912   7.263  -2.619  0.00  0.00    -0.218 OA
ENDROOT
BRANCH   1   3
ATOM      3  C   UNL     1       3.798   6.277  -4.436  0.00  0.00    +0.126 C 
BRANCH   3   4
ATOM      4  N   UNL     1       3.612   6.818  -5.743  0.00  0.00    -0.211 NA
BRANCH   4   5
ATOM      5  C   UNL     1       4.219   5.846  -6.652  0.00  0.00    +0.136 C 
BRANCH   5   6
ATOM      6  C   UNL     1       3.718   6.021  -8.074  0.00  0.00    +0.224 C 
BRANCH   6   7
ATOM      7  O   UNL     1       4.475   5.114  -8.862  0.00  0.00    -0.471 OA
BRANCH   7   9
ATOM      8  C   UNL     1       4.980   6.414 -10.781  0.00  0.00    +0.172 A 
ATOM      9  C   UNL     1       5.436   5.670  -9.714  0.00  0.00    +0.172 A 
ATOM     10  C   UNL     1       6.787   5.628  -9.431  0.00  0.00    +0.040 A 
ATOM     11  C   UNL     1       7.588   6.605  -9.945  0.00  0.00    +0.003 A 
ATOM     12  C   UNL     1       7.046   7.609 -10.731  0.00  0.00    +0.003 A 
ATOM     13  C   UNL     1       5.776   7.428 -11.264  0.00  0.00    +0.040 A 
BRANCH   8  15
ATOM     14  C   UNL     1       3.309   6.083 -11.792  0.00  0.00    +0.253 C 
ATOM     15  O   UNL     1       3.863   5.940 -11.474  0.00  0.00    -0.468 OA
ENDBRANCH   8  15
ENDBRANCH   7   9
ENDBRANCH   6   7
ENDBRANCH   5   6
ENDBRANCH   4   5
ENDBRANCH   3   4
ENDBRANCH   1   3
BRANCH   1  16
ATOM     16  C   UNL     1       2.737   6.565  -2.317  0.00  0.00    +0.240 C 
BRANCH  16  17
ATOM     17  O   UNL     1       1.487   6.415  -2.868  0.00  0.00    -0.473 OA
BRANCH  17  18
ATOM     18  C   UNL     1       0.367   5.817  -2.346  0.00  0.00    +0.140 A 
ATOM     19  C   UNL     1      -0.736   5.639  -3.176  0.00  0.00    +0.053 A 
ATOM     20  C   UNL     1      -2.033   5.837  -2.745  0.00  0.00    +0.084 A 
ATOM     21  N   UNL     1      -2.813   6.012  -3.837  0.00  0.00    -0.245 NA
ATOM     22  C   UNL     1      -2.068   5.760  -4.938  0.00  0.00    +0.081 A 
ATOM     23  C   UNL     1      -2.309   5.755  -6.300  0.00  0.00    +0.019 A 
ATOM     24  C   UNL     1      -1.325   5.347  -7.191  0.00  0.00    +0.002 A 
ATOM     25  C   UNL     1      -0.057   5.047  -6.728  0.00  0.00    +0.000 A 
ATOM     26  C   UNL     1       0.280   5.604  -5.497  0.00  0.00    +0.002 A 
ATOM     27  C   UNL     1      -2.281   6.125  -1.422  0.00  0.00    +0.019 A 
ATOM     28  C   UNL     1      -1.218   6.014  -0.551  0.00  0.00    +0.005 A 
ATOM     29  C   UNL     1      -0.746   5.552  -4.561  0.00  0.00    +0.022 A 
ATOM     30  C   UNL     1       0.083   5.810  -0.989  0.00  0.00    +0.037 A 
ENDBRANCH  17  18
ENDBRANCH  16  17
ENDBRANCH   1  16
TORSDOF 10
ENDMDL
MODEL 8
REMARK VINA RESULT:      -7.8      2.360      7.799
REMARK  Name = 
REMARK  10 active torsions:
REMARK  status: ('A' for Active; 'I' for Inactive)
REMARK    1  A    between atoms: O_2  and  C_3
REMARK    2  A    between atoms: C_8  and  O_9
REMARK    3  A    between atoms: O_9  and  C_10
REMARK    4  A    between atoms: C_10  and  C_11
REMARK    5  A    between atoms: C_11  and  N_12
REMARK    6  A    between atoms: N_12  and  C_13
REMARK    7  A    between atoms: C_13  and  C_14
REMARK    8  A    between atoms: C_14  and  C_16
REMARK    9  A    between atoms: C_16  and  O_17
REMARK   10  A    between atoms: O_17  and  C_18
REMARK                            x       y       z     vdW  Elec       q    Type
REMARK                         _______ _______ _______ _____ _____    ______ ____
ROOT
ATOM      1  C   UNL     1       3.426   5.868  -5.181  0.00  0.00    +0.213 C 
ATOM      2  O   UNL     1       4.725   5.054  -4.991  0.00  0.00    -0.218 OA
ENDROOT
BRANCH   1   3
ATOM      3  C   UNL     1       3.744   6.200  -6.791  0.00  0.00    +0.126 C 
BRANCH   3   4
ATOM      4  N   UNL     1       3.867   4.937  -7.444  0.00  0.00    -0.211 NA
BRANCH   4   5
ATOM      5  C   UNL     1       4.905   5.128  -8.457  0.00  0.00    +0.136 C 
BRANCH   5   6
ATOM      6  C   UNL     1       4.462   6.103  -9.533  0.00  0.00    +0.224 C 
BRANCH   6   7
ATOM      7  O   UNL     1       3.697   5.338 -10.453  0.00  0.00    -0.471 OA
BRANCH   7   9
ATOM      8  C   UNL     1       2.069   5.594 -12.159  0.00  0.00    +0.172 A 
ATOM      9  C   UNL     1       2.486   5.893 -10.880  0.00  0.00    +0.172 A 
ATOM     10  C   UNL     1       1.645   6.579 -10.025  0.00  0.00    +0.040 A 
ATOM     11  C   UNL     1       0.311   6.604 -10.308  0.00  0.00    +0.003 A 
ATOM     12  C   UNL     1      -0.176   5.951 -11.430  0.00  0.00    +0.003 A 
ATOM     13  C   UNL     1       0.718   5.576 -12.424  0.00  0.00    +0.040 A 
BRANCH   8  15
ATOM     14  C   UNL     1       3.164   5.623 -13.810  0.00  0.00    +0.253 C 
ATOM     15  O   UNL     1       3.034   5.578 -13.170  0.00  0.00    -0.468 OA
ENDBRANCH   8  15
ENDBRANCH   7   9
ENDBRANCH   6   7
ENDBRANCH   5   6
ENDBRANCH   4   5
ENDBRANCH   3   4
ENDBRANCH   1   3
BRANCH   1  16
ATOM     16  C   UNL     1       2.577   4.488  -5.605  0.00  0.00    +0.240 C 
BRANCH  16  17
ATOM     17  O   UNL     1       1.321   4.634  -5.067  0.00  0.00    -0.473 OA
BRANCH  17  18
ATOM     18  C   UNL     1       0.259   5.379  -5.516  0.00  0.00    +0.140 A 
ATOM     19  C   UNL     1      -0.763   5.681  -4.621  0.00  0.00    +0.053 A 
ATOM     20  C   UNL     1      -2.097   5.657  -4.977  0.00  0.00    +0.084 A 
ATOM     21  N   UNL     1      -2.830   5.562  -3.843  0.00  0.00    -0.245 NA
ATOM     22  C   UNL     1      -1.998   5.698  -2.785  0.00  0.00    +0.081 A 
ATOM     23  C   UNL     1      -2.158   5.708  -1.411  0.00  0.00    +0.019 A 
ATOM     24  C   UNL     1      -1.080   5.972  -0.574  0.00  0.00    +0.002 A 
ATOM     25  C   UNL     1       0.187   6.117  -1.109  0.00  0.00    +0.000 A 
ATOM     26  C   UNL     1       0.379   5.544  -2.363  0.00  0.00    +0.002 A 
ATOM     27  C   UNL     1      -2.455   5.426  -6.285  0.00  0.00    +0.019 A 
ATOM     28  C   UNL     1      -1.438   5.417  -7.216  0.00  0.00    +0.005 A 
ATOM     29  C   UNL     1      -0.683   5.743  -3.236  0.00  0.00    +0.022 A 
ATOM     30  C   UNL     1      -0.099   5.447  -6.854  0.00  0.00    +0.037 A 
ENDBRANCH  17  18
ENDBRANCH  16  17
ENDBRANCH   1  16
TORSDOF 10
ENDMDL
MODEL 9
REMARK VINA RESULT:      -7.8      1.832      8.674
REMARK  Name = 
REMARK  10 active torsions:
REMARK  status: ('A' for Active; 'I' for Inactive)
REMARK    1  A    between atoms: O_2  and  C_3
REMARK    2  A    between atoms: C_8  and  O_9
REMARK    3  A    between atoms: O_9  and  C_10
REMARK    4  A    between atoms: C_10  and  C_11
REMARK    5  A    between atoms: C_11  and  N_12
REMARK    6  A    between atoms: N_12  and  C_13
REMARK    7  A    between atoms: C_13  and  C_14
REMARK    8  A    between atoms: C_14  and  C_16
REMARK    9  A    between atoms: C_16  and  O_17
REMARK   10  A    between atoms: O_17  and  C_18
REMARK                            x       y       z     vdW  Elec       q    Type
REMARK                         _______ _______ _______ _____ _____    ______ ____
ROOT
ATOM      1  C   UNL     1       1.330   5.791  -8.583  0.00  0.00    +0.213 C 
ATOM      2  O   UNL     1       1.782   4.320  -8.716  0.00  0.00    -0.218 OA
ENDROOT
BRANCH   1   3
ATOM      3  C   UNL     1       0.343   5.720  -9.935  0.00  0.00    +0.126 C 
BRANCH   3   4
ATOM      4  N   UNL     1       1.136   5.158 -10.980  0.00  0.00    -0.211 NA
BRANCH   4   5
ATOM      5  C   UNL     1       1.871   6.285 -11.553  0.00  0.00    +0.136 C 
BRANCH   5   6
ATOM      6  C   UNL     1       3.271   5.881 -11.978  0.00  0.00    +0.224 C 
BRANCH   6   7
ATOM      7  O   UNL     1       3.950   5.532 -10.780  0.00  0.00    -0.471 OA
BRANCH   7   9
ATOM      8  C   UNL     1       5.977   5.729  -9.563  0.00  0.00    +0.172 A 
ATOM      9  C   UNL     1       5.086   6.282 -10.458  0.00  0.00    +0.172 A 
ATOM     10  C   UNL     1       5.410   7.452 -11.117  0.00  0.00    +0.040 A 
ATOM     11  C   UNL     1       6.721   7.824 -11.173  0.00  0.00    +0.003 A 
ATOM     12  C   UNL     1       7.695   7.036 -10.581  0.00  0.00    +0.003 A 
ATOM     13  C   UNL     1       7.306   6.075  -9.658  0.00  0.00    +0.040 A 
BRANCH   8  15
ATOM     14  C   UNL     1       5.045   5.069  -7.944  0.00  0.00    +0.253 C 
ATOM     15  O   UNL     1       5.451   5.055  -8.457  0.00  0.00    -0.468 OA
ENDBRANCH   8  15
ENDBRANCH   7   9
ENDBRANCH   6   7
ENDBRANCH   5   6
ENDBRANCH   4   5
ENDBRANCH   3   4
ENDBRANCH   1   3
BRANCH   1  16
ATOM     16  C   UNL     1       0.053   5.350  -7.594  0.00  0.00    +0.240 C 
BRANCH  16  17
ATOM     17  O   UNL     1       0.339   5.862  -6.352  0.00  0.00    -0.473 OA
BRANCH  17  18
ATOM     18  C   UNL     1       1.024   5.290  -5.308  0.00  0.00    +0.140 A 
ATOM     19  C   UNL     1       0.485   5.394  -4.028  0.00  0.00    +0.053 A 
ATOM     20  C   UNL     1       1.260   5.634  -2.911  0.00  0.00    +0.084 A 
ATOM     21  N   UNL     1       0.448   6.102  -1.933  0.00  0.00    -0.245 NA
ATOM     22  C   UNL     1      -0.833   5.997  -2.357  0.00  0.00    +0.081 A 
ATOM     23  C   UNL     1      -2.069   6.286  -1.809  0.00  0.00    +0.019 A 
ATOM     24  C   UNL     1      -3.238   5.964  -2.488  0.00  0.00    +0.002 A 
ATOM     25  C   UNL     1      -3.170   5.450  -3.770  0.00  0.00    +0.000 A 
ATOM     26  C   UNL     1      -1.991   5.715  -4.462  0.00  0.00    +0.002 A 
ATOM     27  C   UNL     1       2.631   5.679  -3.021  0.00  0.00    +0.019 A 
ATOM     28  C   UNL     1       3.170   5.290  -4.230  0.00  0.00    +0.005 A 
ATOM     29  C   UNL     1      -0.847   5.584  -3.684  0.00  0.00    +0.022 A 
ATOM     30  C   UNL     1       2.387   5.044  -5.348  0.00  0.00    +0.037 A 
ENDBRANCH  17  18
ENDBRANCH  16  17
ENDBRANCH   1  16
TORSDOF 10
ENDMDL
