MODEL 1
REMARK VINA RESULT:      -5.1      0.000      0.000
REMARK  Name = 
REMARK  2 active torsions:
REMARK  status: ('A' for Active; 'I' for Inactive)
REMARK    1  A    between atoms: C_2  and  C_3
REMARK    2  A    between atoms: C_3  and  C_4
REMARK                            x       y       z     vdW  Elec       q    Type
REMARK                         _______ _______ _______ _____ _____    ______ ____
ROOT
ATOM      1  C   UNL     1       4.430   5.589  -7.624  0.00  0.00    +0.066 A 
ATOM      2  N   UNL     1       4.540   5.527  -6.293  0.00  0.00    -0.225 NA
ATOM      3  C   UNL     1       3.986   6.504  -5.539  0.00  0.00    +0.203 A 
ATOM      4  S   UNL     1       4.532   6.710  -4.004  0.00  0.00    -0.009 S 
ATOM      5  N   UNL     1       3.162   7.413  -6.082  0.00  0.00    -0.182 NA
ATOM      6  C   UNL     1       2.791   7.268  -7.377  0.00  0.00    +0.282 A 
ATOM      7  O   UNL     1       2.154   8.223  -7.904  0.00  0.00    -0.265 OA
ATOM      8  C   UNL     1       3.298   6.214  -8.130  0.00  0.00    +0.077 A 
ENDROOT
BRANCH   1   9
ATOM      9  C   UNL     1       5.415   4.956  -8.552  0.00  0.00    +0.046 C 
BRANCH   9  11
ATOM     10  C   UNL     1       7.389   5.970  -9.642  0.00  0.00    +0.000 C 
ATOM     11  C   UNL     1       5.873   5.891  -9.629  0.00  0.00    +0.006 C 
ENDBRANCH   9  11
ENDBRANCH   1   9
TORSDOF 2
ENDMDL
MODEL 2
REMARK VINA RESULT:      -5.1      4.418      6.035
REMARK  Name = 
REMARK  2 active torsions:
REMARK  status: ('A' for Active; 'I' for Inactive)
REMARK    1  A    between atoms: C_2  and  C_3
REMARK    2  A    between atoms: C_3  and  C_4
REMARK                            x       y       z     vdW  Elec       q    Type
REMARK                         _______ _______ _______ _____ _____    ______ ____
ROOT
ATOM      1  C   UNL     1       0.144   5.596  -7.487  0.00  0.00    +0.066 A 
ATOM      2  N   UNL     1       0.036   5.247  -8.773  0.00  0.00    -0.225 NA
ATOM      3  C   UNL     1       0.537   6.069  -9.724  0.00  0.00    +0.203 A 
ATOM      4  S   UNL     1      -0.020   5.916 -11.261  0.00  0.00    -0.009 S 
ATOM      5  N   UNL     1       1.313   7.113  -9.396  0.00  0.00    -0.182 NA
ATOM      6  C   UNL     1       1.693   7.265  -8.105  0.00  0.00    +0.282 A 
ATOM      7  O   UNL     1       2.280   8.342  -7.801  0.00  0.00    -0.265 OA
ATOM      8  C   UNL     1       1.243   6.372  -7.139  0.00  0.00    +0.077 A 
ENDROOT
BRANCH   1   9
ATOM      9  C   UNL     1      -0.804   5.126  -6.434  0.00  0.00    +0.046 C 
BRANCH   9  11
ATOM     10  C   UNL     1      -2.352   6.752  -5.397  0.00  0.00    +0.000 C 
ATOM     11  C   UNL     1      -2.150   5.774  -6.541  0.00  0.00    +0.006 C 
ENDBRANCH   9  11
ENDBRANCH   1   9
TORSDOF 2
ENDMDL
MODEL 3
REMARK VINA RESULT:      -4.9      7.339      8.099
REMARK  Name = 
REMARK  2 active torsions:
REMARK  status: ('A' for Active; 'I' for Inactive)
REMARK    1  A    between atoms: C_2  and  C_3
REMARK    2  A    between atoms: C_3  and  C_4
REMARK                            x       y       z     vdW  Elec       q    Type
REMARK                         _______ _______ _______ _____ _____    ______ ____
ROOT
ATOM      1  C   UNL     1      -1.981   5.706  -2.347  0.00  0.00    +0.066 A 
ATOM      2  N   UNL     1      -0.913   4.996  -1.969  0.00  0.00    -0.225 NA
ATOM      3  C   UNL     1       0.012   5.573  -1.167  0.00  0.00    +0.203 A 
ATOM      4  S   UNL     1       1.518   4.920  -1.118  0.00  0.00    -0.009 S 
ATOM      5  N   UNL     1      -0.221   6.758  -0.584  0.00  0.00    -0.182 NA
ATOM      6  C   UNL     1      -1.449   7.317  -0.708  0.00  0.00    +0.282 A 
ATOM      7  O   UNL     1      -1.586   8.502  -0.292  0.00  0.00    -0.265 OA
ATOM      8  C   UNL     1      -2.427   6.683  -1.466  0.00  0.00    +0.077 A 
ENDROOT
BRANCH   1   9
ATOM      9  C   UNL     1      -2.733   5.434  -3.608  0.00  0.00    +0.046 C 
BRANCH   9  11
ATOM     10  C   UNL     1      -2.406   5.732  -6.041  0.00  0.00    +0.000 C 
ATOM     11  C   UNL     1      -2.419   6.423  -4.689  0.00  0.00    +0.006 C 
ENDBRANCH   9  11
ENDBRANCH   1   9
TORSDOF 2
ENDMDL
MODEL 4
REMARK VINA RESULT:      -4.8      5.984      7.152
REMARK  Name = 
REMARK  2 active torsions:
REMARK  status: ('A' for Active; 'I' for Inactive)
REMARK    1  A    between atoms: C_2  and  C_3
REMARK    2  A    between atoms: C_3  and  C_4
REMARK                            x       y       z     vdW  Elec       q    Type
REMARK                         _______ _______ _______ _____ _____    ______ ____
ROOT
ATOM      1  C   UNL     1       6.868   5.596 -13.188  0.00  0.00    +0.066 A 
ATOM      2  N   UNL     1       5.684   4.984 -13.289  0.00  0.00    -0.225 NA
ATOM      3  C   UNL     1       4.702   5.562 -14.019  0.00  0.00    +0.203 A 
ATOM      4  S   UNL     1       3.150   5.104 -13.741  0.00  0.00    -0.009 S 
ATOM      5  N   UNL     1       4.956   6.621 -14.802  0.00  0.00    -0.182 NA
ATOM      6  C   UNL     1       6.239   7.032 -14.951  0.00  0.00    +0.282 A 
ATOM      7  O   UNL     1       6.426   8.126 -15.556  0.00  0.00    -0.265 OA
ATOM      8  C   UNL     1       7.259   6.385 -14.263  0.00  0.00    +0.077 A 
ENDROOT
BRANCH   1   9
ATOM      9  C   UNL     1       7.789   5.400 -12.028  0.00  0.00    +0.046 C 
BRANCH   9  11
ATOM     10  C   UNL     1       7.311   5.879  -9.650  0.00  0.00    +0.000 C 
ATOM     11  C   UNL     1       7.657   6.481 -11.001  0.00  0.00    +0.006 C 
ENDBRANCH   9  11
ENDBRANCH   1   9
TORSDOF 2
ENDMDL
MODEL 5
REMARK VINA RESULT:      -4.7      2.362      3.113
REMARK  Name = 
REMARK  2 active torsions:
REMARK  status: ('A' for Active; 'I' for Inactive)
REMARK    1  A    between atoms: C_2  and  C_3
REMARK    2  A    between atoms: C_3  and  C_4
REMARK                            x       y       z     vdW  Elec       q    Type
REMARK                         _______ _______ _______ _____ _____    ______ ____
ROOT
ATOM      1  C   UNL     1       6.100   5.757  -9.813  0.00  0.00    +0.066 A 
ATOM      2  N   UNL     1       5.713   5.397  -8.586  0.00  0.00    -0.225 NA
ATOM      3  C   UNL     1       4.413   5.542  -8.235  0.00  0.00    +0.203 A 
ATOM      4  S   UNL     1       4.036   5.588  -6.638  0.00  0.00    -0.009 S 
ATOM      5  N   UNL     1       3.480   5.842  -9.151  0.00  0.00    -0.182 NA
ATOM      6  C   UNL     1       3.835   5.878 -10.459  0.00  0.00    +0.282 A 
ATOM      7  O   UNL     1       2.979   6.325 -11.274  0.00  0.00    -0.265 OA
ATOM      8  C   UNL     1       5.156   5.649 -10.826  0.00  0.00    +0.077 A 
ENDROOT
BRANCH   1   9
ATOM      9  C   UNL     1       7.496   6.181 -10.133  0.00  0.00    +0.046 C 
BRANCH   9  11
ATOM     10  C   UNL     1       8.846   5.804 -12.170  0.00  0.00    +0.000 C 
ATOM     11  C   UNL     1       7.668   6.554 -11.573  0.00  0.00    +0.006 C 
ENDBRANCH   9  11
ENDBRANCH   1   9
TORSDOF 2
ENDMDL
MODEL 6
REMARK VINA RESULT:      -4.7      3.715      4.179
REMARK  Name = 
REMARK  2 active torsions:
REMARK  status: ('A' for Active; 'I' for Inactive)
REMARK    1  A    between atoms: C_2  and  C_3
REMARK    2  A    between atoms: C_3  and  C_4
REMARK                            x       y       z     vdW  Elec       q    Type
REMARK                         _______ _______ _______ _____ _____    ______ ____
ROOT
ATOM      1  C   UNL     1       5.567   5.780  -9.594  0.00  0.00    +0.066 A 
ATOM      2  N   UNL     1       4.887   6.242 -10.648  0.00  0.00    -0.225 NA
ATOM      3  C   UNL     1       3.636   5.779 -10.880  0.00  0.00    +0.203 A 
ATOM      4  S   UNL     1       3.012   5.939 -12.390  0.00  0.00    -0.009 S 
ATOM      5  N   UNL     1       2.996   5.032  -9.969  0.00  0.00    -0.182 NA
ATOM      6  C   UNL     1       3.569   4.845  -8.755  0.00  0.00    +0.282 A 
ATOM      7  O   UNL     1       3.025   4.005  -7.985  0.00  0.00    -0.265 OA
ATOM      8  C   UNL     1       4.820   5.390  -8.489  0.00  0.00    +0.077 A 
ENDROOT
BRANCH   1   9
ATOM      9  C   UNL     1       7.059   5.748  -9.539  0.00  0.00    +0.046 C 
BRANCH   9  11
ATOM     10  C   UNL     1       8.414   5.767 -11.607  0.00  0.00    +0.000 C 
ATOM     11  C   UNL     1       7.691   6.620 -10.580  0.00  0.00    +0.006 C 
ENDBRANCH   9  11
ENDBRANCH   1   9
TORSDOF 2
ENDMDL
MODEL 7
REMARK VINA RESULT:      -4.7      5.235      6.454
REMARK  Name = 
REMARK  2 active torsions:
REMARK  status: ('A' for Active; 'I' for Inactive)
REMARK    1  A    between atoms: C_2  and  C_3
REMARK    2  A    between atoms: C_3  and  C_4
REMARK                            x       y       z     vdW  Elec       q    Type
REMARK                         _______ _______ _______ _____ _____    ______ ____
ROOT
ATOM      1  C   UNL     1      -0.052   6.585  -4.303  0.00  0.00    +0.066 A 
ATOM      2  N   UNL     1       1.239   6.849  -4.528  0.00  0.00    -0.225 NA
ATOM      3  C   UNL     1       2.155   6.513  -3.590  0.00  0.00    +0.203 A 
ATOM      4  S   UNL     1       3.615   7.263  -3.620  0.00  0.00    -0.009 S 
ATOM      5  N   UNL     1       1.821   5.744  -2.543  0.00  0.00    -0.182 NA
ATOM      6  C   UNL     1       0.579   5.202  -2.499  0.00  0.00    +0.282 A 
ATOM      7  O   UNL     1       0.241   4.624  -1.428  0.00  0.00    -0.265 OA
ATOM      8  C   UNL     1      -0.336   5.482  -3.507  0.00  0.00    +0.077 A 
ENDROOT
BRANCH   1   9
ATOM      9  C   UNL     1      -1.163   7.365  -4.927  0.00  0.00    +0.046 C 
BRANCH   9  11
ATOM     10  C   UNL     1      -2.403   5.835  -6.422  0.00  0.00    +0.000 C 
ATOM     11  C   UNL     1      -2.413   6.557  -5.086  0.00  0.00    +0.006 C 
ENDBRANCH   9  11
ENDBRANCH   1   9
TORSDOF 2
ENDMDL
MODEL 8
REMARK VINA RESULT:      -4.7      4.207      5.780
REMARK  Name = 
REMARK  2 active torsions:
REMARK  status: ('A' for Active; 'I' for Inactive)
REMARK    1  A    between atoms: C_2  and  C_3
REMARK    2  A    between atoms: C_3  and  C_4
REMARK                            x       y       z     vdW  Elec       q    Type
REMARK                         _______ _______ _______ _____ _____    ______ ____
ROOT
ATOM      1  C   UNL     1       0.556   5.459  -7.811  0.00  0.00    +0.066 A 
ATOM      2  N   UNL     1       1.889   5.496  -7.899  0.00  0.00    -0.225 NA
ATOM      3  C   UNL     1       2.489   5.032  -9.020  0.00  0.00    +0.203 A 
ATOM      4  S   UNL     1       4.073   4.609  -8.939  0.00  0.00    -0.009 S 
ATOM      5  N   UNL     1       1.772   4.730 -10.113  0.00  0.00    -0.182 NA
ATOM      6  C   UNL     1       0.447   5.013 -10.125  0.00  0.00    +0.282 A 
ATOM      7  O   UNL     1      -0.228   4.567 -11.095  0.00  0.00    -0.265 OA
ATOM      8  C   UNL     1      -0.154   5.567  -9.000  0.00  0.00    +0.077 A 
ENDROOT
BRANCH   1   9
ATOM      9  C   UNL     1      -0.172   5.390  -6.508  0.00  0.00    +0.046 C 
BRANCH   9  11
ATOM     10  C   UNL     1      -2.353   6.274  -5.749  0.00  0.00    +0.000 C 
ATOM     11  C   UNL     1      -1.656   5.299  -6.682  0.00  0.00    +0.006 C 
ENDBRANCH   9  11
ENDBRANCH   1   9
TORSDOF 2
ENDMDL
MODEL 9
REMARK VINA RESULT:      -4.6      4.505      6.254
REMARK  Name = 
REMARK  2 active torsions:
REMARK  status: ('A' for Active; 'I' for Inactive)
REMARK    1  A    between atoms: C_2  and  C_3
REMARK    2  A    between atoms: C_3  and  C_4
REMARK                            x       y       z     vdW  Elec       q    Type
REMARK                         _______ _______ _______ _____ _____    ______ ____
ROOT
ATOM      1  C   UNL     1      -0.757   5.329  -6.866  0.00  0.00    +0.066 A 
ATOM      2  N   UNL     1      -0.329   5.489  -8.122  0.00  0.00    -0.225 NA
ATOM      3  C   UNL     1       0.976   5.776  -8.342  0.00  0.00    +0.203 A 
ATOM      4  S   UNL     1       1.394   6.457  -9.776  0.00  0.00    -0.009 S 
ATOM      5  N   UNL     1       1.877   5.699  -7.351  0.00  0.00    -0.182 NA
ATOM      6  C   UNL     1       1.487   5.210  -6.149  0.00  0.00    +0.282 A 
ATOM      7  O   UNL     1       2.309   5.307  -5.194  0.00  0.00    -0.265 OA
ATOM      8  C   UNL     1       0.163   4.838  -5.948  0.00  0.00    +0.077 A 
ENDROOT
BRANCH   1   9
ATOM      9  C   UNL     1      -2.171   5.574  -6.452  0.00  0.00    +0.046 C 
BRANCH   9  11
ATOM     10  C   UNL     1      -2.318   7.519  -4.931  0.00  0.00    +0.000 C 
ATOM     11  C   UNL     1      -2.285   6.003  -5.022  0.00  0.00    +0.006 C 
ENDBRANCH   9  11
ENDBRANCH   1   9
TORSDOF 2
ENDMDL
