MODEL 1
REMARK VINA RESULT:      -9.8      0.000      0.000
REMARK  Name = 
REMARK  3 active torsions:
REMARK  status: ('A' for Active; 'I' for Inactive)
REMARK    1  A    between atoms: C_2  and  O_3
REMARK    2  A    between atoms: O_3  and  C_4
REMARK    3  A    between atoms: C_21  and  C_22
REMARK                            x       y       z     vdW  Elec       q    Type
REMARK                         _______ _______ _______ _____ _____    ______ ____
ROOT
ATOM      1  O   UNL     1       2.436   3.725  -8.478  0.00  0.00    -0.226 OA
ATOM      2  C   UNL     1       2.686   4.669  -8.365  0.00  0.00    +0.405 C 
ATOM      3  N   UNL     1       1.833   5.508  -7.560  0.00  0.00    -0.240 N 
ATOM      4  C   UNL     1       1.382   4.623  -6.300  0.00  0.00    +0.123 C 
ATOM      5  C   UNL     1       0.135   5.622  -5.906  0.00  0.00    -0.004 A 
ATOM      6  C   UNL     1      -0.895   5.302  -6.793  0.00  0.00    -0.023 A 
ATOM      7  C   UNL     1      -2.160   5.746  -6.421  0.00  0.00    -0.004 A 
ATOM      8  C   UNL     1      -2.338   6.418  -5.217  0.00  0.00    -0.000 A 
ATOM      9  C   UNL     1      -1.364   6.249  -4.239  0.00  0.00    -0.000 A 
ATOM     10  C   UNL     1      -0.496   5.247  -8.237  0.00  0.00    +0.048 C 
ATOM     11  C   UNL     1      -0.257   5.476  -4.574  0.00  0.00    -0.003 A 
ATOM     12  C   UNL     1       0.758   6.070  -8.341  0.00  0.00    +0.102 C 
ENDROOT
BRANCH   4  13
ATOM     13  C   UNL     1       2.396   5.421  -5.283  0.00  0.00    -0.000 A 
ATOM     14  C   UNL     1       2.840   6.625  -5.794  0.00  0.00    -0.002 A 
ATOM     15  C   UNL     1       4.070   7.138  -5.488  0.00  0.00    -0.000 A 
ATOM     16  C   UNL     1       4.865   6.431  -4.595  0.00  0.00    -0.000 A 
ATOM     17  C   UNL     1       4.586   5.091  -4.351  0.00  0.00    -0.000 A 
ATOM     18  C   UNL     1       3.431   4.563  -4.912  0.00  0.00    -0.002 A 
ENDBRANCH   4  13
BRANCH   2  19
ATOM     19  O   UNL     1       3.167   5.212  -9.560  0.00  0.00    -0.437 OA
BRANCH  19  20
ATOM     20  C   UNL     1       4.614   4.725  -9.900  0.00  0.00    +0.186 C 
ATOM     21  C   UNL     1       5.275   6.128  -9.282  0.00  0.00    +0.044 C 
ATOM     22  C   UNL     1       6.746   5.949  -9.552  0.00  0.00    +0.021 C 
ATOM     23  C   UNL     1       6.853   5.404 -10.969  0.00  0.00    +0.072 C 
ATOM     24  N   UNL     1       5.750   5.985 -11.704  0.00  0.00    -0.270 NA
ATOM     25  C   UNL     1       5.505   7.375 -11.308  0.00  0.00    +0.072 C 
ATOM     26  C   UNL     1       4.643   7.242 -10.052  0.00  0.00    +0.021 C 
ATOM     27  C   UNL     1       4.501   5.323 -11.456  0.00  0.00    +0.116 C 
ENDBRANCH  19  20
ENDBRANCH   2  19
TORSDOF 3
ENDMDL
MODEL 2
REMARK VINA RESULT:      -9.7      1.107      1.351
REMARK  Name = 
REMARK  3 active torsions:
REMARK  status: ('A' for Active; 'I' for Inactive)
REMARK    1  A    between atoms: C_2  and  O_3
REMARK    2  A    between atoms: O_3  and  C_4
REMARK    3  A    between atoms: C_21  and  C_22
REMARK                            x       y       z     vdW  Elec       q    Type
REMARK                         _______ _______ _______ _____ _____    ______ ____
ROOT
ATOM      1  O   UNL     1       4.066   4.452  -8.571  0.00  0.00    -0.226 OA
ATOM      2  C   UNL     1       4.119   5.392  -8.289  0.00  0.00    +0.405 C 
ATOM      3  N   UNL     1       2.990   5.959  -7.594  0.00  0.00    -0.240 N 
ATOM      4  C   UNL     1       2.462   4.830  -6.584  0.00  0.00    +0.123 C 
ATOM      5  C   UNL     1       1.007   5.561  -6.354  0.00  0.00    -0.004 A 
ATOM      6  C   UNL     1       0.244   5.239  -7.479  0.00  0.00    -0.023 A 
ATOM      7  C   UNL     1      -1.127   5.428  -7.342  0.00  0.00    -0.004 A 
ATOM      8  C   UNL     1      -1.655   5.868  -6.133  0.00  0.00    -0.000 A 
ATOM      9  C   UNL     1      -0.878   5.690  -4.993  0.00  0.00    -0.000 A 
ATOM     10  C   UNL     1       0.923   5.472  -8.794  0.00  0.00    +0.048 C 
ATOM     11  C   UNL     1       0.392   5.149  -5.169  0.00  0.00    -0.003 A 
ATOM     12  C   UNL     1       2.008   6.475  -8.516  0.00  0.00    +0.102 C 
ENDROOT
BRANCH   4  13
ATOM     13  C   UNL     1       3.100   5.595  -5.277  0.00  0.00    -0.000 A 
ATOM     14  C   UNL     1       3.560   6.865  -5.565  0.00  0.00    -0.002 A 
ATOM     15  C   UNL     1       4.617   7.425  -4.902  0.00  0.00    -0.000 A 
ATOM     16  C   UNL     1       5.204   6.692  -3.879  0.00  0.00    -0.000 A 
ATOM     17  C   UNL     1       4.985   5.322  -3.812  0.00  0.00    -0.000 A 
ATOM     18  C   UNL     1       4.068   4.774  -4.701  0.00  0.00    -0.002 A 
ENDBRANCH   4  13
BRANCH   2  19
ATOM     19  O   UNL     1       4.723   6.182  -9.272  0.00  0.00    -0.437 OA
BRANCH  19  20
ATOM     20  C   UNL     1       5.183   5.348 -10.512  0.00  0.00    +0.186 C 
ATOM     21  C   UNL     1       6.731   5.965 -10.404  0.00  0.00    +0.044 C 
ATOM     22  C   UNL     1       7.421   5.342 -11.590  0.00  0.00    +0.021 C 
ATOM     23  C   UNL     1       6.444   5.451 -12.752  0.00  0.00    +0.072 C 
ATOM     24  N   UNL     1       5.703   6.676 -12.537  0.00  0.00    -0.270 NA
ATOM     25  C   UNL     1       6.555   7.739 -11.996  0.00  0.00    +0.072 C 
ATOM     26  C   UNL     1       6.578   7.449 -10.495  0.00  0.00    +0.021 C 
ATOM     27  C   UNL     1       4.658   6.534 -11.565  0.00  0.00    +0.116 C 
ENDBRANCH  19  20
ENDBRANCH   2  19
TORSDOF 3
ENDMDL
MODEL 3
REMARK VINA RESULT:      -9.7      1.867      7.070
REMARK  Name = 
REMARK  3 active torsions:
REMARK  status: ('A' for Active; 'I' for Inactive)
REMARK    1  A    between atoms: C_2  and  O_3
REMARK    2  A    between atoms: O_3  and  C_4
REMARK    3  A    between atoms: C_21  and  C_22
REMARK                            x       y       z     vdW  Elec       q    Type
REMARK                         _______ _______ _______ _____ _____    ______ ____
ROOT
ATOM      1  O   UNL     1       2.352   3.575  -7.032  0.00  0.00    -0.226 OA
ATOM      2  C   UNL     1       2.046   4.502  -7.147  0.00  0.00    +0.405 C 
ATOM      3  N   UNL     1       2.822   5.377  -7.991  0.00  0.00    -0.240 N 
ATOM      4  C   UNL     1       3.280   4.503  -9.255  0.00  0.00    +0.123 C 
ATOM      5  C   UNL     1       4.454   5.565  -9.702  0.00  0.00    -0.004 A 
ATOM      6  C   UNL     1       5.530   5.315  -8.848  0.00  0.00    -0.023 A 
ATOM      7  C   UNL     1       6.754   5.824  -9.268  0.00  0.00    -0.004 A 
ATOM      8  C   UNL     1       6.853   6.490 -10.486  0.00  0.00    -0.000 A 
ATOM      9  C   UNL     1       5.858   6.253 -11.428  0.00  0.00    -0.000 A 
ATOM     10  C   UNL     1       5.183   5.257  -7.391  0.00  0.00    +0.048 C 
ATOM     11  C   UNL     1       4.808   5.423 -11.046  0.00  0.00    -0.003 A 
ATOM     12  C   UNL     1       3.889   6.009  -7.253  0.00  0.00    +0.102 C 
ENDROOT
BRANCH   4  13
ATOM     13  C   UNL     1       2.188   5.229 -10.246  0.00  0.00    -0.000 A 
ATOM     14  C   UNL     1       1.777   6.464  -9.786  0.00  0.00    -0.002 A 
ATOM     15  C   UNL     1       0.526   6.955 -10.034  0.00  0.00    -0.000 A 
ATOM     16  C   UNL     1      -0.330   6.188 -10.814  0.00  0.00    -0.000 A 
ATOM     17  C   UNL     1      -0.064   4.835 -10.987  0.00  0.00    -0.000 A 
ATOM     18  C   UNL     1       1.133   4.347 -10.478  0.00  0.00    -0.002 A 
ENDBRANCH   4  13
BRANCH   2  19
ATOM     19  O   UNL     1       1.574   5.032  -5.942  0.00  0.00    -0.437 OA
BRANCH  19  20
ATOM     20  C   UNL     1       0.093   4.627  -5.647  0.00  0.00    +0.186 C 
ATOM     21  C   UNL     1      -0.480   5.902  -6.560  0.00  0.00    +0.044 C 
ATOM     22  C   UNL     1      -1.972   5.787  -6.391  0.00  0.00    +0.021 C 
ATOM     23  C   UNL     1      -2.210   5.508  -4.914  0.00  0.00    +0.072 C 
ATOM     24  N   UNL     1      -1.159   6.202  -4.202  0.00  0.00    -0.270 NA
ATOM     25  C   UNL     1      -0.848   7.496  -4.818  0.00  0.00    +0.072 C 
ATOM     26  C   UNL     1       0.113   7.131  -5.950  0.00  0.00    +0.021 C 
ATOM     27  C   UNL     1       0.090   5.495  -4.220  0.00  0.00    +0.116 C 
ENDBRANCH  19  20
ENDBRANCH   2  19
TORSDOF 3
ENDMDL
MODEL 4
REMARK VINA RESULT:      -9.7      2.301      6.099
REMARK  Name = 
REMARK  3 active torsions:
REMARK  status: ('A' for Active; 'I' for Inactive)
REMARK    1  A    between atoms: C_2  and  O_3
REMARK    2  A    between atoms: O_3  and  C_4
REMARK    3  A    between atoms: C_21  and  C_22
REMARK                            x       y       z     vdW  Elec       q    Type
REMARK                         _______ _______ _______ _____ _____    ______ ____
ROOT
ATOM      1  O   UNL     1       2.798   7.642  -7.386  0.00  0.00    -0.226 OA
ATOM      2  C   UNL     1       3.236   6.763  -7.421  0.00  0.00    +0.405 C 
ATOM      3  N   UNL     1       2.986   5.920  -8.564  0.00  0.00    -0.240 N 
ATOM      4  C   UNL     1       2.982   6.883  -9.847  0.00  0.00    +0.123 C 
ATOM      5  C   UNL     1       2.233   5.779 -10.809  0.00  0.00    -0.004 A 
ATOM      6  C   UNL     1       0.880   5.843 -10.470  0.00  0.00    -0.023 A 
ATOM      7  C   UNL     1       0.007   5.279 -11.394  0.00  0.00    -0.004 A 
ATOM      8  C   UNL     1       0.497   4.742 -12.580  0.00  0.00    -0.000 A 
ATOM      9  C   UNL     1       1.753   5.164 -13.003  0.00  0.00    -0.000 A 
ATOM     10  C   UNL     1       0.591   5.773  -9.001  0.00  0.00    +0.048 C 
ATOM     11  C   UNL     1       2.445   6.034 -12.166  0.00  0.00    -0.003 A 
ATOM     12  C   UNL     1       1.797   5.124  -8.382  0.00  0.00    +0.102 C 
ENDROOT
BRANCH   4  13
ATOM     13  C   UNL     1       4.463   6.365 -10.333  0.00  0.00    -0.000 A 
ATOM     14  C   UNL     1       5.104   5.590  -9.386  0.00  0.00    -0.002 A 
ATOM     15  C   UNL     1       6.465   5.568  -9.263  0.00  0.00    -0.000 A 
ATOM     16  C   UNL     1       7.212   6.321 -10.160  0.00  0.00    -0.000 A 
ATOM     17  C   UNL     1       6.592   7.342 -10.870  0.00  0.00    -0.000 A 
ATOM     18  C   UNL     1       5.213   7.465 -10.748  0.00  0.00    -0.002 A 
ENDBRANCH   4  13
BRANCH   2  19
ATOM     19  O   UNL     1       3.235   6.148  -6.164  0.00  0.00    -0.437 OA
BRANCH  19  20
ATOM     20  C   UNL     1       3.377   7.174  -4.994  0.00  0.00    +0.186 C 
ATOM     21  C   UNL     1       4.881   6.569  -4.593  0.00  0.00    +0.044 C 
ATOM     22  C   UNL     1       5.254   7.381  -3.380  0.00  0.00    +0.021 C 
ATOM     23  C   UNL     1       4.004   7.446  -2.513  0.00  0.00    +0.072 C 
ATOM     24  N   UNL     1       3.310   6.192  -2.721  0.00  0.00    -0.270 NA
ATOM     25  C   UNL     1       4.243   5.069  -2.845  0.00  0.00    +0.072 C 
ATOM     26  C   UNL     1       4.667   5.116  -4.313  0.00  0.00    +0.021 C 
ATOM     27  C   UNL     1       2.560   6.164  -3.944  0.00  0.00    +0.116 C 
ENDBRANCH  19  20
ENDBRANCH   2  19
TORSDOF 3
ENDMDL
MODEL 5
REMARK VINA RESULT:      -9.5      2.327      4.882
REMARK  Name = 
REMARK  3 active torsions:
REMARK  status: ('A' for Active; 'I' for Inactive)
REMARK    1  A    between atoms: C_2  and  O_3
REMARK    2  A    between atoms: O_3  and  C_4
REMARK    3  A    between atoms: C_21  and  C_22
REMARK                            x       y       z     vdW  Elec       q    Type
REMARK                         _______ _______ _______ _____ _____    ______ ____
ROOT
ATOM      1  O   UNL     1       2.278   7.558  -7.907  0.00  0.00    -0.226 OA
ATOM      2  C   UNL     1       1.870   6.664  -7.911  0.00  0.00    +0.405 C 
ATOM      3  N   UNL     1       1.977   5.861  -6.718  0.00  0.00    -0.240 N 
ATOM      4  C   UNL     1       1.759   6.855  -5.478  0.00  0.00    +0.123 C 
ATOM      5  C   UNL     1       2.394   5.805  -4.383  0.00  0.00    -0.004 A 
ATOM      6  C   UNL     1       3.780   5.912  -4.522  0.00  0.00    -0.023 A 
ATOM      7  C   UNL     1       4.525   5.405  -3.463  0.00  0.00    -0.004 A 
ATOM      8  C   UNL     1       3.884   4.880  -2.346  0.00  0.00    -0.000 A 
ATOM      9  C   UNL     1       2.566   5.263  -2.125  0.00  0.00    -0.000 A 
ATOM     10  C   UNL     1       4.285   5.816  -5.930  0.00  0.00    +0.048 C 
ATOM     11  C   UNL     1       1.976   6.086  -3.081  0.00  0.00    -0.003 A 
ATOM     12  C   UNL     1       3.207   5.106  -6.699  0.00  0.00    +0.102 C 
ENDROOT
BRANCH   4  13
ATOM     13  C   UNL     1       0.241   6.293  -5.199  0.00  0.00    -0.000 A 
ATOM     14  C   UNL     1      -0.207   5.431  -6.181  0.00  0.00    -0.002 A 
ATOM     15  C   UNL     1      -1.529   5.332  -6.517  0.00  0.00    -0.000 A 
ATOM     16  C   UNL     1      -2.440   6.100  -5.804  0.00  0.00    -0.000 A 
ATOM     17  C   UNL     1      -1.984   7.192  -5.075  0.00  0.00    -0.000 A 
ATOM     18  C   UNL     1      -0.610   7.377  -4.985  0.00  0.00    -0.002 A 
ENDBRANCH   4  13
BRANCH   2  19
ATOM     19  O   UNL     1       2.079   6.019  -9.134  0.00  0.00    -0.437 OA
BRANCH  19  20
ATOM     20  C   UNL     1       1.704   6.916 -10.358  0.00  0.00    +0.186 C 
ATOM     21  C   UNL     1       0.125   6.375 -10.323  0.00  0.00    +0.044 C 
ATOM     22  C   UNL     1      -0.491   7.071 -11.508  0.00  0.00    +0.021 C 
ATOM     23  C   UNL     1       0.518   6.953 -12.641  0.00  0.00    +0.072 C 
ATOM     24  N   UNL     1       1.190   5.686 -12.445  0.00  0.00    -0.270 NA
ATOM     25  C   UNL     1       0.269   4.650 -11.971  0.00  0.00    +0.072 C 
ATOM     26  C   UNL     1       0.207   4.889 -10.462  0.00  0.00    +0.021 C 
ATOM     27  C   UNL     1       2.207   5.742 -11.434  0.00  0.00    +0.116 C 
ENDBRANCH  19  20
ENDBRANCH   2  19
TORSDOF 3
ENDMDL
MODEL 6
REMARK VINA RESULT:      -9.1      2.293      5.896
REMARK  Name = 
REMARK  3 active torsions:
REMARK  status: ('A' for Active; 'I' for Inactive)
REMARK    1  A    between atoms: C_2  and  O_3
REMARK    2  A    between atoms: O_3  and  C_4
REMARK    3  A    between atoms: C_21  and  C_22
REMARK                            x       y       z     vdW  Elec       q    Type
REMARK                         _______ _______ _______ _____ _____    ______ ____
ROOT
ATOM      1  O   UNL     1       2.237   3.561  -6.202  0.00  0.00    -0.226 OA
ATOM      2  C   UNL     1       2.268   4.520  -5.990  0.00  0.00    +0.405 C 
ATOM      3  N   UNL     1       1.985   5.463  -7.044  0.00  0.00    -0.240 N 
ATOM      4  C   UNL     1       0.766   4.850  -7.887  0.00  0.00    +0.123 C 
ATOM      5  C   UNL     1       1.022   5.834  -9.180  0.00  0.00    -0.004 A 
ATOM      6  C   UNL     1       2.091   5.265  -9.876  0.00  0.00    -0.023 A 
ATOM      7  C   UNL     1       2.247   5.702 -11.188  0.00  0.00    -0.004 A 
ATOM      8  C   UNL     1       1.346   6.611 -11.733  0.00  0.00    -0.000 A 
ATOM      9  C   UNL     1       0.100   6.719 -11.127  0.00  0.00    -0.000 A 
ATOM     10  C   UNL     1       3.283   4.919  -9.037  0.00  0.00    +0.048 C 
ATOM     11  C   UNL     1      -0.115   5.960  -9.980  0.00  0.00    -0.003 A 
ATOM     12  C   UNL     1       3.171   5.773  -7.805  0.00  0.00    +0.102 C 
ENDROOT
BRANCH   4  13
ATOM     13  C   UNL     1      -0.310   5.912  -7.241  0.00  0.00    -0.000 A 
ATOM     14  C   UNL     1       0.236   6.700  -6.247  0.00  0.00    -0.002 A 
ATOM     15  C   UNL     1      -0.504   7.165  -5.196  0.00  0.00    -0.000 A 
ATOM     16  C   UNL     1      -1.858   6.860  -5.170  0.00  0.00    -0.000 A 
ATOM     17  C   UNL     1      -2.335   5.814  -5.951  0.00  0.00    -0.000 A 
ATOM     18  C   UNL     1      -1.444   5.212  -6.831  0.00  0.00    -0.002 A 
ENDBRANCH   4  13
BRANCH   2  19
ATOM     19  O   UNL     1       3.342   4.815  -5.143  0.00  0.00    -0.437 OA
BRANCH  19  20
ATOM     20  C   UNL     1       3.347   6.308  -4.679  0.00  0.00    +0.186 C 
ATOM     21  C   UNL     1       4.806   6.102  -3.895  0.00  0.00    +0.044 C 
ATOM     22  C   UNL     1       5.038   7.450  -3.264  0.00  0.00    +0.021 C 
ATOM     23  C   UNL     1       3.703   7.873  -2.668  0.00  0.00    +0.072 C 
ATOM     24  N   UNL     1       3.050   6.653  -2.244  0.00  0.00    -0.270 NA
ATOM     25  C   UNL     1       4.005   5.694  -1.681  0.00  0.00    +0.072 C 
ATOM     26  C   UNL     1       4.582   4.997  -2.914  0.00  0.00    +0.021 C 
ATOM     27  C   UNL     1       2.435   5.941  -3.328  0.00  0.00    +0.116 C 
ENDBRANCH  19  20
ENDBRANCH   2  19
TORSDOF 3
ENDMDL
MODEL 7
REMARK VINA RESULT:      -9.0      1.888      2.681
REMARK  Name = 
REMARK  3 active torsions:
REMARK  status: ('A' for Active; 'I' for Inactive)
REMARK    1  A    between atoms: C_2  and  O_3
REMARK    2  A    between atoms: O_3  and  C_4
REMARK    3  A    between atoms: C_21  and  C_22
REMARK                            x       y       z     vdW  Elec       q    Type
REMARK                         _______ _______ _______ _____ _____    ______ ____
ROOT
ATOM      1  O   UNL     1       1.049   3.826  -5.942  0.00  0.00    -0.226 OA
ATOM      2  C   UNL     1       1.298   4.769  -6.065  0.00  0.00    +0.405 C 
ATOM      3  N   UNL     1       0.695   5.753  -5.199  0.00  0.00    -0.240 N 
ATOM      4  C   UNL     1       0.650   5.102  -3.734  0.00  0.00    +0.123 C 
ATOM      5  C   UNL     1      -0.453   6.184  -3.169  0.00  0.00    -0.004 A 
ATOM      6  C   UNL     1      -1.688   5.747  -3.652  0.00  0.00    -0.023 A 
ATOM      7  C   UNL     1      -2.801   6.279  -3.009  0.00  0.00    -0.004 A 
ATOM      8  C   UNL     1      -2.639   7.147  -1.935  0.00  0.00    -0.000 A 
ATOM      9  C   UNL     1      -1.419   7.119  -1.267  0.00  0.00    -0.000 A 
ATOM     10  C   UNL     1      -1.723   5.441  -5.119  0.00  0.00    +0.048 C 
ATOM     11  C   UNL     1      -0.438   6.272  -1.775  0.00  0.00    -0.003 A 
ATOM     12  C   UNL     1      -0.574   6.203  -5.718  0.00  0.00    +0.102 C 
ENDROOT
BRANCH   4  13
ATOM     13  C   UNL     1       1.896   6.033  -3.202  0.00  0.00    -0.000 A 
ATOM     14  C   UNL     1       2.351   6.924  -4.154  0.00  0.00    -0.002 A 
ATOM     15  C   UNL     1       3.656   7.325  -4.213  0.00  0.00    -0.000 A 
ATOM     16  C   UNL     1       4.528   6.841  -3.247  0.00  0.00    -0.000 A 
ATOM     17  C   UNL     1       4.177   5.711  -2.518  0.00  0.00    -0.000 A 
ATOM     18  C   UNL     1       2.897   5.202  -2.700  0.00  0.00    -0.002 A 
ENDBRANCH   4  13
BRANCH   2  19
ATOM     19  O   UNL     1       1.399   5.092  -7.422  0.00  0.00    -0.437 OA
BRANCH  19  20
ATOM     20  C   UNL     1       2.654   4.451  -8.099  0.00  0.00    +0.186 C 
ATOM     21  C   UNL     1       3.621   5.714  -7.593  0.00  0.00    +0.044 C 
ATOM     22  C   UNL     1       4.959   5.371  -8.195  0.00  0.00    +0.021 C 
ATOM     23  C   UNL     1       4.677   4.916  -9.620  0.00  0.00    +0.072 C 
ATOM     24  N   UNL     1       3.530   5.680 -10.063  0.00  0.00    -0.270 NA
ATOM     25  C   UNL     1       3.572   7.059  -9.568  0.00  0.00    +0.072 C 
ATOM     26  C   UNL     1       2.996   6.950  -8.156  0.00  0.00    +0.021 C 
ATOM     27  C   UNL     1       2.287   5.165  -9.564  0.00  0.00    +0.116 C 
ENDBRANCH  19  20
ENDBRANCH   2  19
TORSDOF 3
ENDMDL
MODEL 8
REMARK VINA RESULT:      -8.8      2.010      4.430
REMARK  Name = 
REMARK  3 active torsions:
REMARK  status: ('A' for Active; 'I' for Inactive)
REMARK    1  A    between atoms: C_2  and  O_3
REMARK    2  A    between atoms: O_3  and  C_4
REMARK    3  A    between atoms: C_21  and  C_22
REMARK                            x       y       z     vdW  Elec       q    Type
REMARK                         _______ _______ _______ _____ _____    ______ ____
ROOT
ATOM      1  O   UNL     1       2.803   7.672  -6.474  0.00  0.00    -0.226 OA
ATOM      2  C   UNL     1       2.473   6.775  -6.703  0.00  0.00    +0.405 C 
ATOM      3  N   UNL     1       2.203   5.851  -5.629  0.00  0.00    -0.240 N 
ATOM      4  C   UNL     1       1.513   6.704  -4.458  0.00  0.00    +0.123 C 
ATOM      5  C   UNL     1       1.786   5.556  -3.312  0.00  0.00    -0.004 A 
ATOM      6  C   UNL     1       3.125   5.705  -2.945  0.00  0.00    -0.023 A 
ATOM      7  C   UNL     1       3.483   5.104  -1.743  0.00  0.00    -0.004 A 
ATOM      8  C   UNL     1       2.525   4.450  -0.976  0.00  0.00    -0.000 A 
ATOM      9  C   UNL     1       1.193   4.781  -1.198  0.00  0.00    -0.000 A 
ATOM     10  C   UNL     1       4.093   5.770  -4.088  0.00  0.00    +0.048 C 
ATOM     11  C   UNL     1       0.926   5.688  -2.219  0.00  0.00    -0.003 A 
ATOM     12  C   UNL     1       3.390   5.124  -5.249  0.00  0.00    +0.102 C 
ENDROOT
BRANCH   4  13
ATOM     13  C   UNL     1       0.026   6.084  -4.783  0.00  0.00    -0.000 A 
ATOM     14  C   UNL     1       0.005   5.292  -5.915  0.00  0.00    -0.002 A 
ATOM     15  C   UNL     1      -1.102   5.188  -6.711  0.00  0.00    -0.000 A 
ATOM     16  C   UNL     1      -2.246   5.875  -6.326  0.00  0.00    -0.000 A 
ATOM     17  C   UNL     1      -2.139   6.917  -5.413  0.00  0.00    -0.000 A 
ATOM     18  C   UNL     1      -0.900   7.127  -4.821  0.00  0.00    -0.002 A 
ENDBRANCH   4  13
BRANCH   2  19
ATOM     19  O   UNL     1       3.129   6.267  -7.829  0.00  0.00    -0.437 OA
BRANCH  19  20
ATOM     20  C   UNL     1       2.418   6.660  -9.165  0.00  0.00    +0.186 C 
ATOM     21  C   UNL     1       2.467   5.080  -9.703  0.00  0.00    +0.044 C 
ATOM     22  C   UNL     1       1.869   5.179 -11.082  0.00  0.00    +0.021 C 
ATOM     23  C   UNL     1       2.490   6.411 -11.725  0.00  0.00    +0.072 C 
ATOM     24  N   UNL     1       3.832   6.505 -11.193  0.00  0.00    -0.270 NA
ATOM     25  C   UNL     1       4.448   5.184 -11.036  0.00  0.00    +0.072 C 
ATOM     26  C   UNL     1       3.912   4.697  -9.690  0.00  0.00    +0.021 C 
ATOM     27  C   UNL     1       3.873   7.071  -9.875  0.00  0.00    +0.116 C 
ENDBRANCH  19  20
ENDBRANCH   2  19
TORSDOF 3
ENDMDL
MODEL 9
REMARK VINA RESULT:      -8.5      2.128      6.596
REMARK  Name = 
REMARK  3 active torsions:
REMARK  status: ('A' for Active; 'I' for Inactive)
REMARK    1  A    between atoms: C_2  and  O_3
REMARK    2  A    between atoms: O_3  and  C_4
REMARK    3  A    between atoms: C_21  and  C_22
REMARK                            x       y       z     vdW  Elec       q    Type
REMARK                         _______ _______ _______ _____ _____    ______ ____
ROOT
ATOM      1  O   UNL     1       2.369   7.608  -8.513  0.00  0.00    -0.226 OA
ATOM      2  C   UNL     1       2.843   6.755  -8.403  0.00  0.00    +0.405 C 
ATOM      3  N   UNL     1       2.938   5.874  -9.540  0.00  0.00    -0.240 N 
ATOM      4  C   UNL     1       3.215   6.805 -10.816  0.00  0.00    +0.123 C 
ATOM      5  C   UNL     1       2.795   5.638 -11.896  0.00  0.00    -0.004 A 
ATOM      6  C   UNL     1       1.399   5.632 -11.916  0.00  0.00    -0.023 A 
ATOM      7  C   UNL     1       0.821   4.998 -13.011  0.00  0.00    -0.004 A 
ATOM      8  C   UNL     1       1.625   4.463 -14.013  0.00  0.00    -0.000 A 
ATOM      9  C   UNL     1       2.925   4.946 -14.116  0.00  0.00    -0.000 A 
ATOM     10  C   UNL     1       0.745   5.580 -10.568  0.00  0.00    +0.048 C 
ATOM     11  C   UNL     1       3.335   5.874 -13.163  0.00  0.00    -0.003 A 
ATOM     12  C   UNL     1       1.783   5.015  -9.638  0.00  0.00    +0.102 C 
ENDROOT
BRANCH   4  13
ATOM     13  C   UNL     1       4.796   6.361 -10.889  0.00  0.00    -0.000 A 
ATOM     14  C   UNL     1       5.193   5.593  -9.812  0.00  0.00    -0.002 A 
ATOM     15  C   UNL     1       6.470   5.625  -9.325  0.00  0.00    -0.000 A 
ATOM     16  C   UNL     1       7.394   6.430  -9.977  0.00  0.00    -0.000 A 
ATOM     17  C   UNL     1       6.942   7.441 -10.818  0.00  0.00    -0.000 A 
ATOM     18  C   UNL     1       5.577   7.502 -11.072  0.00  0.00    -0.002 A 
ENDBRANCH   4  13
BRANCH   2  19
ATOM     19  O   UNL     1       2.550   6.170  -7.166  0.00  0.00    -0.437 OA
BRANCH  19  20
ATOM     20  C   UNL     1       1.013   6.098  -6.887  0.00  0.00    +0.186 C 
ATOM     21  C   UNL     1       1.162   7.118  -5.574  0.00  0.00    +0.044 C 
ATOM     22  C   UNL     1      -0.244   7.178  -5.039  0.00  0.00    +0.021 C 
ATOM     23  C   UNL     1      -0.768   5.749  -5.064  0.00  0.00    +0.072 C 
ATOM     24  N   UNL     1       0.377   4.900  -4.814  0.00  0.00    -0.270 NA
ATOM     25  C   UNL     1       1.286   5.490  -3.828  0.00  0.00    +0.072 C 
ATOM     26  C   UNL     1       2.138   6.452  -4.658  0.00  0.00    +0.021 C 
ATOM     27  C   UNL     1       1.195   4.708  -5.978  0.00  0.00    +0.116 C 
ENDBRANCH  19  20
ENDBRANCH   2  19
TORSDOF 3
ENDMDL
