MODEL 1
REMARK VINA RESULT:      -5.9      0.000      0.000
REMARK  Name = 
REMARK  5 active torsions:
REMARK  status: ('A' for Active; 'I' for Inactive)
REMARK    1  A    between atoms: C_2  and  C_3
REMARK    2  A    between atoms: C_3  and  N_4
REMARK    3  A    between atoms: N_4  and  C_6
REMARK    4  A    between atoms: C_6  and  C_8
REMARK    5  A    between atoms: C_8  and  C_9
REMARK                            x       y       z     vdW  Elec       q    Type
REMARK                         _______ _______ _______ _____ _____    ______ ____
ROOT
ATOM      1  C   UNL     1       3.496   6.097  -8.415  0.00  0.00    +0.063 C 
ATOM      2  C   UNL     1       2.638   7.489  -8.286  0.00  0.00    +0.018 C 
ENDROOT
BRANCH   1   3
ATOM      3  N   UNL     1       2.180   5.244  -8.453  0.00  0.00    -0.261 NA
ATOM      4  C   UNL     1       2.548   3.872  -8.565  0.00  0.00    +0.090 C 
BRANCH   3   5
ATOM      5  C   UNL     1       1.599   5.605  -7.188  0.00  0.00    +0.151 C 
BRANCH   5   7
ATOM      6  C   UNL     1      -0.919   5.320  -7.170  0.00  0.00    -0.013 C 
ATOM      7  C   UNL     1       0.151   5.327  -7.169  0.00  0.00    -0.060 C 
ENDBRANCH   5   7
ENDBRANCH   3   5
ENDBRANCH   1   3
BRANCH   1   8
ATOM      8  C   UNL     1       3.564   6.204 -10.051  0.00  0.00    +0.042 C 
BRANCH   8   9
ATOM      9  C   UNL     1       5.048   6.336 -10.209  0.00  0.00    -0.021 A 
ATOM     10  C   UNL     1       5.477   7.478 -10.860  0.00  0.00    -0.004 A 
ATOM     11  C   UNL     1       6.811   7.659 -11.105  0.00  0.00    -0.000 A 
ATOM     12  C   UNL     1       7.691   6.727 -10.593  0.00  0.00    -0.000 A 
ATOM     13  C   UNL     1       7.271   5.861  -9.597  0.00  0.00    -0.000 A 
ATOM     14  C   UNL     1       5.922   5.791  -9.275  0.00  0.00    -0.004 A 
ENDBRANCH   8   9
ENDBRANCH   1   8
TORSDOF 5
ENDMDL
MODEL 2
REMARK VINA RESULT:      -5.8      3.205      6.795
REMARK  Name = 
REMARK  5 active torsions:
REMARK  status: ('A' for Active; 'I' for Inactive)
REMARK    1  A    between atoms: C_2  and  C_3
REMARK    2  A    between atoms: C_3  and  N_4
REMARK    3  A    between atoms: N_4  and  C_6
REMARK    4  A    between atoms: C_6  and  C_8
REMARK    5  A    between atoms: C_8  and  C_9
REMARK                            x       y       z     vdW  Elec       q    Type
REMARK                         _______ _______ _______ _____ _____    ______ ____
ROOT
ATOM      1  C   UNL     1       1.959   5.303  -5.646  0.00  0.00    +0.063 C 
ATOM      2  C   UNL     1       2.039   3.786  -6.266  0.00  0.00    +0.018 C 
ENDROOT
BRANCH   1   3
ATOM      3  N   UNL     1       3.392   5.641  -6.189  0.00  0.00    -0.261 NA
ATOM      4  C   UNL     1       3.418   5.338  -7.582  0.00  0.00    +0.090 C 
BRANCH   3   5
ATOM      5  C   UNL     1       3.464   7.043  -5.881  0.00  0.00    +0.151 C 
BRANCH   5   7
ATOM      6  C   UNL     1       5.121   7.674  -4.070  0.00  0.00    -0.013 C 
ATOM      7  C   UNL     1       4.430   7.300  -4.797  0.00  0.00    -0.060 C 
ENDBRANCH   5   7
ENDBRANCH   3   5
ENDBRANCH   1   3
BRANCH   1   8
ATOM      8  C   UNL     1       1.227   5.894  -6.990  0.00  0.00    +0.042 C 
BRANCH   8   9
ATOM      9  C   UNL     1      -0.078   6.301  -6.378  0.00  0.00    -0.021 A 
ATOM     10  C   UNL     1      -1.159   5.498  -6.696  0.00  0.00    -0.004 A 
ATOM     11  C   UNL     1      -2.405   5.823  -6.233  0.00  0.00    -0.000 A 
ATOM     12  C   UNL     1      -2.512   6.897  -5.373  0.00  0.00    -0.000 A 
ATOM     13  C   UNL     1      -1.379   7.388  -4.746  0.00  0.00    -0.000 A 
ATOM     14  C   UNL     1      -0.126   6.942  -5.146  0.00  0.00    -0.004 A 
ENDBRANCH   8   9
ENDBRANCH   1   8
TORSDOF 5
ENDMDL
MODEL 3
REMARK VINA RESULT:      -5.7      1.684      2.636
REMARK  Name = 
REMARK  5 active torsions:
REMARK  status: ('A' for Active; 'I' for Inactive)
REMARK    1  A    between atoms: C_2  and  C_3
REMARK    2  A    between atoms: C_3  and  N_4
REMARK    3  A    between atoms: N_4  and  C_6
REMARK    4  A    between atoms: C_6  and  C_8
REMARK    5  A    between atoms: C_8  and  C_9
REMARK                            x       y       z     vdW  Elec       q    Type
REMARK                         _______ _______ _______ _____ _____    ______ ____
ROOT
ATOM      1  C   UNL     1       3.360   6.687  -8.165  0.00  0.00    +0.063 C 
ATOM      2  C   UNL     1       1.846   6.758  -8.791  0.00  0.00    +0.018 C 
ENDROOT
BRANCH   1   3
ATOM      3  N   UNL     1       2.923   5.591  -7.131  0.00  0.00    -0.261 NA
ATOM      4  C   UNL     1       2.594   4.409  -7.857  0.00  0.00    +0.090 C 
BRANCH   3   5
ATOM      5  C   UNL     1       4.116   5.491  -6.336  0.00  0.00    +0.151 C 
BRANCH   5   7
ATOM      6  C   UNL     1       4.480   7.373  -4.678  0.00  0.00    -0.013 C 
ATOM      7  C   UNL     1       4.219   6.615  -5.388  0.00  0.00    -0.060 C 
ENDBRANCH   5   7
ENDBRANCH   3   5
ENDBRANCH   1   3
BRANCH   1   8
ATOM      8  C   UNL     1       3.843   5.569  -9.263  0.00  0.00    +0.042 C 
BRANCH   8   9
ATOM      9  C   UNL     1       5.061   6.269  -9.781  0.00  0.00    -0.021 A 
ATOM     10  C   UNL     1       6.266   5.643  -9.515  0.00  0.00    -0.004 A 
ATOM     11  C   UNL     1       7.438   6.236  -9.896  0.00  0.00    -0.000 A 
ATOM     12  C   UNL     1       7.360   7.402 -10.631  0.00  0.00    -0.000 A 
ATOM     13  C   UNL     1       6.166   7.750 -11.240  0.00  0.00    -0.000 A 
ATOM     14  C   UNL     1       5.009   7.045 -10.934  0.00  0.00    -0.004 A 
ENDBRANCH   8   9
ENDBRANCH   1   8
TORSDOF 5
ENDMDL
MODEL 4
REMARK VINA RESULT:      -5.7      3.091      6.367
REMARK  Name = 
REMARK  5 active torsions:
REMARK  status: ('A' for Active; 'I' for Inactive)
REMARK    1  A    between atoms: C_2  and  C_3
REMARK    2  A    between atoms: C_3  and  N_4
REMARK    3  A    between atoms: N_4  and  C_6
REMARK    4  A    between atoms: C_6  and  C_8
REMARK    5  A    between atoms: C_8  and  C_9
REMARK                            x       y       z     vdW  Elec       q    Type
REMARK                         _______ _______ _______ _____ _____    ______ ____
ROOT
ATOM      1  C   UNL     1       1.373   6.429  -8.237  0.00  0.00    +0.063 C 
ATOM      2  C   UNL     1       2.922   6.510  -7.701  0.00  0.00    +0.018 C 
ENDROOT
BRANCH   1   3
ATOM      3  N   UNL     1       1.773   5.402  -9.354  0.00  0.00    -0.261 NA
ATOM      4  C   UNL     1       2.349   4.263  -8.719  0.00  0.00    +0.090 C 
BRANCH   3   5
ATOM      5  C   UNL     1       0.492   5.165  -9.961  0.00  0.00    +0.151 C 
BRANCH   5   7
ATOM      6  C   UNL     1      -0.361   7.129 -11.316  0.00  0.00    -0.013 C 
ATOM      7  C   UNL     1       0.000   6.369 -10.654  0.00  0.00    -0.060 C 
ENDBRANCH   5   7
ENDBRANCH   3   5
ENDBRANCH   1   3
BRANCH   1   8
ATOM      8  C   UNL     1       0.988   5.240  -7.174  0.00  0.00    +0.042 C 
BRANCH   8   9
ATOM      9  C   UNL     1      -0.181   5.898  -6.509  0.00  0.00    -0.021 A 
ATOM     10  C   UNL     1      -1.405   5.290  -6.720  0.00  0.00    -0.004 A 
ATOM     11  C   UNL     1      -2.540   5.852  -6.202  0.00  0.00    -0.000 A 
ATOM     12  C   UNL     1      -2.398   6.961  -5.394  0.00  0.00    -0.000 A 
ATOM     13  C   UNL     1      -1.156   7.267  -4.861  0.00  0.00    -0.000 A 
ATOM     14  C   UNL     1      -0.031   6.588  -5.311  0.00  0.00    -0.004 A 
ENDBRANCH   8   9
ENDBRANCH   1   8
TORSDOF 5
ENDMDL
MODEL 5
REMARK VINA RESULT:      -5.7      0.831      2.073
REMARK  Name = 
REMARK  5 active torsions:
REMARK  status: ('A' for Active; 'I' for Inactive)
REMARK    1  A    between atoms: C_2  and  C_3
REMARK    2  A    between atoms: C_3  and  N_4
REMARK    3  A    between atoms: N_4  and  C_6
REMARK    4  A    between atoms: C_6  and  C_8
REMARK    5  A    between atoms: C_8  and  C_9
REMARK                            x       y       z     vdW  Elec       q    Type
REMARK                         _______ _______ _______ _____ _____    ______ ____
ROOT
ATOM      1  C   UNL     1       2.857   5.457  -9.118  0.00  0.00    +0.063 C 
ATOM      2  C   UNL     1       2.669   3.870  -8.747  0.00  0.00    +0.018 C 
ENDROOT
BRANCH   1   3
ATOM      3  N   UNL     1       1.838   5.878  -8.001  0.00  0.00    -0.261 NA
ATOM      4  C   UNL     1       1.950   7.287  -7.812  0.00  0.00    +0.090 C 
BRANCH   3   5
ATOM      5  C   UNL     1       0.603   5.452  -8.601  0.00  0.00    +0.151 C 
BRANCH   5   7
ATOM      6  C   UNL     1      -1.198   5.317  -6.822  0.00  0.00    -0.013 C 
ATOM      7  C   UNL     1      -0.496   5.461  -7.618  0.00  0.00    -0.060 C 
ENDBRANCH   5   7
ENDBRANCH   3   5
ENDBRANCH   1   3
BRANCH   1   8
ATOM      8  C   UNL     1       4.143   5.616  -8.112  0.00  0.00    +0.042 C 
BRANCH   8   9
ATOM      9  C   UNL     1       5.130   6.175  -9.090  0.00  0.00    -0.021 A 
ATOM     10  C   UNL     1       6.370   5.562  -9.100  0.00  0.00    -0.004 A 
ATOM     11  C   UNL     1       7.357   6.041  -9.918  0.00  0.00    -0.000 A 
ATOM     12  C   UNL     1       7.035   7.066 -10.784  0.00  0.00    -0.000 A 
ATOM     13  C   UNL     1       5.705   7.346 -11.050  0.00  0.00    -0.000 A 
ATOM     14  C   UNL     1       4.712   6.744 -10.288  0.00  0.00    -0.004 A 
ENDBRANCH   8   9
ENDBRANCH   1   8
TORSDOF 5
ENDMDL
MODEL 6
REMARK VINA RESULT:      -5.6      1.653      6.638
REMARK  Name = 
REMARK  5 active torsions:
REMARK  status: ('A' for Active; 'I' for Inactive)
REMARK    1  A    between atoms: C_2  and  C_3
REMARK    2  A    between atoms: C_3  and  N_4
REMARK    3  A    between atoms: N_4  and  C_6
REMARK    4  A    between atoms: C_6  and  C_8
REMARK    5  A    between atoms: C_8  and  C_9
REMARK                            x       y       z     vdW  Elec       q    Type
REMARK                         _______ _______ _______ _____ _____    ______ ____
ROOT
ATOM      1  C   UNL     1       1.549   5.881  -7.704  0.00  0.00    +0.063 C 
ATOM      2  C   UNL     1       2.330   7.323  -7.758  0.00  0.00    +0.018 C 
ENDROOT
BRANCH   1   3
ATOM      3  N   UNL     1       2.907   5.099  -7.782  0.00  0.00    -0.261 NA
ATOM      4  C   UNL     1       2.670   3.874  -8.470  0.00  0.00    +0.090 C 
BRANCH   3   5
ATOM      5  C   UNL     1       3.711   6.045  -8.505  0.00  0.00    +0.151 C 
BRANCH   5   7
ATOM      6  C   UNL     1       6.108   5.320  -8.899  0.00  0.00    -0.013 C 
ATOM      7  C   UNL     1       5.102   5.573  -8.632  0.00  0.00    -0.060 C 
ENDBRANCH   5   7
ENDBRANCH   3   5
ENDBRANCH   1   3
BRANCH   1   8
ATOM      8  C   UNL     1       1.543   5.861  -6.064  0.00  0.00    +0.042 C 
BRANCH   8   9
ATOM      9  C   UNL     1       0.071   6.028  -5.839  0.00  0.00    -0.021 A 
ATOM     10  C   UNL     1      -0.299   7.159  -5.134  0.00  0.00    -0.004 A 
ATOM     11  C   UNL     1      -1.616   7.367  -4.827  0.00  0.00    -0.000 A 
ATOM     12  C   UNL     1      -2.542   6.477  -5.331  0.00  0.00    -0.000 A 
ATOM     13  C   UNL     1      -2.188   5.634  -6.372  0.00  0.00    -0.000 A 
ATOM     14  C   UNL     1      -0.855   5.538  -6.752  0.00  0.00    -0.004 A 
ENDBRANCH   8   9
ENDBRANCH   1   8
TORSDOF 5
ENDMDL
MODEL 7
REMARK VINA RESULT:      -5.4      2.032      2.809
REMARK  Name = 
REMARK  5 active torsions:
REMARK  status: ('A' for Active; 'I' for Inactive)
REMARK    1  A    between atoms: C_2  and  C_3
REMARK    2  A    between atoms: C_3  and  N_4
REMARK    3  A    between atoms: N_4  and  C_6
REMARK    4  A    between atoms: C_6  and  C_8
REMARK    5  A    between atoms: C_8  and  C_9
REMARK                            x       y       z     vdW  Elec       q    Type
REMARK                         _______ _______ _______ _____ _____    ______ ____
ROOT
ATOM      1  C   UNL     1       4.216   5.189 -10.150  0.00  0.00    +0.063 C 
ATOM      2  C   UNL     1       4.699   5.195  -8.581  0.00  0.00    +0.018 C 
ENDROOT
BRANCH   1   3
ATOM      3  N   UNL     1       2.813   5.773  -9.760  0.00  0.00    -0.261 NA
ATOM      4  C   UNL     1       3.024   6.879  -8.885  0.00  0.00    +0.090 C 
BRANCH   3   5
ATOM      5  C   UNL     1       2.307   6.126 -11.058  0.00  0.00    +0.151 C 
BRANCH   5   7
ATOM      6  C   UNL     1      -0.103   6.907 -11.034  0.00  0.00    -0.013 C 
ATOM      7  C   UNL     1       0.878   6.482 -10.994  0.00  0.00    -0.060 C 
ENDBRANCH   5   7
ENDBRANCH   3   5
ENDBRANCH   1   3
BRANCH   1   8
ATOM      8  C   UNL     1       4.845   6.679 -10.426  0.00  0.00    +0.042 C 
BRANCH   8   9
ATOM      9  C   UNL     1       6.094   6.271 -11.144  0.00  0.00    -0.021 A 
ATOM     10  C   UNL     1       5.928   5.916 -12.471  0.00  0.00    -0.004 A 
ATOM     11  C   UNL     1       7.001   5.471 -13.194  0.00  0.00    -0.000 A 
ATOM     12  C   UNL     1       8.240   5.493 -12.586  0.00  0.00    -0.000 A 
ATOM     13  C   UNL     1       8.429   6.249 -11.441  0.00  0.00    -0.000 A 
ATOM     14  C   UNL     1       7.330   6.802 -10.796  0.00  0.00    -0.004 A 
ENDBRANCH   8   9
ENDBRANCH   1   8
TORSDOF 5
ENDMDL
MODEL 8
REMARK VINA RESULT:      -5.4      4.377      7.027
REMARK  Name = 
REMARK  5 active torsions:
REMARK  status: ('A' for Active; 'I' for Inactive)
REMARK    1  A    between atoms: C_2  and  C_3
REMARK    2  A    between atoms: C_3  and  N_4
REMARK    3  A    between atoms: N_4  and  C_6
REMARK    4  A    between atoms: C_6  and  C_8
REMARK    5  A    between atoms: C_8  and  C_9
REMARK                            x       y       z     vdW  Elec       q    Type
REMARK                         _______ _______ _______ _____ _____    ______ ____
ROOT
ATOM      1  C   UNL     1       1.916   5.049  -5.278  0.00  0.00    +0.063 C 
ATOM      2  C   UNL     1       2.107   3.772  -6.290  0.00  0.00    +0.018 C 
ENDROOT
BRANCH   1   3
ATOM      3  N   UNL     1       3.394   5.513  -5.522  0.00  0.00    -0.261 NA
ATOM      4  C   UNL     1       3.481   6.897  -5.191  0.00  0.00    +0.090 C 
BRANCH   3   5
ATOM      5  C   UNL     1       4.094   4.638  -4.621  0.00  0.00    +0.151 C 
BRANCH   5   7
ATOM      6  C   UNL     1       3.826   5.204  -2.165  0.00  0.00    -0.013 C 
ATOM      7  C   UNL     1       3.934   5.077  -3.223  0.00  0.00    -0.060 C 
ENDBRANCH   5   7
ENDBRANCH   3   5
ENDBRANCH   1   3
BRANCH   1   8
ATOM      8  C   UNL     1       1.336   6.007  -6.477  0.00  0.00    +0.042 C 
BRANCH   8   9
ATOM      9  C   UNL     1      -0.088   6.105  -6.023  0.00  0.00    -0.021 A 
ATOM     10  C   UNL     1      -0.391   7.210  -5.248  0.00  0.00    -0.004 A 
ATOM     11  C   UNL     1      -1.651   7.356  -4.736  0.00  0.00    -0.000 A 
ATOM     12  C   UNL     1      -2.606   6.431  -5.106  0.00  0.00    -0.000 A 
ATOM     13  C   UNL     1      -2.384   5.616  -6.203  0.00  0.00    -0.000 A 
ATOM     14  C   UNL     1      -1.124   5.584  -6.789  0.00  0.00    -0.004 A 
ENDBRANCH   8   9
ENDBRANCH   1   8
TORSDOF 5
ENDMDL
MODEL 9
REMARK VINA RESULT:      -5.4      3.483      4.797
REMARK  Name = 
REMARK  5 active torsions:
REMARK  status: ('A' for Active; 'I' for Inactive)
REMARK    1  A    between atoms: C_2  and  C_3
REMARK    2  A    between atoms: C_3  and  N_4
REMARK    3  A    between atoms: N_4  and  C_6
REMARK    4  A    between atoms: C_6  and  C_8
REMARK    5  A    between atoms: C_8  and  C_9
REMARK                            x       y       z     vdW  Elec       q    Type
REMARK                         _______ _______ _______ _____ _____    ______ ____
ROOT
ATOM      1  C   UNL     1       1.533   6.895  -6.592  0.00  0.00    +0.063 C 
ATOM      2  C   UNL     1       2.165   7.629  -7.916  0.00  0.00    +0.018 C 
ENDROOT
BRANCH   1   3
ATOM      3  N   UNL     1       0.821   5.817  -7.482  0.00  0.00    -0.261 NA
ATOM      4  C   UNL     1       1.827   5.096  -8.189  0.00  0.00    +0.090 C 
BRANCH   3   5
ATOM      5  C   UNL     1       0.137   5.055  -6.473  0.00  0.00    +0.151 C 
BRANCH   5   7
ATOM      6  C   UNL     1      -2.314   5.697  -6.409  0.00  0.00    -0.013 C 
ATOM      7  C   UNL     1      -1.266   5.487  -6.341  0.00  0.00    -0.060 C 
ENDBRANCH   5   7
ENDBRANCH   3   5
ENDBRANCH   1   3
BRANCH   1   8
ATOM      8  C   UNL     1       2.863   5.957  -6.385  0.00  0.00    +0.042 C 
BRANCH   8   9
ATOM      9  C   UNL     1       3.483   6.690  -5.236  0.00  0.00    -0.021 A 
ATOM     10  C   UNL     1       2.724   6.734  -4.080  0.00  0.00    -0.004 A 
ATOM     11  C   UNL     1       3.180   7.432  -2.995  0.00  0.00    -0.000 A 
ATOM     12  C   UNL     1       4.443   7.984  -3.069  0.00  0.00    -0.000 A 
ATOM     13  C   UNL     1       5.323   7.553  -4.048  0.00  0.00    -0.000 A 
ATOM     14  C   UNL     1       4.863   6.734  -5.071  0.00  0.00    -0.004 A 
ENDBRANCH   8   9
ENDBRANCH   1   8
TORSDOF 5
ENDMDL
