MODEL 1
REMARK VINA RESULT:      -9.0      0.000      0.000
REMARK  Name = 
REMARK  5 active torsions:
REMARK  status: ('A' for Active; 'I' for Inactive)
REMARK    1  A    between atoms: C_3  and  C_4
REMARK    2  A    between atoms: CA_5  and  C_6
REMARK    3  A    between atoms: CA_12  and  N_13
REMARK    4  A    between atoms: C_14  and  CA_16
REMARK    5  A    between atoms: CA_16  and  C_18
REMARK                            x       y       z     vdW  Elec       q    Type
REMARK                         _______ _______ _______ _____ _____    ______ ____
ROOT
ATOM      1  C   UNL     1      -0.475   6.373  -4.784  0.00  0.00    +0.009 C 
ATOM      2  C   UNL     1      -0.740   5.721  -6.105  0.00  0.00    +0.087 C 
ATOM      3  S   UNL     1       0.847   5.531  -6.989  0.00  0.00    -0.114 S 
ATOM      4  C   UNL     1       1.965   6.759  -6.049  0.00  0.00    +0.157 C 
ATOM      5  N   UNL     1       1.909   5.916  -4.784  0.00  0.00    -0.242 N 
ATOM      6  C   UNL     1       2.842   4.903  -5.246  0.00  0.00    +0.253 C 
ATOM      7  O   UNL     1       3.628   4.392  -4.372  0.00  0.00    -0.273 OA
ATOM      8  CA  UNL     1       3.509   6.066  -6.173  0.00  0.00    +0.200 C 
ATOM      9  CA  UNL     1       0.647   6.078  -4.125  0.00  0.00    +0.132 C 
ENDROOT
BRANCH   1  12
ATOM     10  C   UNL     1      -1.922   8.298  -4.502  0.00  0.00    +0.031 C 
ATOM     11  C   UNL     1      -2.003   7.982  -4.095  0.00  0.00    -0.026 C 
ATOM     12  C   UNL     1      -1.638   6.714  -3.958  0.00  0.00    -0.007 C 
ENDBRANCH   1  12
BRANCH   8  13
ATOM     13  N   UNL     1       3.272   5.369  -7.590  0.00  0.00    -0.194 NA
ATOM     14  C   UNL     1       4.263   5.494  -8.553  0.00  0.00    +0.264 C 
ATOM     15  O   UNL     1       5.420   5.327  -8.169  0.00  0.00    -0.271 OA
BRANCH  14  16
ATOM     16  CA  UNL     1       4.063   6.662  -9.686  0.00  0.00    +0.191 C 
ATOM     17  N   UNL     1       2.903   5.822 -10.405  0.00  0.00    -0.118 NA
BRANCH  16  18
ATOM     18  C   UNL     1       5.205   6.021 -10.679  0.00  0.00    +0.004 A 
ATOM     19  C   UNL     1       4.621   5.400 -11.783  0.00  0.00    +0.001 A 
ATOM     20  C   UNL     1       5.411   5.214 -12.912  0.00  0.00    +0.042 A 
ATOM     21  C   UNL     1       6.748   5.595 -12.877  0.00  0.00    +0.196 A 
ATOM     22  O   UNL     1       7.723   4.946 -13.642  0.00  0.00    -0.287 OA
ATOM     23  C   UNL     1       7.115   6.539 -11.933  0.00  0.00    +0.042 A 
ATOM     24  C   UNL     1       6.138   6.993 -11.052  0.00  0.00    +0.001 A 
ENDBRANCH  16  18
ENDBRANCH  14  16
ENDBRANCH   8  13
BRANCH   9  25
ATOM     25  C   UNL     1       0.665   5.836  -2.677  0.00  0.00    +0.401 C 
ATOM     26  OXT UNL     1       0.115   4.640  -2.205  0.00  0.00    -0.239 OA
ATOM     27  O   UNL     1       1.385   6.522  -1.902  0.00  0.00    -0.239 OA
ENDBRANCH   9  25
TORSDOF 5
ENDMDL
MODEL 2
REMARK VINA RESULT:      -8.8      2.397      9.058
REMARK  Name = 
REMARK  5 active torsions:
REMARK  status: ('A' for Active; 'I' for Inactive)
REMARK    1  A    between atoms: C_3  and  C_4
REMARK    2  A    between atoms: CA_5  and  C_6
REMARK    3  A    between atoms: CA_12  and  N_13
REMARK    4  A    between atoms: C_14  and  CA_16
REMARK    5  A    between atoms: CA_16  and  C_18
REMARK                            x       y       z     vdW  Elec       q    Type
REMARK                         _______ _______ _______ _____ _____    ______ ____
ROOT
ATOM      1  C   UNL     1       5.064   6.198 -10.810  0.00  0.00    +0.009 C 
ATOM      2  C   UNL     1       5.301   5.589  -9.463  0.00  0.00    +0.087 C 
ATOM      3  S   UNL     1       3.711   5.525  -8.565  0.00  0.00    -0.114 S 
ATOM      4  C   UNL     1       2.658   6.775  -9.552  0.00  0.00    +0.157 C 
ATOM      5  N   UNL     1       2.658   5.878 -10.780  0.00  0.00    -0.242 N 
ATOM      6  C   UNL     1       1.673   4.939 -10.272  0.00  0.00    +0.253 C 
ATOM      7  O   UNL     1       0.853   4.437 -11.121  0.00  0.00    -0.273 OA
ATOM      8  CA  UNL     1       1.078   6.175  -9.392  0.00  0.00    +0.200 C 
ATOM      9  CA  UNL     1       3.922   5.940 -11.450  0.00  0.00    +0.132 C 
ENDROOT
BRANCH   1  12
ATOM     10  C   UNL     1       6.465   8.098 -11.367  0.00  0.00    +0.031 C 
ATOM     11  C   UNL     1       6.565   7.724 -11.715  0.00  0.00    -0.026 C 
ATOM     12  C   UNL     1       6.239   6.439 -11.654  0.00  0.00    -0.007 C 
ENDBRANCH   1  12
BRANCH   8  13
ATOM     13  N   UNL     1       1.285   5.526  -7.948  0.00  0.00    -0.194 NA
ATOM     14  C   UNL     1       0.282   5.698  -7.005  0.00  0.00    +0.264 C 
ATOM     15  O   UNL     1      -0.872   5.533  -7.401  0.00  0.00    -0.271 OA
BRANCH  14  16
ATOM     16  CA  UNL     1       0.481   6.903  -5.911  0.00  0.00    +0.191 C 
ATOM     17  N   UNL     1       1.746   6.160  -5.264  0.00  0.00    -0.118 NA
BRANCH  16  18
ATOM     18  C   UNL     1      -0.539   6.209  -4.825  0.00  0.00    +0.004 A 
ATOM     19  C   UNL     1       0.169   5.594  -3.792  0.00  0.00    +0.001 A 
ATOM     20  C   UNL     1      -0.504   5.365  -2.597  0.00  0.00    +0.042 A 
ATOM     21  C   UNL     1      -1.850   5.699  -2.499  0.00  0.00    +0.196 A 
ATOM     22  O   UNL     1      -2.725   5.006  -1.655  0.00  0.00    -0.287 OA
ATOM     23  C   UNL     1      -2.336   6.642  -3.388  0.00  0.00    +0.042 A 
ATOM     24  C   UNL     1      -1.464   7.142  -4.349  0.00  0.00    +0.001 A 
ENDBRANCH  16  18
ENDBRANCH  14  16
ENDBRANCH   8  13
BRANCH   9  25
ATOM     25  C   UNL     1       3.882   5.640 -12.888  0.00  0.00    +0.401 C 
ATOM     26  OXT UNL     1       4.622   4.546 -13.350  0.00  0.00    -0.239 OA
ATOM     27  O   UNL     1       3.011   6.149 -13.644  0.00  0.00    -0.239 OA
ENDBRANCH   9  25
TORSDOF 5
ENDMDL
MODEL 3
REMARK VINA RESULT:      -8.1      1.324      1.637
REMARK  Name = 
REMARK  5 active torsions:
REMARK  status: ('A' for Active; 'I' for Inactive)
REMARK    1  A    between atoms: C_3  and  C_4
REMARK    2  A    between atoms: CA_5  and  C_6
REMARK    3  A    between atoms: CA_12  and  N_13
REMARK    4  A    between atoms: C_14  and  CA_16
REMARK    5  A    between atoms: CA_16  and  C_18
REMARK                            x       y       z     vdW  Elec       q    Type
REMARK                         _______ _______ _______ _____ _____    ______ ____
ROOT
ATOM      1  C   UNL     1      -0.432   6.435  -4.994  0.00  0.00    +0.009 C 
ATOM      2  C   UNL     1      -0.716   5.880  -6.355  0.00  0.00    +0.087 C 
ATOM      3  S   UNL     1       0.860   5.748  -7.271  0.00  0.00    -0.114 S 
ATOM      4  C   UNL     1       1.993   6.904  -6.260  0.00  0.00    +0.157 C 
ATOM      5  N   UNL     1       1.950   5.973  -5.057  0.00  0.00    -0.242 N 
ATOM      6  C   UNL     1       2.874   4.993  -5.601  0.00  0.00    +0.253 C 
ATOM      7  O   UNL     1       3.669   4.419  -4.775  0.00  0.00    -0.273 OA
ATOM      8  CA  UNL     1       3.533   6.216  -6.452  0.00  0.00    +0.200 C 
ATOM      9  CA  UNL     1       0.697   6.092  -4.373  0.00  0.00    +0.132 C 
ENDROOT
BRANCH   1  12
ATOM     10  C   UNL     1      -1.841   8.353  -4.527  0.00  0.00    +0.031 C 
ATOM     11  C   UNL     1      -1.925   8.003  -4.150  0.00  0.00    -0.026 C 
ATOM     12  C   UNL     1      -1.584   6.721  -4.133  0.00  0.00    -0.007 C 
ENDBRANCH   1  12
BRANCH   8  13
ATOM     13  N   UNL     1       3.277   5.622  -7.912  0.00  0.00    -0.194 NA
ATOM     14  C   UNL     1       4.373   5.424  -8.738  0.00  0.00    +0.264 C 
ATOM     15  O   UNL     1       5.360   4.903  -8.218  0.00  0.00    -0.271 OA
BRANCH  14  16
ATOM     16  CA  UNL     1       4.698   6.589  -9.844  0.00  0.00    +0.191 C 
ATOM     17  N   UNL     1       3.256   7.255  -9.625  0.00  0.00    -0.118 NA
BRANCH  16  18
ATOM     18  C   UNL     1       4.139   5.684 -11.097  0.00  0.00    +0.004 A 
ATOM     19  C   UNL     1       2.875   6.111 -11.503  0.00  0.00    +0.001 A 
ATOM     20  C   UNL     1       2.463   5.778 -12.788  0.00  0.00    +0.042 A 
ATOM     21  C   UNL     1       3.289   4.993 -13.585  0.00  0.00    +0.196 A 
ATOM     22  O   UNL     1       2.776   4.134 -14.563  0.00  0.00    -0.287 OA
ATOM     23  C   UNL     1       4.637   4.968 -13.271  0.00  0.00    +0.042 A 
ATOM     24  C   UNL     1       5.058   5.677 -12.150  0.00  0.00    +0.001 A 
ENDBRANCH  16  18
ENDBRANCH  14  16
ENDBRANCH   8  13
BRANCH   9  25
ATOM     25  C   UNL     1       0.732   5.748  -2.945  0.00  0.00    +0.401 C 
ATOM     26  OXT UNL     1       0.013   4.624  -2.524  0.00  0.00    -0.239 OA
ATOM     27  O   UNL     1       1.583   6.254  -2.165  0.00  0.00    -0.239 OA
ENDBRANCH   9  25
TORSDOF 5
ENDMDL
MODEL 4
REMARK VINA RESULT:      -8.0      2.473      8.538
REMARK  Name = 
REMARK  5 active torsions:
REMARK  status: ('A' for Active; 'I' for Inactive)
REMARK    1  A    between atoms: C_3  and  C_4
REMARK    2  A    between atoms: CA_5  and  C_6
REMARK    3  A    between atoms: CA_12  and  N_13
REMARK    4  A    between atoms: C_14  and  CA_16
REMARK    5  A    between atoms: CA_16  and  C_18
REMARK                            x       y       z     vdW  Elec       q    Type
REMARK                         _______ _______ _______ _____ _____    ______ ____
ROOT
ATOM      1  C   UNL     1       5.446   6.198 -10.503  0.00  0.00    +0.009 C 
ATOM      2  C   UNL     1       5.980   5.644  -9.219  0.00  0.00    +0.087 C 
ATOM      3  S   UNL     1       4.603   5.505  -8.027  0.00  0.00    -0.114 S 
ATOM      4  C   UNL     1       3.296   6.656  -8.808  0.00  0.00    +0.157 C 
ATOM      5  N   UNL     1       3.119   5.726  -9.999  0.00  0.00    -0.242 N 
ATOM      6  C   UNL     1       2.317   4.741  -9.294  0.00  0.00    +0.253 C 
ATOM      7  O   UNL     1       1.385   4.164  -9.958  0.00  0.00    -0.273 OA
ATOM      8  CA  UNL     1       1.822   5.962  -8.333  0.00  0.00    +0.200 C 
ATOM      9  CA  UNL     1       4.222   5.850 -10.904  0.00  0.00    +0.132 C 
ENDROOT
BRANCH   1  12
ATOM     10  C   UNL     1       6.533   8.175 -11.392  0.00  0.00    +0.031 C 
ATOM     11  C   UNL     1       6.602   7.791 -11.738  0.00  0.00    -0.026 C 
ATOM     12  C   UNL     1       6.416   6.489 -11.563  0.00  0.00    -0.007 C 
ENDBRANCH   1  12
BRANCH   8  13
ATOM     13  N   UNL     1       2.348   5.368  -6.948  0.00  0.00    -0.194 NA
ATOM     14  C   UNL     1       1.434   5.209  -5.916  0.00  0.00    +0.264 C 
ATOM     15  O   UNL     1       0.348   4.716  -6.222  0.00  0.00    -0.271 OA
BRANCH  14  16
ATOM     16  CA  UNL     1       1.372   6.390  -4.782  0.00  0.00    +0.191 C 
ATOM     17  N   UNL     1       2.847   6.888  -5.161  0.00  0.00    -0.118 NA
BRANCH  16  18
ATOM     18  C   UNL     1       1.956   5.411  -3.598  0.00  0.00    +0.004 A 
ATOM     19  C   UNL     1       3.351   5.438  -3.566  0.00  0.00    +0.001 A 
ATOM     20  C   UNL     1       3.976   5.048  -2.387  0.00  0.00    +0.042 A 
ATOM     21  C   UNL     1       3.202   4.597  -1.323  0.00  0.00    +0.196 A 
ATOM     22  O   UNL     1       3.685   3.664  -0.399  0.00  0.00    -0.287 OA
ATOM     23  C   UNL     1       1.872   4.982  -1.297  0.00  0.00    +0.042 A 
ATOM     24  C   UNL     1       1.392   5.738  -2.362  0.00  0.00    +0.001 A 
ENDBRANCH  16  18
ENDBRANCH  14  16
ENDBRANCH   8  13
BRANCH   9  25
ATOM     25  C   UNL     1       3.924   5.507 -12.301  0.00  0.00    +0.401 C 
ATOM     26  OXT UNL     1       2.959   6.266 -12.971  0.00  0.00    -0.239 OA
ATOM     27  O   UNL     1       4.684   4.758 -12.973  0.00  0.00    -0.239 OA
ENDBRANCH   9  25
TORSDOF 5
ENDMDL
MODEL 5
REMARK VINA RESULT:      -8.0      2.271      3.359
REMARK  Name = 
REMARK  5 active torsions:
REMARK  status: ('A' for Active; 'I' for Inactive)
REMARK    1  A    between atoms: C_3  and  C_4
REMARK    2  A    between atoms: CA_5  and  C_6
REMARK    3  A    between atoms: CA_12  and  N_13
REMARK    4  A    between atoms: C_14  and  CA_16
REMARK    5  A    between atoms: CA_16  and  C_18
REMARK                            x       y       z     vdW  Elec       q    Type
REMARK                         _______ _______ _______ _____ _____    ______ ____
ROOT
ATOM      1  C   UNL     1       2.593   6.449  -2.608  0.00  0.00    +0.009 C 
ATOM      2  C   UNL     1       3.339   7.390  -3.502  0.00  0.00    +0.087 C 
ATOM      3  S   UNL     1       3.332   6.710  -5.198  0.00  0.00    -0.114 S 
ATOM      4  C   UNL     1       2.881   4.883  -4.881  0.00  0.00    +0.157 C 
ATOM      5  N   UNL     1       1.485   5.259  -4.410  0.00  0.00    -0.242 N 
ATOM      6  C   UNL     1       0.948   5.510  -5.736  0.00  0.00    +0.253 C 
ATOM      7  O   UNL     1      -0.276   5.190  -5.940  0.00  0.00    -0.273 OA
ATOM      8  CA  UNL     1       2.041   4.433  -6.285  0.00  0.00    +0.200 C 
ATOM      9  CA  UNL     1       1.529   5.802  -3.085  0.00  0.00    +0.132 C 
ENDROOT
BRANCH   1  12
ATOM     10  C   UNL     1       4.034   6.032  -0.702  0.00  0.00    +0.031 C 
ATOM     11  C   UNL     1       3.570   6.182  -0.517  0.00  0.00    -0.026 C 
ATOM     12  C   UNL     1       2.574   6.760  -1.175  0.00  0.00    -0.007 C 
ENDBRANCH   1  12
BRANCH   8  13
ATOM     13  N   UNL     1       2.823   5.411  -7.276  0.00  0.00    -0.194 NA
ATOM     14  C   UNL     1       2.926   5.043  -8.610  0.00  0.00    +0.264 C 
ATOM     15  O   UNL     1       1.901   4.611  -9.137  0.00  0.00    -0.271 OA
BRANCH  14  16
ATOM     16  CA  UNL     1       4.316   4.312  -9.080  0.00  0.00    +0.191 C 
ATOM     17  N   UNL     1       5.083   4.843  -7.777  0.00  0.00    -0.118 NA
BRANCH  16  18
ATOM     18  C   UNL     1       4.811   5.612  -9.956  0.00  0.00    +0.004 A 
ATOM     19  C   UNL     1       6.133   5.944  -9.661  0.00  0.00    +0.001 A 
ATOM     20  C   UNL     1       6.834   6.694 -10.599  0.00  0.00    +0.042 A 
ATOM     21  C   UNL     1       6.183   7.126 -11.749  0.00  0.00    +0.196 A 
ATOM     22  O   UNL     1       6.545   8.308 -12.405  0.00  0.00    -0.287 OA
ATOM     23  C   UNL     1       5.051   6.430 -12.138  0.00  0.00    +0.042 A 
ATOM     24  C   UNL     1       4.614   5.391 -11.322  0.00  0.00    +0.001 A 
ENDBRANCH  16  18
ENDBRANCH  14  16
ENDBRANCH   8  13
BRANCH   9  25
ATOM     25  C   UNL     1       0.293   5.648  -2.306  0.00  0.00    +0.401 C 
ATOM     26  OXT UNL     1      -0.740   6.565  -2.528  0.00  0.00    -0.239 OA
ATOM     27  O   UNL     1       0.040   4.588  -1.672  0.00  0.00    -0.239 OA
ENDBRANCH   9  25
TORSDOF 5
ENDMDL
MODEL 6
REMARK VINA RESULT:      -7.8      2.418      8.234
REMARK  Name = 
REMARK  5 active torsions:
REMARK  status: ('A' for Active; 'I' for Inactive)
REMARK    1  A    between atoms: C_3  and  C_4
REMARK    2  A    between atoms: CA_5  and  C_6
REMARK    3  A    between atoms: CA_12  and  N_13
REMARK    4  A    between atoms: C_14  and  CA_16
REMARK    5  A    between atoms: CA_16  and  C_18
REMARK                            x       y       z     vdW  Elec       q    Type
REMARK                         _______ _______ _______ _____ _____    ______ ____
ROOT
ATOM      1  C   UNL     1       2.025   5.759 -12.304  0.00  0.00    +0.009 C 
ATOM      2  C   UNL     1       1.151   6.670 -11.499  0.00  0.00    +0.087 C 
ATOM      3  S   UNL     1       1.543   6.439  -9.730  0.00  0.00    -0.114 S 
ATOM      4  C   UNL     1       2.452   4.760  -9.750  0.00  0.00    +0.157 C 
ATOM      5  N   UNL     1       3.622   5.349 -10.524  0.00  0.00    -0.242 N 
ATOM      6  C   UNL     1       4.215   6.035  -9.388  0.00  0.00    +0.253 C 
ATOM      7  O   UNL     1       5.494   6.089  -9.342  0.00  0.00    -0.273 OA
ATOM      8  CA  UNL     1       3.540   4.883  -8.453  0.00  0.00    +0.200 C 
ATOM      9  CA  UNL     1       3.276   5.531 -11.902  0.00  0.00    +0.132 C 
ENDROOT
BRANCH   1  12
ATOM     10  C   UNL     1       0.812   4.328 -13.843  0.00  0.00    +0.031 C 
ATOM     11  C   UNL     1       1.137   4.622 -14.126  0.00  0.00    -0.026 C 
ATOM     12  C   UNL     1       1.792   5.714 -13.751  0.00  0.00    -0.007 C 
ENDBRANCH   1  12
BRANCH   8  13
ATOM     13  N   UNL     1       2.633   5.842  -7.555  0.00  0.00    -0.194 NA
ATOM     14  C   UNL     1       2.898   5.908  -6.196  0.00  0.00    +0.264 C 
ATOM     15  O   UNL     1       4.084   5.998  -5.876  0.00  0.00    -0.271 OA
BRANCH  14  16
ATOM     16  CA  UNL     1       1.976   4.983  -5.206  0.00  0.00    +0.191 C 
ATOM     17  N   UNL     1       1.586   4.007  -6.416  0.00  0.00    -0.118 NA
BRANCH  16  18
ATOM     18  C   UNL     1       0.633   5.898  -5.451  0.00  0.00    +0.004 A 
ATOM     19  C   UNL     1      -0.372   5.160  -6.076  0.00  0.00    +0.001 A 
ATOM     20  C   UNL     1      -1.679   5.616  -5.951  0.00  0.00    +0.042 A 
ATOM     21  C   UNL     1      -1.924   6.803  -5.270  0.00  0.00    +0.196 A 
ATOM     22  O   UNL     1      -3.009   7.628  -5.586  0.00  0.00    -0.287 OA
ATOM     23  C   UNL     1      -0.963   7.227  -4.368  0.00  0.00    +0.042 A 
ATOM     24  C   UNL     1       0.200   6.472  -4.253  0.00  0.00    +0.001 A 
ENDBRANCH  16  18
ENDBRANCH  14  16
ENDBRANCH   8  13
BRANCH   9  25
ATOM     25  C   UNL     1       4.407   5.509 -12.838  0.00  0.00    +0.401 C 
ATOM     26  OXT UNL     1       5.320   6.569 -12.788  0.00  0.00    -0.239 OA
ATOM     27  O   UNL     1       4.722   4.464 -13.467  0.00  0.00    -0.239 OA
ENDBRANCH   9  25
TORSDOF 5
ENDMDL
MODEL 7
REMARK VINA RESULT:      -7.8      1.962      2.247
REMARK  Name = 
REMARK  5 active torsions:
REMARK  status: ('A' for Active; 'I' for Inactive)
REMARK    1  A    between atoms: C_3  and  C_4
REMARK    2  A    between atoms: CA_5  and  C_6
REMARK    3  A    between atoms: CA_12  and  N_13
REMARK    4  A    between atoms: C_14  and  CA_16
REMARK    5  A    between atoms: CA_16  and  C_18
REMARK                            x       y       z     vdW  Elec       q    Type
REMARK                         _______ _______ _______ _____ _____    ______ ____
ROOT
ATOM      1  C   UNL     1       1.220   5.570  -2.255  0.00  0.00    +0.009 C 
ATOM      2  C   UNL     1       0.432   4.988  -3.388  0.00  0.00    +0.087 C 
ATOM      3  S   UNL     1       1.332   5.306  -4.945  0.00  0.00    -0.114 S 
ATOM      4  C   UNL     1       2.525   6.703  -4.426  0.00  0.00    +0.157 C 
ATOM      5  N   UNL     1       3.292   5.770  -3.502  0.00  0.00    -0.242 N 
ATOM      6  C   UNL     1       4.018   5.086  -4.559  0.00  0.00    +0.253 C 
ATOM      7  O   UNL     1       5.223   4.731  -4.303  0.00  0.00    -0.273 OA
ATOM      8  CA  UNL     1       3.877   6.461  -5.424  0.00  0.00    +0.200 C 
ATOM      9  CA  UNL     1       2.552   5.530  -2.299  0.00  0.00    +0.132 C 
ENDROOT
BRANCH   1  12
ATOM     10  C   UNL     1      -0.317   6.935  -0.967  0.00  0.00    +0.031 C 
ATOM     11  C   UNL     1      -0.087   6.605  -0.636  0.00  0.00    -0.026 C 
ATOM     12  C   UNL     1       0.615   5.515  -0.920  0.00  0.00    -0.007 C 
ENDBRANCH   1  12
BRANCH   8  13
ATOM     13  N   UNL     1       3.072   5.851  -6.661  0.00  0.00    -0.194 NA
ATOM     14  C   UNL     1       3.771   5.595  -7.832  0.00  0.00    +0.264 C 
ATOM     15  O   UNL     1       4.865   5.045  -7.704  0.00  0.00    -0.271 OA
BRANCH  14  16
ATOM     16  CA  UNL     1       3.690   6.726  -9.015  0.00  0.00    +0.191 C 
ATOM     17  N   UNL     1       2.515   5.927  -9.755  0.00  0.00    -0.118 NA
BRANCH  16  18
ATOM     18  C   UNL     1       4.835   5.983  -9.930  0.00  0.00    +0.004 A 
ATOM     19  C   UNL     1       4.277   5.433 -11.085  0.00  0.00    +0.001 A 
ATOM     20  C   UNL     1       5.129   5.179 -12.154  0.00  0.00    +0.042 A 
ATOM     21  C   UNL     1       6.490   5.423 -12.013  0.00  0.00    +0.196 A 
ATOM     22  O   UNL     1       7.451   4.686 -12.714  0.00  0.00    -0.287 OA
ATOM     23  C   UNL     1       6.876   6.317 -11.029  0.00  0.00    +0.042 A 
ATOM     24  C   UNL     1       5.886   6.859 -10.216  0.00  0.00    +0.001 A 
ENDBRANCH  16  18
ENDBRANCH  14  16
ENDBRANCH   8  13
BRANCH   9  25
ATOM     25  C   UNL     1       3.365   5.178  -1.127  0.00  0.00    +0.401 C 
ATOM     26  OXT UNL     1       3.599   3.822  -0.875  0.00  0.00    -0.239 OA
ATOM     27  O   UNL     1       4.063   6.038  -0.526  0.00  0.00    -0.239 OA
ENDBRANCH   9  25
TORSDOF 5
ENDMDL
MODEL 8
REMARK VINA RESULT:      -7.8      2.640      3.181
REMARK  Name = 
REMARK  5 active torsions:
REMARK  status: ('A' for Active; 'I' for Inactive)
REMARK    1  A    between atoms: C_3  and  C_4
REMARK    2  A    between atoms: CA_5  and  C_6
REMARK    3  A    between atoms: CA_12  and  N_13
REMARK    4  A    between atoms: C_14  and  CA_16
REMARK    5  A    between atoms: CA_16  and  C_18
REMARK                            x       y       z     vdW  Elec       q    Type
REMARK                         _______ _______ _______ _____ _____    ______ ____
ROOT
ATOM      1  C   UNL     1       0.116   5.871  -2.346  0.00  0.00    +0.009 C 
ATOM      2  C   UNL     1      -0.559   5.349  -3.577  0.00  0.00    +0.087 C 
ATOM      3  S   UNL     1       0.559   5.590  -5.000  0.00  0.00    -0.114 S 
ATOM      4  C   UNL     1       1.780   6.890  -4.320  0.00  0.00    +0.157 C 
ATOM      5  N   UNL     1       2.343   5.902  -3.309  0.00  0.00    -0.242 N 
ATOM      6  C   UNL     1       3.146   5.160  -4.266  0.00  0.00    +0.253 C 
ATOM      7  O   UNL     1       4.275   4.711  -3.857  0.00  0.00    -0.273 OA
ATOM      8  CA  UNL     1       3.228   6.538  -5.132  0.00  0.00    +0.200 C 
ATOM      9  CA  UNL     1       1.435   5.726  -2.215  0.00  0.00    +0.132 C 
ENDROOT
BRANCH   1  12
ATOM     10  C   UNL     1      -1.592   7.271  -1.342  0.00  0.00    +0.031 C 
ATOM     11  C   UNL     1      -1.405   6.960  -0.968  0.00  0.00    -0.026 C 
ATOM     12  C   UNL     1      -0.662   5.869  -1.103  0.00  0.00    -0.007 C 
ENDBRANCH   1  12
BRANCH   8  13
ATOM     13  N   UNL     1       2.548   5.989  -6.469  0.00  0.00    -0.194 NA
ATOM     14  C   UNL     1       3.324   5.923  -7.617  0.00  0.00    +0.264 C 
ATOM     15  O   UNL     1       4.459   5.466  -7.481  0.00  0.00    -0.271 OA
BRANCH  14  16
ATOM     16  CA  UNL     1       3.190   7.160  -8.684  0.00  0.00    +0.191 C 
ATOM     17  N   UNL     1       1.789   7.610  -8.048  0.00  0.00    -0.118 NA
BRANCH  16  18
ATOM     18  C   UNL     1       2.433   6.229  -9.807  0.00  0.00    +0.004 A 
ATOM     19  C   UNL     1       1.065   6.498  -9.844  0.00  0.00    +0.001 A 
ATOM     20  C   UNL     1       0.371   6.154 -10.999  0.00  0.00    +0.042 A 
ATOM     21  C   UNL     1       1.045   5.512 -12.032  0.00  0.00    +0.196 A 
ATOM     22  O   UNL     1       0.398   4.625 -12.899  0.00  0.00    -0.287 OA
ATOM     23  C   UNL     1       2.421   5.656 -12.078  0.00  0.00    +0.042 A 
ATOM     24  C   UNL     1       3.035   6.378 -11.060  0.00  0.00    +0.001 A 
ENDBRANCH  16  18
ENDBRANCH  14  16
ENDBRANCH   8  13
BRANCH   9  25
ATOM     25  C   UNL     1       2.056   5.315  -0.949  0.00  0.00    +0.401 C 
ATOM     26  OXT UNL     1       2.096   3.949  -0.652  0.00  0.00    -0.239 OA
ATOM     27  O   UNL     1       2.775   6.105  -0.280  0.00  0.00    -0.239 OA
ENDBRANCH   9  25
TORSDOF 5
ENDMDL
MODEL 9
REMARK VINA RESULT:      -7.6      3.360      4.533
REMARK  Name = 
REMARK  5 active torsions:
REMARK  status: ('A' for Active; 'I' for Inactive)
REMARK    1  A    between atoms: C_3  and  C_4
REMARK    2  A    between atoms: CA_5  and  C_6
REMARK    3  A    between atoms: CA_12  and  N_13
REMARK    4  A    between atoms: C_14  and  CA_16
REMARK    5  A    between atoms: CA_16  and  C_18
REMARK                            x       y       z     vdW  Elec       q    Type
REMARK                         _______ _______ _______ _____ _____    ______ ____
ROOT
ATOM      1  C   UNL     1       2.778   6.241  -2.724  0.00  0.00    +0.009 C 
ATOM      2  C   UNL     1       3.256   7.209  -3.762  0.00  0.00    +0.087 C 
ATOM      3  S   UNL     1       2.638   6.666  -5.392  0.00  0.00    -0.114 S 
ATOM      4  C   UNL     1       2.176   4.847  -5.047  0.00  0.00    +0.157 C 
ATOM      5  N   UNL     1       1.048   5.260  -4.115  0.00  0.00    -0.242 N 
ATOM      6  C   UNL     1       0.124   5.643  -5.168  0.00  0.00    +0.253 C 
ATOM      7  O   UNL     1      -1.120   5.407  -4.969  0.00  0.00    -0.273 OA
ATOM      8  CA  UNL     1       0.887   4.555  -6.112  0.00  0.00    +0.200 C 
ATOM      9  CA  UNL     1       1.568   5.693  -2.853  0.00  0.00    +0.132 C 
ENDROOT
BRANCH   1  12
ATOM     10  C   UNL     1       4.284   5.093  -1.209  0.00  0.00    +0.031 C 
ATOM     11  C   UNL     1       4.003   5.428  -0.925  0.00  0.00    -0.026 C 
ATOM     12  C   UNL     1       3.256   6.438  -1.352  0.00  0.00    -0.007 C 
ENDBRANCH   1  12
BRANCH   8  13
ATOM     13  N   UNL     1       1.372   5.564  -7.251  0.00  0.00    -0.194 NA
ATOM     14  C   UNL     1       0.660   5.597  -8.441  0.00  0.00    +0.264 C 
ATOM     15  O   UNL     1      -0.567   5.602  -8.341  0.00  0.00    -0.271 OA
BRANCH  14  16
ATOM     16  CA  UNL     1       1.256   4.726  -9.695  0.00  0.00    +0.191 C 
ATOM     17  N   UNL     1       2.762   5.083  -9.279  0.00  0.00    -0.118 NA
BRANCH  16  18
ATOM     18  C   UNL     1       1.191   6.001 -10.730  0.00  0.00    +0.004 A 
ATOM     19  C   UNL     1       1.941   5.754 -11.880  0.00  0.00    +0.001 A 
ATOM     20  C   UNL     1       1.641   6.497 -13.017  0.00  0.00    +0.042 A 
ATOM     21  C   UNL     1       0.662   7.481 -12.947  0.00  0.00    +0.196 A 
ATOM     22  O   UNL     1       0.700   8.622 -13.757  0.00  0.00    -0.287 OA
ATOM     23  C   UNL     1      -0.275   7.376 -11.933  0.00  0.00    +0.042 A 
ATOM     24  C   UNL     1      -0.134   6.332 -11.024  0.00  0.00    +0.001 A 
ENDBRANCH  16  18
ENDBRANCH  14  16
ENDBRANCH   8  13
BRANCH   9  25
ATOM     25  C   UNL     1       0.651   5.545  -1.715  0.00  0.00    +0.401 C 
ATOM     26  OXT UNL     1      -0.053   6.677  -1.290  0.00  0.00    -0.239 OA
ATOM     27  O   UNL     1       0.283   4.411  -1.307  0.00  0.00    -0.239 OA
ENDBRANCH   9  25
TORSDOF 5
ENDMDL
