MODEL 1
REMARK VINA RESULT:      -8.5      0.000      0.000
REMARK  Name = 
REMARK  1 active torsions:
REMARK  status: ('A' for Active; 'I' for Inactive)
REMARK    1  A    between atoms: C_10  and  C_11
REMARK                            x       y       z     vdW  Elec       q    Type
REMARK                         _______ _______ _______ _____ _____    ______ ____
ROOT
ATOM      1  C   UNL     1      -0.099   5.581  -8.186  0.00  0.00    +0.120 C 
ATOM      2  N   UNL     1       1.236   5.514  -8.725  0.00  0.00    -0.253 N 
ATOM      3  C   UNL     1       2.116   4.555  -8.187  0.00  0.00    +0.284 C 
ATOM      4  O   UNL     1       1.783   4.226  -7.008  0.00  0.00    -0.270 OA
ATOM      5  C   UNL     1       3.731   4.786  -8.000  0.00  0.00    +0.331 C 
ATOM      6  O   UNL     1       3.669   6.328  -7.948  0.00  0.00    -0.186 OA
ATOM      7  N   UNL     1       4.121   4.671  -9.548  0.00  0.00    -0.233 NA
ATOM      8  C   UNL     1       3.920   5.521 -10.433  0.00  0.00    +0.080 C 
ATOM      9  C   UNL     1       2.568   5.877 -10.826  0.00  0.00    +0.032 A 
ATOM     10  C   UNL     1       2.380   5.843 -12.211  0.00  0.00    +0.014 A 
ATOM     11  C   UNL     1       1.095   5.838 -12.750  0.00  0.00    +0.058 A 
ATOM     12 CL   UNL     1       0.649   4.862 -14.113  0.00  0.00    -0.082 Cl
ATOM     13  C   UNL     1       0.198   6.568 -11.988  0.00  0.00    +0.013 A 
ATOM     14  C   UNL     1       0.291   6.480 -10.601  0.00  0.00    +0.016 A 
ATOM     15  C   UNL     1       1.497   6.176  -9.978  0.00  0.00    +0.055 A 
ENDROOT
BRANCH   8  16
ATOM     16  C   UNL     1       4.897   6.079 -11.369  0.00  0.00    +0.017 A 
ATOM     17  C   UNL     1       5.439   7.300 -10.946  0.00  0.00    +0.001 A 
ATOM     18  C   UNL     1       6.817   7.503 -10.916  0.00  0.00    +0.000 A 
ATOM     19  C   UNL     1       7.584   6.787 -11.813  0.00  0.00    +0.000 A 
ATOM     20  C   UNL     1       6.962   5.854 -12.629  0.00  0.00    +0.000 A 
ATOM     21  C   UNL     1       5.751   5.366 -12.154  0.00  0.00    +0.001 A 
ENDBRANCH   8  16
TORSDOF 1
ENDMDL
MODEL 2
REMARK VINA RESULT:      -8.3      4.044      6.470
REMARK  Name = 
REMARK  1 active torsions:
REMARK  status: ('A' for Active; 'I' for Inactive)
REMARK    1  A    between atoms: C_10  and  C_11
REMARK                            x       y       z     vdW  Elec       q    Type
REMARK                         _______ _______ _______ _____ _____    ______ ____
ROOT
ATOM      1  C   UNL     1       0.103   5.411  -9.547  0.00  0.00    +0.120 C 
ATOM      2  N   UNL     1       0.949   5.826  -8.458  0.00  0.00    -0.253 N 
ATOM      3  C   UNL     1       2.036   6.673  -8.753  0.00  0.00    +0.284 C 
ATOM      4  O   UNL     1       2.398   6.560  -9.964  0.00  0.00    -0.270 OA
ATOM      5  C   UNL     1       3.487   6.615  -7.989  0.00  0.00    +0.331 C 
ATOM      6  O   UNL     1       3.372   5.143  -7.534  0.00  0.00    -0.186 OA
ATOM      7  N   UNL     1       3.003   7.269  -6.610  0.00  0.00    -0.233 NA
ATOM      8  C   UNL     1       2.314   6.728  -5.728  0.00  0.00    +0.080 C 
ATOM      9  C   UNL     1       0.941   6.337  -5.996  0.00  0.00    +0.032 A 
ATOM     10  C   UNL     1       0.050   6.786  -5.017  0.00  0.00    +0.014 A 
ATOM     11  C   UNL     1      -1.323   6.789  -5.259  0.00  0.00    +0.058 A 
ATOM     12 CL   UNL     1      -2.366   8.079  -4.752  0.00  0.00    -0.082 Cl
ATOM     13  C   UNL     1      -1.721   5.740  -6.070  0.00  0.00    +0.013 A 
ATOM     14  C   UNL     1      -0.901   5.392  -7.141  0.00  0.00    +0.016 A 
ATOM     15  C   UNL     1       0.467   5.640  -7.112  0.00  0.00    +0.055 A 
ENDROOT
BRANCH   8  16
ATOM     16  C   UNL     1       2.611   6.635  -4.298  0.00  0.00    +0.017 A 
ATOM     17  C   UNL     1       2.836   5.324  -3.860  0.00  0.00    +0.001 A 
ATOM     18  C   UNL     1       3.968   4.998  -3.116  0.00  0.00    +0.000 A 
ATOM     19  C   UNL     1       4.521   5.993  -2.334  0.00  0.00    +0.000 A 
ATOM     20  C   UNL     1       3.981   7.269  -2.395  0.00  0.00    +0.000 A 
ATOM     21  C   UNL     1       3.282   7.561  -3.559  0.00  0.00    +0.001 A 
ENDBRANCH   8  16
TORSDOF 1
ENDMDL
MODEL 3
REMARK VINA RESULT:      -7.9      3.083      5.311
REMARK  Name = 
REMARK  1 active torsions:
REMARK  status: ('A' for Active; 'I' for Inactive)
REMARK    1  A    between atoms: C_10  and  C_11
REMARK                            x       y       z     vdW  Elec       q    Type
REMARK                         _______ _______ _______ _____ _____    ______ ____
ROOT
ATOM      1  C   UNL     1       2.314   6.133 -11.819  0.00  0.00    +0.120 C 
ATOM      2  N   UNL     1       2.523   5.856 -10.420  0.00  0.00    -0.253 N 
ATOM      3  C   UNL     1       1.763   4.825  -9.832  0.00  0.00    +0.284 C 
ATOM      4  O   UNL     1       0.684   4.621 -10.469  0.00  0.00    -0.270 OA
ATOM      5  C   UNL     1       1.209   4.852  -8.287  0.00  0.00    +0.331 C 
ATOM      6  O   UNL     1       1.224   6.389  -8.137  0.00  0.00    -0.186 OA
ATOM      7  N   UNL     1       2.618   4.587  -7.575  0.00  0.00    -0.233 NA
ATOM      8  C   UNL     1       3.553   5.396  -7.445  0.00  0.00    +0.080 C 
ATOM      9  C   UNL     1       4.264   5.901  -8.607  0.00  0.00    +0.032 A 
ATOM     10  C   UNL     1       5.652   5.801  -8.478  0.00  0.00    +0.014 A 
ATOM     11  C   UNL     1       6.477   5.931  -9.594  0.00  0.00    +0.058 A 
ATOM     12 CL   UNL     1       7.874   4.935  -9.853  0.00  0.00    -0.082 Cl
ATOM     13  C   UNL     1       5.972   6.821 -10.526  0.00  0.00    +0.013 A 
ATOM     14  C   UNL     1       4.599   6.813 -10.764  0.00  0.00    +0.016 A 
ATOM     15  C   UNL     1       3.701   6.394  -9.788  0.00  0.00    +0.055 A 
ENDROOT
BRANCH   8  16
ATOM     16  C   UNL     1       4.252   5.758  -6.211  0.00  0.00    +0.017 A 
ATOM     17  C   UNL     1       3.909   7.027  -5.729  0.00  0.00    +0.001 A 
ATOM     18  C   UNL     1       3.520   7.212  -4.403  0.00  0.00    +0.000 A 
ATOM     19  C   UNL     1       4.024   6.332  -3.466  0.00  0.00    +0.000 A 
ATOM     20  C   UNL     1       4.810   5.274  -3.896  0.00  0.00    +0.000 A 
ATOM     21  C   UNL     1       4.624   4.900  -5.221  0.00  0.00    +0.001 A 
ENDBRANCH   8  16
TORSDOF 1
ENDMDL
MODEL 4
REMARK VINA RESULT:      -7.9      4.594      8.125
REMARK  Name = 
REMARK  1 active torsions:
REMARK  status: ('A' for Active; 'I' for Inactive)
REMARK    1  A    between atoms: C_10  and  C_11
REMARK                            x       y       z     vdW  Elec       q    Type
REMARK                         _______ _______ _______ _____ _____    ______ ____
ROOT
ATOM      1  C   UNL     1       4.847   5.427  -7.535  0.00  0.00    +0.120 C 
ATOM      2  N   UNL     1       3.516   5.425  -6.982  0.00  0.00    -0.253 N 
ATOM      3  C   UNL     1       2.588   4.501  -7.503  0.00  0.00    +0.284 C 
ATOM      4  O   UNL     1       2.895   4.148  -8.683  0.00  0.00    -0.270 OA
ATOM      5  C   UNL     1       0.984   4.802  -7.677  0.00  0.00    +0.331 C 
ATOM      6  O   UNL     1       1.114   6.340  -7.743  0.00  0.00    -0.186 OA
ATOM      7  N   UNL     1       0.604   4.718  -6.125  0.00  0.00    -0.233 NA
ATOM      8  C   UNL     1       0.852   5.565  -5.248  0.00  0.00    +0.080 C 
ATOM      9  C   UNL     1       2.222   5.863  -4.872  0.00  0.00    +0.032 A 
ATOM     10  C   UNL     1       2.423   5.831  -3.489  0.00  0.00    +0.014 A 
ATOM     11  C   UNL     1       3.712   5.773  -2.962  0.00  0.00    +0.058 A 
ATOM     12 CL   UNL     1       4.127   4.789  -1.595  0.00  0.00    -0.082 Cl
ATOM     13  C   UNL     1       4.633   6.457  -3.738  0.00  0.00    +0.013 A 
ATOM     14  C   UNL     1       4.522   6.362  -5.124  0.00  0.00    +0.016 A 
ATOM     15  C   UNL     1       3.297   6.108  -5.732  0.00  0.00    +0.055 A 
ENDROOT
BRANCH   8  16
ATOM     16  C   UNL     1      -0.090   6.174  -4.308  0.00  0.00    +0.017 A 
ATOM     17  C   UNL     1      -0.663   7.360  -4.783  0.00  0.00    +0.001 A 
ATOM     18  C   UNL     1      -2.043   7.549  -4.766  0.00  0.00    +0.000 A 
ATOM     19  C   UNL     1      -2.763   6.886  -3.792  0.00  0.00    +0.000 A 
ATOM     20  C   UNL     1      -2.095   6.013  -2.946  0.00  0.00    +0.000 A 
ATOM     21  C   UNL     1      -0.901   5.505  -3.442  0.00  0.00    +0.001 A 
ENDBRANCH   8  16
TORSDOF 1
ENDMDL
MODEL 5
REMARK VINA RESULT:      -7.6      5.398      7.768
REMARK  Name = 
REMARK  1 active torsions:
REMARK  status: ('A' for Active; 'I' for Inactive)
REMARK    1  A    between atoms: C_10  and  C_11
REMARK                            x       y       z     vdW  Elec       q    Type
REMARK                         _______ _______ _______ _____ _____    ______ ____
ROOT
ATOM      1  C   UNL     1      -1.536   5.741  -1.109  0.00  0.00    +0.120 C 
ATOM      2  N   UNL     1      -1.168   6.103  -2.454  0.00  0.00    -0.253 N 
ATOM      3  C   UNL     1      -1.923   7.104  -3.097  0.00  0.00    +0.284 C 
ATOM      4  O   UNL     1      -3.088   7.198  -2.602  0.00  0.00    -0.270 OA
ATOM      5  C   UNL     1      -2.266   7.115  -4.702  0.00  0.00    +0.331 C 
ATOM      6  O   UNL     1      -2.112   5.593  -4.911  0.00  0.00    -0.186 OA
ATOM      7  N   UNL     1      -0.801   7.517  -5.208  0.00  0.00    -0.233 NA
ATOM      8  C   UNL     1       0.203   6.786  -5.243  0.00  0.00    +0.080 C 
ATOM      9  C   UNL     1       0.793   6.275  -4.019  0.00  0.00    +0.032 A 
ATOM     10  C   UNL     1       2.174   6.480  -3.956  0.00  0.00    +0.014 A 
ATOM     11  C   UNL     1       2.854   6.354  -2.746  0.00  0.00    +0.058 A 
ATOM     12 CL   UNL     1       4.122   7.433  -2.261  0.00  0.00    -0.082 Cl
ATOM     13  C   UNL     1       2.302   5.383  -1.927  0.00  0.00    +0.013 A 
ATOM     14  C   UNL     1       0.914   5.281  -1.874  0.00  0.00    +0.016 A 
ATOM     15  C   UNL     1       0.121   5.683  -2.944  0.00  0.00    +0.055 A 
ENDROOT
BRANCH   8  16
ATOM     16  C   UNL     1       1.083   6.537  -6.387  0.00  0.00    +0.017 A 
ATOM     17  C   UNL     1       0.637   5.503  -7.219  0.00  0.00    +0.001 A 
ATOM     18  C   UNL     1       0.526   5.684  -8.596  0.00  0.00    +0.000 A 
ATOM     19  C   UNL     1       1.372   6.603  -9.185  0.00  0.00    +0.000 A 
ATOM     20  C   UNL     1       2.217   7.348  -8.377  0.00  0.00    +0.000 A 
ATOM     21  C   UNL     1       1.811   7.475  -7.054  0.00  0.00    +0.001 A 
ENDBRANCH   8  16
TORSDOF 1
ENDMDL
MODEL 6
REMARK VINA RESULT:      -7.5      2.560      5.105
REMARK  Name = 
REMARK  1 active torsions:
REMARK  status: ('A' for Active; 'I' for Inactive)
REMARK    1  A    between atoms: C_10  and  C_11
REMARK                            x       y       z     vdW  Elec       q    Type
REMARK                         _______ _______ _______ _____ _____    ______ ____
ROOT
ATOM      1  C   UNL     1       4.967   5.820  -5.316  0.00  0.00    +0.120 C 
ATOM      2  N   UNL     1       3.951   6.098  -6.299  0.00  0.00    -0.253 N 
ATOM      3  C   UNL     1       2.974   7.063  -5.981  0.00  0.00    +0.284 C 
ATOM      4  O   UNL     1       2.838   7.192  -4.726  0.00  0.00    -0.270 OA
ATOM      5  C   UNL     1       1.404   6.978  -6.456  0.00  0.00    +0.331 C 
ATOM      6  O   UNL     1       1.373   5.445  -6.640  0.00  0.00    -0.186 OA
ATOM      7  N   UNL     1       1.651   7.341  -7.995  0.00  0.00    -0.233 NA
ATOM      8  C   UNL     1       2.142   6.604  -8.867  0.00  0.00    +0.080 C 
ATOM      9  C   UNL     1       3.523   6.165  -8.775  0.00  0.00    +0.032 A 
ATOM     10  C   UNL     1       4.235   6.367  -9.961  0.00  0.00    +0.014 A 
ATOM     11  C   UNL     1       5.628   6.312  -9.968  0.00  0.00    +0.058 A 
ATOM     12 CL   UNL     1       6.610   7.412 -10.881  0.00  0.00    -0.082 Cl
ATOM     13  C   UNL     1       6.126   5.395  -9.058  0.00  0.00    +0.013 A 
ATOM     14  C   UNL     1       5.506   5.303  -7.814  0.00  0.00    +0.016 A 
ATOM     15  C   UNL     1       4.167   5.644  -7.649  0.00  0.00    +0.055 A 
ENDROOT
BRANCH   8  16
ATOM     16  C   UNL     1       1.581   6.282 -10.181  0.00  0.00    +0.017 A 
ATOM     17  C   UNL     1       1.369   4.911 -10.375  0.00  0.00    +0.001 A 
ATOM     18  C   UNL     1       0.140   4.430 -10.822  0.00  0.00    +0.000 A 
ATOM     19  C   UNL     1      -0.623   5.271 -11.608  0.00  0.00    +0.000 A 
ATOM     20  C   UNL     1      -0.172   6.562 -11.839  0.00  0.00    +0.000 A 
ATOM     21  C   UNL     1       0.716   7.057 -10.892  0.00  0.00    +0.001 A 
ENDBRANCH   8  16
TORSDOF 1
ENDMDL
MODEL 7
REMARK VINA RESULT:      -7.3      3.069      4.511
REMARK  Name = 
REMARK  1 active torsions:
REMARK  status: ('A' for Active; 'I' for Inactive)
REMARK    1  A    between atoms: C_10  and  C_11
REMARK                            x       y       z     vdW  Elec       q    Type
REMARK                         _______ _______ _______ _____ _____    ______ ____
ROOT
ATOM      1  C   UNL     1       0.227   4.650  -6.020  0.00  0.00    +0.120 C 
ATOM      2  N   UNL     1       1.145   4.986  -7.079  0.00  0.00    -0.253 N 
ATOM      3  C   UNL     1       0.667   5.784  -8.137  0.00  0.00    +0.284 C 
ATOM      4  O   UNL     1      -0.593   5.689  -8.259  0.00  0.00    -0.270 OA
ATOM      5  C   UNL     1       1.142   5.625  -9.701  0.00  0.00    +0.331 C 
ATOM      6  O   UNL     1       1.579   4.148  -9.588  0.00  0.00    -0.186 OA
ATOM      7  N   UNL     1       2.600   6.260  -9.522  0.00  0.00    -0.233 NA
ATOM      8  C   UNL     1       3.585   5.729  -8.981  0.00  0.00    +0.080 C 
ATOM      9  C   UNL     1       3.574   5.419  -7.562  0.00  0.00    +0.032 A 
ATOM     10  C   UNL     1       4.712   5.884  -6.897  0.00  0.00    +0.014 A 
ATOM     11  C   UNL     1       4.734   5.967  -5.506  0.00  0.00    +0.058 A 
ATOM     12 CL   UNL     1       5.456   7.294  -4.654  0.00  0.00    -0.082 Cl
ATOM     13  C   UNL     1       3.992   4.966  -4.904  0.00  0.00    +0.013 A 
ATOM     14  C   UNL     1       2.778   4.609  -5.486  0.00  0.00    +0.016 A 
ATOM     15  C   UNL     1       2.553   4.784  -6.848  0.00  0.00    +0.055 A 
ENDROOT
BRANCH   8  16
ATOM     16  C   UNL     1       4.931   5.576  -9.535  0.00  0.00    +0.017 A 
ATOM     17  C   UNL     1       5.143   6.328 -10.698  0.00  0.00    +0.001 A 
ATOM     18  C   UNL     1       6.251   7.164 -10.822  0.00  0.00    +0.000 A 
ATOM     19  C   UNL     1       7.387   6.822 -10.116  0.00  0.00    +0.000 A 
ATOM     20  C   UNL     1       7.341   5.727  -9.266  0.00  0.00    +0.000 A 
ATOM     21  C   UNL     1       6.073   5.376  -8.820  0.00  0.00    +0.001 A 
ENDBRANCH   8  16
TORSDOF 1
ENDMDL
MODEL 8
REMARK VINA RESULT:      -7.3      2.231      4.601
REMARK  Name = 
REMARK  1 active torsions:
REMARK  status: ('A' for Active; 'I' for Inactive)
REMARK    1  A    between atoms: C_10  and  C_11
REMARK                            x       y       z     vdW  Elec       q    Type
REMARK                         _______ _______ _______ _____ _____    ______ ____
ROOT
ATOM      1  C   UNL     1       3.397   5.016  -7.116  0.00  0.00    +0.120 C 
ATOM      2  N   UNL     1       2.723   5.408  -8.328  0.00  0.00    -0.253 N 
ATOM      3  C   UNL     1       1.507   6.110  -8.209  0.00  0.00    +0.284 C 
ATOM      4  O   UNL     1       0.943   5.878  -7.096  0.00  0.00    -0.270 OA
ATOM      5  C   UNL     1       0.240   5.945  -9.239  0.00  0.00    +0.331 C 
ATOM      6  O   UNL     1       0.613   4.528  -9.728  0.00  0.00    -0.186 OA
ATOM      7  N   UNL     1       0.890   6.738 -10.469  0.00  0.00    -0.233 NA
ATOM      8  C   UNL     1       1.790   6.335 -11.225  0.00  0.00    +0.080 C 
ATOM      9  C   UNL     1       3.126   6.079 -10.717  0.00  0.00    +0.032 A 
ATOM     10  C   UNL     1       4.123   6.686 -11.486  0.00  0.00    +0.014 A 
ATOM     11  C   UNL     1       5.417   6.823 -10.985  0.00  0.00    +0.058 A 
ATOM     12 CL   UNL     1       6.373   8.251 -11.225  0.00  0.00    -0.082 Cl
ATOM     13  C   UNL     1       5.780   5.772 -10.160  0.00  0.00    +0.013 A 
ATOM     14  C   UNL     1       4.824   5.267  -9.283  0.00  0.00    +0.016 A 
ATOM     15  C   UNL     1       3.465   5.366  -9.563  0.00  0.00    +0.055 A 
ENDROOT
BRANCH   8  16
ATOM     16  C   UNL     1       1.776   6.305 -12.689  0.00  0.00    +0.017 A 
ATOM     17  C   UNL     1       1.648   5.015 -13.218  0.00  0.00    +0.001 A 
ATOM     18  C   UNL     1       0.683   4.726 -14.181  0.00  0.00    +0.000 A 
ATOM     19  C   UNL     1       0.287   5.755 -15.012  0.00  0.00    +0.000 A 
ATOM     20  C   UNL     1       0.798   7.025 -14.793  0.00  0.00    +0.000 A 
ATOM     21  C   UNL     1       1.257   7.265 -13.503  0.00  0.00    +0.001 A 
ENDBRANCH   8  16
TORSDOF 1
ENDMDL
MODEL 9
REMARK VINA RESULT:      -7.3      4.313      6.402
REMARK  Name = 
REMARK  1 active torsions:
REMARK  status: ('A' for Active; 'I' for Inactive)
REMARK    1  A    between atoms: C_10  and  C_11
REMARK                            x       y       z     vdW  Elec       q    Type
REMARK                         _______ _______ _______ _____ _____    ______ ____
ROOT
ATOM      1  C   UNL     1       0.726   5.469  -2.085  0.00  0.00    +0.120 C 
ATOM      2  N   UNL     1       0.921   5.751  -3.484  0.00  0.00    -0.253 N 
ATOM      3  C   UNL     1       0.025   6.643  -4.107  0.00  0.00    +0.284 C 
ATOM      4  O   UNL     1      -1.086   6.690  -3.495  0.00  0.00    -0.270 OA
ATOM      5  C   UNL     1      -0.483   6.505  -5.662  0.00  0.00    +0.331 C 
ATOM      6  O   UNL     1      -0.230   4.986  -5.781  0.00  0.00    -0.186 OA
ATOM      7  N   UNL     1       0.884   6.972  -6.352  0.00  0.00    -0.233 NA
ATOM      8  C   UNL     1       1.934   6.314  -6.448  0.00  0.00    +0.080 C 
ATOM      9  C   UNL     1       2.688   5.943  -5.263  0.00  0.00    +0.032 A 
ATOM     10  C   UNL     1       4.047   6.252  -5.367  0.00  0.00    +0.014 A 
ATOM     11  C   UNL     1       4.857   6.270  -4.233  0.00  0.00    +0.058 A 
ATOM     12 CL   UNL     1       6.079   7.472  -3.967  0.00  0.00    -0.082 Cl
ATOM     13  C   UNL     1       4.474   5.328  -3.293  0.00  0.00    +0.013 A 
ATOM     14  C   UNL     1       3.111   5.130  -3.081  0.00  0.00    +0.016 A 
ATOM     15  C   UNL     1       2.181   5.390  -4.083  0.00  0.00    +0.055 A 
ENDROOT
BRANCH   8  16
ATOM     16  C   UNL     1       2.707   6.042  -7.661  0.00  0.00    +0.017 A 
ATOM     17  C   UNL     1       2.451   4.781  -8.214  0.00  0.00    +0.001 A 
ATOM     18  C   UNL     1       2.134   4.639  -9.564  0.00  0.00    +0.000 A 
ATOM     19  C   UNL     1       2.636   5.584 -10.436  0.00  0.00    +0.000 A 
ATOM     20  C   UNL     1       3.347   6.657  -9.922  0.00  0.00    +0.000 A 
ATOM     21  C   UNL     1       3.082   6.962  -8.593  0.00  0.00    +0.001 A 
ENDBRANCH   8  16
TORSDOF 1
ENDMDL
