MODEL 1
REMARK VINA RESULT:      -3.1      0.000      0.000
REMARK  Name = 
REMARK  1 active torsions:
REMARK  status: ('A' for Active; 'I' for Inactive)
REMARK    1  A    between atoms: C_2  and  C_4
REMARK                            x       y       z     vdW  Elec       q    Type
REMARK                         _______ _______ _______ _____ _____    ______ ____
ROOT
ATOM      1  C   UNL     1       7.073   7.442 -10.930  0.00  0.00    +0.038 C 
ATOM      2  C   UNL     1       6.792   5.785 -10.876  0.00  0.00    +0.185 C 
ATOM      3  O   UNL     1       7.566   5.665  -9.542  0.00  0.00    -0.220 OA
ENDROOT
BRANCH   2   4
ATOM      4  C   UNL     1       8.192   5.489 -11.756  0.00  0.00    +0.215 C 
ATOM      5  O   UNL     1       7.776   4.590 -12.728  0.00  0.00    -0.218 OA
ENDBRANCH   2   4
TORSDOF 1
ENDMDL
MODEL 2
REMARK VINA RESULT:      -2.9     11.503     12.358
REMARK  Name = 
REMARK  1 active torsions:
REMARK  status: ('A' for Active; 'I' for Inactive)
REMARK    1  A    between atoms: C_2  and  C_4
REMARK                            x       y       z     vdW  Elec       q    Type
REMARK                         _______ _______ _______ _____ _____    ______ ____
ROOT
ATOM      1  C   UNL     1      -2.419   7.372  -4.807  0.00  0.00    +0.038 C 
ATOM      2  C   UNL     1      -1.831   5.812  -4.586  0.00  0.00    +0.185 C 
ATOM      3  O   UNL     1      -2.609   5.309  -5.824  0.00  0.00    -0.220 OA
ENDROOT
BRANCH   2   4
ATOM      4  C   UNL     1      -3.123   5.437  -3.579  0.00  0.00    +0.215 C 
ATOM      5  O   UNL     1      -2.532   4.709  -2.555  0.00  0.00    -0.218 OA
ENDBRANCH   2   4
TORSDOF 1
ENDMDL
MODEL 3
REMARK VINA RESULT:      -2.9      1.481      1.697
REMARK  Name = 
REMARK  1 active torsions:
REMARK  status: ('A' for Active; 'I' for Inactive)
REMARK    1  A    between atoms: C_2  and  C_4
REMARK                            x       y       z     vdW  Elec       q    Type
REMARK                         _______ _______ _______ _____ _____    ______ ____
ROOT
ATOM      1  C   UNL     1       7.465   5.823  -9.661  0.00  0.00    +0.038 C 
ATOM      2  C   UNL     1       7.782   6.546 -11.145  0.00  0.00    +0.185 C 
ATOM      3  O   UNL     1       6.582   7.507 -10.969  0.00  0.00    -0.220 OA
ENDROOT
BRANCH   2   4
ATOM      4  C   UNL     1       6.811   5.423 -11.932  0.00  0.00    +0.215 C 
ATOM      5  O   UNL     1       7.727   4.577 -12.542  0.00  0.00    -0.218 OA
ENDBRANCH   2   4
TORSDOF 1
ENDMDL
MODEL 4
REMARK VINA RESULT:      -2.9      2.029      2.576
REMARK  Name = 
REMARK  1 active torsions:
REMARK  status: ('A' for Active; 'I' for Inactive)
REMARK    1  A    between atoms: C_2  and  C_4
REMARK                            x       y       z     vdW  Elec       q    Type
REMARK                         _______ _______ _______ _____ _____    ______ ____
ROOT
ATOM      1  C   UNL     1       7.355   6.788 -12.132  0.00  0.00    +0.038 C 
ATOM      2  C   UNL     1       6.646   5.266 -12.042  0.00  0.00    +0.185 C 
ATOM      3  O   UNL     1       7.833   4.633 -12.807  0.00  0.00    -0.220 OA
ENDROOT
BRANCH   2   4
ATOM      4  C   UNL     1       5.818   5.535 -13.480  0.00  0.00    +0.215 C 
ATOM      5  O   UNL     1       4.842   4.548 -13.477  0.00  0.00    -0.218 OA
ENDBRANCH   2   4
TORSDOF 1
ENDMDL
MODEL 5
REMARK VINA RESULT:      -2.9      1.602      2.796
REMARK  Name = 
REMARK  1 active torsions:
REMARK  status: ('A' for Active; 'I' for Inactive)
REMARK    1  A    between atoms: C_2  and  C_4
REMARK                            x       y       z     vdW  Elec       q    Type
REMARK                         _______ _______ _______ _____ _____    ______ ____
ROOT
ATOM      1  C   UNL     1       9.155   5.871 -12.171  0.00  0.00    +0.038 C 
ATOM      2  C   UNL     1       7.600   5.369 -11.773  0.00  0.00    +0.185 C 
ATOM      3  O   UNL     1       7.439   4.675 -13.146  0.00  0.00    -0.220 OA
ENDROOT
BRANCH   2   4
ATOM      4  C   UNL     1       6.953   6.796 -12.380  0.00  0.00    +0.215 C 
ATOM      5  O   UNL     1       6.063   7.191 -11.391  0.00  0.00    -0.218 OA
ENDBRANCH   2   4
TORSDOF 1
ENDMDL
MODEL 6
REMARK VINA RESULT:      -2.8     12.202     12.911
REMARK  Name = 
REMARK  1 active torsions:
REMARK  status: ('A' for Active; 'I' for Inactive)
REMARK    1  A    between atoms: C_2  and  C_4
REMARK                            x       y       z     vdW  Elec       q    Type
REMARK                         _______ _______ _______ _____ _____    ______ ____
ROOT
ATOM      1  C   UNL     1      -2.712   6.847  -1.825  0.00  0.00    +0.038 C 
ATOM      2  C   UNL     1      -3.474   5.931  -3.011  0.00  0.00    +0.185 C 
ATOM      3  O   UNL     1      -2.679   4.672  -2.596  0.00  0.00    -0.220 OA
ENDROOT
BRANCH   2   4
ATOM      4  C   UNL     1      -2.294   6.349  -4.133  0.00  0.00    +0.215 C 
ATOM      5  O   UNL     1      -2.560   5.509  -5.206  0.00  0.00    -0.218 OA
ENDBRANCH   2   4
TORSDOF 1
ENDMDL
MODEL 7
REMARK VINA RESULT:      -2.6     13.184     13.413
REMARK  Name = 
REMARK  1 active torsions:
REMARK  status: ('A' for Active; 'I' for Inactive)
REMARK    1  A    between atoms: C_2  and  C_4
REMARK                            x       y       z     vdW  Elec       q    Type
REMARK                         _______ _______ _______ _____ _____    ______ ____
ROOT
ATOM      1  C   UNL     1      -1.506   7.347  -1.267  0.00  0.00    +0.038 C 
ATOM      2  C   UNL     1      -2.134   5.810  -1.000  0.00  0.00    +0.185 C 
ATOM      3  O   UNL     1      -0.929   5.158  -1.717  0.00  0.00    -0.220 OA
ENDROOT
BRANCH   2   4
ATOM      4  C   UNL     1      -2.996   5.882  -2.441  0.00  0.00    +0.215 C 
ATOM      5  O   UNL     1      -2.894   4.590  -2.941  0.00  0.00    -0.218 OA
ENDBRANCH   2   4
TORSDOF 1
ENDMDL
MODEL 8
REMARK VINA RESULT:      -2.5      1.784      2.597
REMARK  Name = 
REMARK  1 active torsions:
REMARK  status: ('A' for Active; 'I' for Inactive)
REMARK    1  A    between atoms: C_2  and  C_4
REMARK                            x       y       z     vdW  Elec       q    Type
REMARK                         _______ _______ _______ _____ _____    ______ ____
ROOT
ATOM      1  C   UNL     1       7.372   5.721  -9.476  0.00  0.00    +0.038 C 
ATOM      2  C   UNL     1       6.875   5.783 -11.081  0.00  0.00    +0.185 C 
ATOM      3  O   UNL     1       8.336   5.646 -11.572  0.00  0.00    -0.220 OA
ENDROOT
BRANCH   2   4
ATOM      4  C   UNL     1       6.995   7.459 -11.083  0.00  0.00    +0.215 C 
ATOM      5  O   UNL     1       5.671   7.876 -11.054  0.00  0.00    -0.218 OA
ENDBRANCH   2   4
TORSDOF 1
ENDMDL
MODEL 9
REMARK VINA RESULT:      -2.5      6.024      6.924
REMARK  Name = 
REMARK  1 active torsions:
REMARK  status: ('A' for Active; 'I' for Inactive)
REMARK    1  A    between atoms: C_2  and  C_4
REMARK                            x       y       z     vdW  Elec       q    Type
REMARK                         _______ _______ _______ _____ _____    ______ ____
ROOT
ATOM      1  C   UNL     1       3.364   6.442  -8.185  0.00  0.00    +0.038 C 
ATOM      2  C   UNL     1       1.776   6.885  -7.857  0.00  0.00    +0.185 C 
ATOM      3  O   UNL     1       2.152   8.385  -7.896  0.00  0.00    -0.220 OA
ENDROOT
BRANCH   2   4
ATOM      4  C   UNL     1       2.068   6.820  -6.203  0.00  0.00    +0.215 C 
ATOM      5  O   UNL     1       3.304   7.438  -6.071  0.00  0.00    -0.218 OA
ENDBRANCH   2   4
TORSDOF 1
ENDMDL
