MODEL 1
REMARK VINA RESULT:      -8.7      0.000      0.000
REMARK  Name = 
REMARK  5 active torsions:
REMARK  status: ('A' for Active; 'I' for Inactive)
REMARK    1  A    between atoms: C_6  and  O_7
REMARK    2  A    between atoms: O_7  and  C_8
REMARK    3  A    between atoms: C_8  and  C_10
REMARK    4  A    between atoms: C_10  and  C_12
REMARK    5  A    between atoms: C_10  and  C_17
REMARK                            x       y       z     vdW  Elec       q    Type
REMARK                         _______ _______ _______ _____ _____    ______ ____
ROOT
ATOM      1  C   UNL     1       1.140   6.162  -7.168  0.00  0.00    +0.354 C 
ATOM      2  O   UNL     1       0.732   5.978  -8.363  0.00  0.00    -0.247 OA
ENDROOT
BRANCH   1   3
ATOM      3  C   UNL     1       2.588   6.493  -7.163  0.00  0.00    +0.263 C 
ATOM      4  O   UNL     1       2.515   7.904  -7.268  0.00  0.00    -0.204 OA
BRANCH   3   5
ATOM      5  C   UNL     1       3.375   6.075  -8.311  0.00  0.00    +0.049 A 
ATOM      6  S   UNL     1       3.726   4.600  -9.085  0.00  0.00    -0.088 S 
ATOM      7  C   UNL     1       4.090   5.154 -10.679  0.00  0.00    +0.035 A 
ATOM      8  C   UNL     1       4.476   6.448 -10.284  0.00  0.00    +0.007 A 
ATOM      9  C   UNL     1       3.626   6.959  -9.354  0.00  0.00    +0.006 A 
ENDBRANCH   3   5
BRANCH   3  10
ATOM     10  C   UNL     1       3.227   6.204  -5.840  0.00  0.00    +0.049 A 
ATOM     11  S   UNL     1       3.523   4.863  -4.873  0.00  0.00    -0.088 S 
ATOM     12  C   UNL     1       4.793   5.456  -3.872  0.00  0.00    +0.035 A 
ATOM     13  C   UNL     1       4.601   6.807  -4.085  0.00  0.00    +0.007 A 
ATOM     14  C   UNL     1       4.031   7.137  -5.230  0.00  0.00    +0.006 A 
ENDBRANCH   3  10
ENDBRANCH   1   3
BRANCH   1  15
ATOM     15  O   UNL     1       0.147   6.596  -6.315  0.00  0.00    -0.450 OA
BRANCH  15  23
ATOM     16  C   UNL     1      -1.512   8.337  -4.577  0.00  0.00    +0.170 C 
ATOM     17  N   UNL     1      -1.619   7.529  -3.544  0.00  0.00    +0.302 N 
ATOM     18  C   UNL     1      -1.578   6.016  -3.835  0.00  0.00    +0.093 C 
ATOM     19  C   UNL     1      -1.992   5.628  -2.213  0.00  0.00    +0.197 C 
ATOM     20  C   UNL     1      -3.370   5.928  -3.189  0.00  0.00    +0.197 C 
ATOM     21  O   UNL     1      -2.796   4.364  -2.963  0.00  0.00    -0.342 OA
ATOM     22  C   UNL     1      -0.043   5.842  -4.088  0.00  0.00    +0.101 C 
ATOM     23  C   UNL     1      -0.692   5.520  -5.624  0.00  0.00    +0.181 C 
ATOM     24  C   UNL     1      -2.162   6.370  -5.574  0.00  0.00    +0.101 C 
ATOM     25  C   UNL     1      -1.897   6.084  -4.058  0.00  0.00    +0.093 C 
ATOM     26  C   UNL     1      -2.428   7.804  -2.463  0.00  0.00    +0.170 C 
ENDBRANCH  15  23
ENDBRANCH   1  15
TORSDOF 5
ENDMDL
MODEL 2
REMARK VINA RESULT:      -8.5      1.094      3.407
REMARK  Name = 
REMARK  5 active torsions:
REMARK  status: ('A' for Active; 'I' for Inactive)
REMARK    1  A    between atoms: C_6  and  O_7
REMARK    2  A    between atoms: O_7  and  C_8
REMARK    3  A    between atoms: C_8  and  C_10
REMARK    4  A    between atoms: C_10  and  C_12
REMARK    5  A    between atoms: C_10  and  C_17
REMARK                            x       y       z     vdW  Elec       q    Type
REMARK                         _______ _______ _______ _____ _____    ______ ____
ROOT
ATOM      1  C   UNL     1       0.925   5.607  -7.348  0.00  0.00    +0.354 C 
ATOM      2  O   UNL     1       0.577   5.989  -8.515  0.00  0.00    -0.247 OA
ENDROOT
BRANCH   1   3
ATOM      3  C   UNL     1       2.363   5.237  -7.335  0.00  0.00    +0.263 C 
ATOM      4  O   UNL     1       2.252   3.825  -7.338  0.00  0.00    -0.204 OA
BRANCH   3   5
ATOM      5  C   UNL     1       3.124   5.547  -6.136  0.00  0.00    +0.049 A 
ATOM      6  S   UNL     1       3.517   6.955  -5.263  0.00  0.00    -0.088 S 
ATOM      7  C   UNL     1       3.788   6.292  -3.693  0.00  0.00    +0.035 A 
ATOM      8  C   UNL     1       4.124   5.005  -4.149  0.00  0.00    +0.007 A 
ATOM      9  C   UNL     1       3.287   4.593  -5.138  0.00  0.00    +0.006 A 
ENDBRANCH   3   5
BRANCH   3  10
ATOM     10  C   UNL     1       3.051   5.606  -8.613  0.00  0.00    +0.049 A 
ATOM     11  S   UNL     1       3.467   7.010  -9.436  0.00  0.00    -0.088 S 
ATOM     12  C   UNL     1       4.712   6.425 -10.472  0.00  0.00    +0.035 A 
ATOM     13  C   UNL     1       4.415   5.078 -10.399  0.00  0.00    +0.007 A 
ATOM     14  C   UNL     1       3.797   4.680  -9.302  0.00  0.00    +0.006 A 
ENDBRANCH   3  10
ENDBRANCH   1   3
BRANCH   1  15
ATOM     15  O   UNL     1       0.162   6.164  -6.344  0.00  0.00    -0.450 OA
BRANCH  15  23
ATOM     16  C   UNL     1      -1.325   8.168  -4.738  0.00  0.00    +0.170 C 
ATOM     17  N   UNL     1      -1.486   7.455  -3.644  0.00  0.00    +0.302 N 
ATOM     18  C   UNL     1      -1.574   5.925  -3.814  0.00  0.00    +0.093 C 
ATOM     19  C   UNL     1      -1.999   5.701  -2.165  0.00  0.00    +0.197 C 
ATOM     20  C   UNL     1      -3.359   6.038  -3.153  0.00  0.00    +0.197 C 
ATOM     21  O   UNL     1      -2.914   4.454  -2.808  0.00  0.00    -0.342 OA
ATOM     22  C   UNL     1      -0.062   5.604  -4.063  0.00  0.00    +0.101 C 
ATOM     23  C   UNL     1      -0.755   5.219  -5.564  0.00  0.00    +0.181 C 
ATOM     24  C   UNL     1      -2.148   6.191  -5.573  0.00  0.00    +0.101 C 
ATOM     25  C   UNL     1      -1.889   6.003  -4.040  0.00  0.00    +0.093 C 
ATOM     26  C   UNL     1      -2.256   7.880  -2.583  0.00  0.00    +0.170 C 
ENDBRANCH  15  23
ENDBRANCH   1  15
TORSDOF 5
ENDMDL
MODEL 3
REMARK VINA RESULT:      -8.5      3.646      5.463
REMARK  Name = 
REMARK  5 active torsions:
REMARK  status: ('A' for Active; 'I' for Inactive)
REMARK    1  A    between atoms: C_6  and  O_7
REMARK    2  A    between atoms: O_7  and  C_8
REMARK    3  A    between atoms: C_8  and  C_10
REMARK    4  A    between atoms: C_10  and  C_12
REMARK    5  A    between atoms: C_10  and  C_17
REMARK                            x       y       z     vdW  Elec       q    Type
REMARK                         _______ _______ _______ _____ _____    ______ ____
ROOT
ATOM      1  C   UNL     1       2.920   6.270  -7.974  0.00  0.00    +0.354 C 
ATOM      2  O   UNL     1       2.835   7.523  -8.200  0.00  0.00    -0.247 OA
ENDROOT
BRANCH   1   3
ATOM      3  C   UNL     1       3.322   5.548  -9.209  0.00  0.00    +0.263 C 
ATOM      4  O   UNL     1       3.446   4.235  -8.694  0.00  0.00    -0.204 OA
BRANCH   3   5
ATOM      5  C   UNL     1       4.627   5.853  -9.769  0.00  0.00    +0.049 A 
ATOM      6  S   UNL     1       5.257   7.003 -10.855  0.00  0.00    -0.088 S 
ATOM      7  C   UNL     1       6.906   7.053 -10.348  0.00  0.00    +0.035 A 
ATOM      8  C   UNL     1       6.915   5.758  -9.800  0.00  0.00    +0.007 A 
ATOM      9  C   UNL     1       5.787   5.512  -9.082  0.00  0.00    +0.006 A 
ENDBRANCH   3   5
BRANCH   3  10
ATOM     10  C   UNL     1       2.215   5.500 -10.217  0.00  0.00    +0.049 A 
ATOM     11  S   UNL     1       1.975   5.953 -11.816  0.00  0.00    -0.088 S 
ATOM     12  C   UNL     1       0.624   4.970 -12.235  0.00  0.00    +0.035 A 
ATOM     13  C   UNL     1       0.192   4.671 -10.958  0.00  0.00    +0.007 A 
ATOM     14  C   UNL     1       1.113   4.704 -10.012  0.00  0.00    +0.006 A 
ENDBRANCH   3  10
ENDBRANCH   1   3
BRANCH   1  15
ATOM     15  O   UNL     1       3.218   5.974  -6.660  0.00  0.00    -0.450 OA
BRANCH  15  23
ATOM     16  C   UNL     1       4.278   4.517  -4.302  0.00  0.00    +0.170 C 
ATOM     17  N   UNL     1       3.740   5.262  -3.360  0.00  0.00    +0.302 N 
ATOM     18  C   UNL     1       3.502   6.748  -3.696  0.00  0.00    +0.093 C 
ATOM     19  C   UNL     1       3.064   7.111  -2.075  0.00  0.00    +0.197 C 
ATOM     20  C   UNL     1       4.760   7.173  -2.327  0.00  0.00    +0.197 C 
ATOM     21  O   UNL     1       3.818   8.561  -2.438  0.00  0.00    -0.342 OA
ATOM     22  C   UNL     1       2.238   6.608  -4.610  0.00  0.00    +0.101 C 
ATOM     23  C   UNL     1       3.410   7.157  -5.710  0.00  0.00    +0.181 C 
ATOM     24  C   UNL     1       4.853   6.637  -4.982  0.00  0.00    +0.101 C 
ATOM     25  C   UNL     1       3.893   6.763  -3.752  0.00  0.00    +0.093 C 
ATOM     26  C   UNL     1       4.029   5.097  -2.022  0.00  0.00    +0.170 C 
ENDBRANCH  15  23
ENDBRANCH   1  15
TORSDOF 5
ENDMDL
MODEL 4
REMARK VINA RESULT:      -8.3      3.058      7.652
REMARK  Name = 
REMARK  5 active torsions:
REMARK  status: ('A' for Active; 'I' for Inactive)
REMARK    1  A    between atoms: C_6  and  O_7
REMARK    2  A    between atoms: O_7  and  C_8
REMARK    3  A    between atoms: C_8  and  C_10
REMARK    4  A    between atoms: C_10  and  C_12
REMARK    5  A    between atoms: C_10  and  C_17
REMARK                            x       y       z     vdW  Elec       q    Type
REMARK                         _______ _______ _______ _____ _____    ______ ____
ROOT
ATOM      1  C   UNL     1       2.268   6.494  -8.158  0.00  0.00    +0.354 C 
ATOM      2  O   UNL     1       1.352   7.230  -8.655  0.00  0.00    -0.247 OA
ENDROOT
BRANCH   1   3
ATOM      3  C   UNL     1       1.778   5.823  -6.926  0.00  0.00    +0.263 C 
ATOM      4  O   UNL     1       1.821   4.473  -7.350  0.00  0.00    -0.204 OA
BRANCH   3   5
ATOM      5  C   UNL     1       0.394   6.049  -6.545  0.00  0.00    +0.049 A 
ATOM      6  S   UNL     1      -1.101   5.298  -6.857  0.00  0.00    -0.088 S 
ATOM      7  C   UNL     1      -2.000   5.784  -5.467  0.00  0.00    +0.035 A 
ATOM      8  C   UNL     1      -1.245   6.945  -5.220  0.00  0.00    +0.007 A 
ATOM      9  C   UNL     1       0.088   6.712  -5.362  0.00  0.00    +0.006 A 
ENDBRANCH   3   5
BRANCH   3  10
ATOM     10  C   UNL     1       2.755   5.939  -5.797  0.00  0.00    +0.049 A 
ATOM     11  S   UNL     1       3.446   4.927  -4.647  0.00  0.00    -0.088 S 
ATOM     12  C   UNL     1       4.840   5.837  -4.206  0.00  0.00    +0.035 A 
ATOM     13  C   UNL     1       4.433   7.068  -4.684  0.00  0.00    +0.007 A 
ATOM     14  C   UNL     1       3.562   7.045  -5.676  0.00  0.00    +0.006 A 
ENDBRANCH   3  10
ENDBRANCH   1   3
BRANCH   1  15
ATOM     15  O   UNL     1       3.166   6.034  -9.098  0.00  0.00    -0.450 OA
BRANCH  15  23
ATOM     16  C   UNL     1       3.939   5.664 -11.939  0.00  0.00    +0.170 C 
ATOM     17  N   UNL     1       5.216   5.406 -11.757  0.00  0.00    +0.302 N 
ATOM     18  C   UNL     1       5.890   6.048 -10.528  0.00  0.00    +0.093 C 
ATOM     19  C   UNL     1       7.449   5.534 -11.033  0.00  0.00    +0.197 C 
ATOM     20  C   UNL     1       6.988   7.025 -11.744  0.00  0.00    +0.197 C 
ATOM     21  O   UNL     1       7.904   6.987 -10.335  0.00  0.00    -0.342 OA
ATOM     22  C   UNL     1       5.319   5.120  -9.405  0.00  0.00    +0.101 C 
ATOM     23  C   UNL     1       4.584   6.606  -9.041  0.00  0.00    +0.181 C 
ATOM     24  C   UNL     1       4.580   7.381 -10.552  0.00  0.00    +0.101 C 
ATOM     25  C   UNL     1       5.786   6.393 -10.693  0.00  0.00    +0.093 C 
ATOM     26  C   UNL     1       6.108   5.280 -12.801  0.00  0.00    +0.170 C 
ENDBRANCH  15  23
ENDBRANCH   1  15
TORSDOF 5
ENDMDL
MODEL 5
REMARK VINA RESULT:      -8.3      6.625      9.776
REMARK  Name = 
REMARK  5 active torsions:
REMARK  status: ('A' for Active; 'I' for Inactive)
REMARK    1  A    between atoms: C_6  and  O_7
REMARK    2  A    between atoms: O_7  and  C_8
REMARK    3  A    between atoms: C_8  and  C_10
REMARK    4  A    between atoms: C_10  and  C_12
REMARK    5  A    between atoms: C_10  and  C_17
REMARK                            x       y       z     vdW  Elec       q    Type
REMARK                         _______ _______ _______ _____ _____    ______ ____
ROOT
ATOM      1  C   UNL     1       2.539   5.458 -14.225  0.00  0.00    +0.354 C 
ATOM      2  O   UNL     1       2.636   4.218 -14.512  0.00  0.00    -0.247 OA
ENDROOT
BRANCH   1   3
ATOM      3  C   UNL     1       1.125   5.902 -14.331  0.00  0.00    +0.263 C 
ATOM      4  O   UNL     1       0.544   4.735 -14.886  0.00  0.00    -0.204 OA
BRANCH   3   5
ATOM      5  C   UNL     1       0.823   6.957 -15.283  0.00  0.00    +0.049 A 
ATOM      6  S   UNL     1       1.713   8.135 -16.131  0.00  0.00    -0.088 S 
ATOM      7  C   UNL     1       0.683   8.399 -17.490  0.00  0.00    +0.035 A 
ATOM      8  C   UNL     1      -0.497   7.993 -16.841  0.00  0.00    +0.007 A 
ATOM      9  C   UNL     1      -0.298   6.870 -16.101  0.00  0.00    +0.006 A 
ENDBRANCH   3   5
BRANCH   3  10
ATOM     10  C   UNL     1       0.491   6.086 -12.987  0.00  0.00    +0.049 A 
ATOM     11  S   UNL     1       0.289   5.192 -11.579  0.00  0.00    -0.088 S 
ATOM     12  C   UNL     1      -0.032   6.443 -10.441  0.00  0.00    +0.035 A 
ATOM     13  C   UNL     1      -0.380   7.439 -11.332  0.00  0.00    +0.007 A 
ATOM     14  C   UNL     1       0.135   7.337 -12.544  0.00  0.00    +0.006 A 
ENDBRANCH   3  10
ENDBRANCH   1   3
BRANCH   1  15
ATOM     15  O   UNL     1       3.525   5.896 -13.367  0.00  0.00    -0.450 OA
BRANCH  15  23
ATOM     16  C   UNL     1       4.891   7.305 -11.140  0.00  0.00    +0.170 C 
ATOM     17  N   UNL     1       6.129   7.180 -11.567  0.00  0.00    +0.302 N 
ATOM     18  C   UNL     1       6.452   5.937 -12.420  0.00  0.00    +0.093 C 
ATOM     19  C   UNL     1       8.135   6.279 -12.397  0.00  0.00    +0.197 C 
ATOM     20  C   UNL     1       7.628   5.387 -11.023  0.00  0.00    +0.197 C 
ATOM     21  O   UNL     1       8.241   4.607 -12.380  0.00  0.00    -0.342 OA
ATOM     22  C   UNL     1       5.799   6.374 -13.773  0.00  0.00    +0.101 C 
ATOM     23  C   UNL     1       4.812   5.072 -13.311  0.00  0.00    +0.181 C 
ATOM     24  C   UNL     1       5.006   5.060 -11.624  0.00  0.00    +0.101 C 
ATOM     25  C   UNL     1       6.337   5.731 -12.102  0.00  0.00    +0.093 C 
ATOM     26  C   UNL     1       7.219   7.560 -10.814  0.00  0.00    +0.170 C 
ENDBRANCH  15  23
ENDBRANCH   1  15
TORSDOF 5
ENDMDL
MODEL 6
REMARK VINA RESULT:      -8.3      1.414      3.702
REMARK  Name = 
REMARK  5 active torsions:
REMARK  status: ('A' for Active; 'I' for Inactive)
REMARK    1  A    between atoms: C_6  and  O_7
REMARK    2  A    between atoms: O_7  and  C_8
REMARK    3  A    between atoms: C_8  and  C_10
REMARK    4  A    between atoms: C_10  and  C_12
REMARK    5  A    between atoms: C_10  and  C_17
REMARK                            x       y       z     vdW  Elec       q    Type
REMARK                         _______ _______ _______ _____ _____    ______ ____
ROOT
ATOM      1  C   UNL     1       1.786   6.757  -7.053  0.00  0.00    +0.354 C 
ATOM      2  O   UNL     1       2.173   7.962  -7.217  0.00  0.00    -0.247 OA
ENDROOT
BRANCH   1   3
ATOM      3  C   UNL     1       2.956   5.843  -6.994  0.00  0.00    +0.263 C 
ATOM      4  O   UNL     1       2.288   4.595  -6.948  0.00  0.00    -0.204 OA
BRANCH   3   5
ATOM      5  C   UNL     1       3.770   5.874  -5.792  0.00  0.00    +0.049 A 
ATOM      6  S   UNL     1       4.439   7.081  -4.794  0.00  0.00    -0.088 S 
ATOM      7  C   UNL     1       4.585   6.221  -3.305  0.00  0.00    +0.035 A 
ATOM      8  C   UNL     1       4.658   4.946  -3.896  0.00  0.00    +0.007 A 
ATOM      9  C   UNL     1       3.750   4.809  -4.899  0.00  0.00    +0.006 A 
ENDBRANCH   3   5
BRANCH   3  10
ATOM     10  C   UNL     1       3.740   5.851  -8.270  0.00  0.00    +0.049 A 
ATOM     11  S   UNL     1       3.561   6.442  -9.832  0.00  0.00    -0.088 S 
ATOM     12  C   UNL     1       5.198   6.460 -10.365  0.00  0.00    +0.035 A 
ATOM     13  C   UNL     1       5.723   5.596  -9.424  0.00  0.00    +0.007 A 
ATOM     14  C   UNL     1       5.077   5.529  -8.275  0.00  0.00    +0.006 A 
ENDBRANCH   3  10
ENDBRANCH   1   3
BRANCH   1  15
ATOM     15  O   UNL     1       0.574   6.658  -6.403  0.00  0.00    -0.450 OA
BRANCH  15  23
ATOM     16  C   UNL     1      -1.811   5.046  -5.680  0.00  0.00    +0.170 C 
ATOM     17  N   UNL     1      -2.245   5.784  -4.681  0.00  0.00    +0.302 N 
ATOM     18  C   UNL     1      -1.185   6.567  -3.880  0.00  0.00    +0.093 C 
ATOM     19  C   UNL     1      -2.338   7.045  -2.699  0.00  0.00    +0.197 C 
ATOM     20  C   UNL     1      -1.662   5.504  -2.371  0.00  0.00    +0.197 C 
ATOM     21  O   UNL     1      -1.017   6.894  -1.681  0.00  0.00    -0.342 OA
ATOM     22  C   UNL     1      -0.895   7.724  -4.895  0.00  0.00    +0.101 C 
ATOM     23  C   UNL     1       0.580   6.881  -4.889  0.00  0.00    +0.181 C 
ATOM     24  C   UNL     1       0.096   5.320  -4.425  0.00  0.00    +0.101 C 
ATOM     25  C   UNL     1      -1.030   6.211  -3.802  0.00  0.00    +0.093 C 
ATOM     26  C   UNL     1      -3.295   5.404  -3.874  0.00  0.00    +0.170 C 
ENDBRANCH  15  23
ENDBRANCH   1  15
TORSDOF 5
ENDMDL
MODEL 7
REMARK VINA RESULT:      -8.2      3.751      8.698
REMARK  Name = 
REMARK  5 active torsions:
REMARK  status: ('A' for Active; 'I' for Inactive)
REMARK    1  A    between atoms: C_6  and  O_7
REMARK    2  A    between atoms: O_7  and  C_8
REMARK    3  A    between atoms: C_8  and  C_10
REMARK    4  A    between atoms: C_10  and  C_12
REMARK    5  A    between atoms: C_10  and  C_17
REMARK                            x       y       z     vdW  Elec       q    Type
REMARK                         _______ _______ _______ _____ _____    ______ ____
ROOT
ATOM      1  C   UNL     1       3.429   6.023  -8.437  0.00  0.00    +0.354 C 
ATOM      2  O   UNL     1       3.987   5.902  -7.295  0.00  0.00    -0.247 OA
ENDROOT
BRANCH   1   3
ATOM      3  C   UNL     1       1.982   6.319  -8.274  0.00  0.00    +0.263 C 
ATOM      4  O   UNL     1       2.030   7.733  -8.201  0.00  0.00    -0.204 OA
BRANCH   3   5
ATOM      5  C   UNL     1       1.348   5.904  -7.035  0.00  0.00    +0.049 A 
ATOM      6  S   UNL     1       1.330   4.496  -6.078  0.00  0.00    -0.088 S 
ATOM      7  C   UNL     1       0.941   5.162  -4.535  0.00  0.00    +0.035 A 
ATOM      8  C   UNL     1       0.290   6.301  -5.043  0.00  0.00    +0.007 A 
ATOM      9  C   UNL     1       0.978   6.846  -6.082  0.00  0.00    +0.006 A 
ENDBRANCH   3   5
BRANCH   3  10
ATOM     10  C   UNL     1       1.199   5.991  -9.508  0.00  0.00    +0.049 A 
ATOM     11  S   UNL     1       0.559   6.813 -10.826  0.00  0.00    -0.088 S 
ATOM     12  C   UNL     1       0.365   5.525 -11.952  0.00  0.00    +0.035 A 
ATOM     13  C   UNL     1       0.418   4.471 -11.061  0.00  0.00    +0.007 A 
ATOM     14  C   UNL     1       1.085   4.692  -9.942  0.00  0.00    +0.006 A 
ENDBRANCH   3  10
ENDBRANCH   1   3
BRANCH   1  15
ATOM     15  O   UNL     1       4.296   6.443  -9.424  0.00  0.00    -0.450 OA
BRANCH  15  23
ATOM     16  C   UNL     1       5.842   8.186 -11.262  0.00  0.00    +0.170 C 
ATOM     17  N   UNL     1       6.102   7.296 -12.195  0.00  0.00    +0.302 N 
ATOM     18  C   UNL     1       6.218   5.825 -11.745  0.00  0.00    +0.093 C 
ATOM     19  C   UNL     1       6.768   5.327 -13.294  0.00  0.00    +0.197 C 
ATOM     20  C   UNL     1       8.043   5.889 -12.294  0.00  0.00    +0.197 C 
ATOM     21  O   UNL     1       7.667   4.253 -12.376  0.00  0.00    -0.342 OA
ATOM     22  C   UNL     1       4.701   5.494 -11.545  0.00  0.00    +0.101 C 
ATOM     23  C   UNL     1       5.292   5.411  -9.956  0.00  0.00    +0.181 C 
ATOM     24  C   UNL     1       6.654   6.423 -10.029  0.00  0.00    +0.101 C 
ATOM     25  C   UNL     1       6.514   5.955 -11.516  0.00  0.00    +0.093 C 
ATOM     26  C   UNL     1       6.936   7.554 -13.261  0.00  0.00    +0.170 C 
ENDBRANCH  15  23
ENDBRANCH   1  15
TORSDOF 5
ENDMDL
MODEL 8
REMARK VINA RESULT:      -8.2      3.033      7.478
REMARK  Name = 
REMARK  5 active torsions:
REMARK  status: ('A' for Active; 'I' for Inactive)
REMARK    1  A    between atoms: C_6  and  O_7
REMARK    2  A    between atoms: O_7  and  C_8
REMARK    3  A    between atoms: C_8  and  C_10
REMARK    4  A    between atoms: C_10  and  C_12
REMARK    5  A    between atoms: C_10  and  C_17
REMARK                            x       y       z     vdW  Elec       q    Type
REMARK                         _______ _______ _______ _____ _____    ______ ____
ROOT
ATOM      1  C   UNL     1       2.034   5.256  -7.273  0.00  0.00    +0.354 C 
ATOM      2  O   UNL     1       2.453   4.204  -6.684  0.00  0.00    -0.247 OA
ENDROOT
BRANCH   1   3
ATOM      3  C   UNL     1       1.604   6.268  -6.275  0.00  0.00    +0.263 C 
ATOM      4  O   UNL     1       1.693   7.441  -7.064  0.00  0.00    -0.204 OA
BRANCH   3   5
ATOM      5  C   UNL     1       2.485   6.513  -5.146  0.00  0.00    +0.049 A 
ATOM      6  S   UNL     1       2.768   5.787  -3.632  0.00  0.00    -0.088 S 
ATOM      7  C   UNL     1       4.397   6.279  -3.341  0.00  0.00    +0.035 A 
ATOM      8  C   UNL     1       4.334   7.427  -4.152  0.00  0.00    +0.007 A 
ATOM      9  C   UNL     1       3.695   7.174  -5.325  0.00  0.00    +0.006 A 
ENDBRANCH   3   5
BRANCH   3  10
ATOM     10  C   UNL     1       0.160   6.119  -5.909  0.00  0.00    +0.049 A 
ATOM     11  S   UNL     1      -0.889   6.707  -4.736  0.00  0.00    -0.088 S 
ATOM     12  C   UNL     1      -2.412   6.431  -5.491  0.00  0.00    +0.035 A 
ATOM     13  C   UNL     1      -2.004   5.504  -6.430  0.00  0.00    +0.007 A 
ATOM     14  C   UNL     1      -0.736   5.569  -6.795  0.00  0.00    +0.006 A 
ENDBRANCH   3  10
ENDBRANCH   1   3
BRANCH   1  15
ATOM     15  O   UNL     1       2.605   5.447  -8.514  0.00  0.00    -0.450 OA
BRANCH  15  23
ATOM     16  C   UNL     1       2.865   5.927 -11.431  0.00  0.00    +0.170 C 
ATOM     17  N   UNL     1       4.144   5.646 -11.557  0.00  0.00    +0.302 N 
ATOM     18  C   UNL     1       5.042   5.915 -10.333  0.00  0.00    +0.093 C 
ATOM     19  C   UNL     1       6.471   5.591 -11.229  0.00  0.00    +0.197 C 
ATOM     20  C   UNL     1       5.950   7.217 -11.389  0.00  0.00    +0.197 C 
ATOM     21  O   UNL     1       7.092   6.786 -10.233  0.00  0.00    -0.342 OA
ATOM     22  C   UNL     1       4.638   4.692  -9.442  0.00  0.00    +0.101 C 
ATOM     23  C   UNL     1       4.031   5.999  -8.543  0.00  0.00    +0.181 C 
ATOM     24  C   UNL     1       3.798   7.178  -9.743  0.00  0.00    +0.101 C 
ATOM     25  C   UNL     1       4.924   6.290 -10.371  0.00  0.00    +0.093 C 
ATOM     26  C   UNL     1       4.838   5.841 -12.732  0.00  0.00    +0.170 C 
ENDBRANCH  15  23
ENDBRANCH   1  15
TORSDOF 5
ENDMDL
MODEL 9
REMARK VINA RESULT:      -8.1      1.629      2.197
REMARK  Name = 
REMARK  5 active torsions:
REMARK  status: ('A' for Active; 'I' for Inactive)
REMARK    1  A    between atoms: C_6  and  O_7
REMARK    2  A    between atoms: O_7  and  C_8
REMARK    3  A    between atoms: C_8  and  C_10
REMARK    4  A    between atoms: C_10  and  C_12
REMARK    5  A    between atoms: C_10  and  C_17
REMARK                            x       y       z     vdW  Elec       q    Type
REMARK                         _______ _______ _______ _____ _____    ______ ____
ROOT
ATOM      1  C   UNL     1       2.191   5.209  -7.600  0.00  0.00    +0.354 C 
ATOM      2  O   UNL     1       1.785   5.125  -8.807  0.00  0.00    -0.247 OA
ENDROOT
BRANCH   1   3
ATOM      3  C   UNL     1       3.421   6.038  -7.527  0.00  0.00    +0.263 C 
ATOM      4  O   UNL     1       2.862   7.322  -7.741  0.00  0.00    -0.204 OA
BRANCH   3   5
ATOM      5  C   UNL     1       4.402   5.878  -8.587  0.00  0.00    +0.049 A 
ATOM      6  S   UNL     1       4.635   6.516 -10.148  0.00  0.00    -0.088 S 
ATOM      7  C   UNL     1       6.342   6.332 -10.318  0.00  0.00    +0.035 A 
ATOM      8  C   UNL     1       6.452   5.268  -9.405  0.00  0.00    +0.007 A 
ATOM      9  C   UNL     1       5.703   5.487  -8.291  0.00  0.00    +0.006 A 
ENDBRANCH   3   5
BRANCH   3  10
ATOM     10  C   UNL     1       4.003   6.060  -6.147  0.00  0.00    +0.049 A 
ATOM     11  S   UNL     1       4.371   7.206  -4.975  0.00  0.00    -0.088 S 
ATOM     12  C   UNL     1       4.440   6.221  -3.565  0.00  0.00    +0.035 A 
ATOM     13  C   UNL     1       4.591   4.996  -4.184  0.00  0.00    +0.007 A 
ATOM     14  C   UNL     1       4.109   4.904  -5.411  0.00  0.00    +0.006 A 
ENDBRANCH   3  10
ENDBRANCH   1   3
BRANCH   1  15
ATOM     15  O   UNL     1       1.177   5.075  -6.675  0.00  0.00    -0.450 OA
BRANCH  15  23
ATOM     16  C   UNL     1       0.574   5.288  -3.776  0.00  0.00    +0.170 C 
ATOM     17  N   UNL     1      -0.725   5.477  -3.866  0.00  0.00    +0.302 N 
ATOM     18  C   UNL     1      -1.242   6.187  -5.133  0.00  0.00    +0.093 C 
ATOM     19  C   UNL     1      -2.833   6.306  -4.496  0.00  0.00    +0.197 C 
ATOM     20  C   UNL     1      -1.828   7.604  -3.998  0.00  0.00    +0.197 C 
ATOM     21  O   UNL     1      -2.820   7.747  -5.348  0.00  0.00    -0.342 OA
ATOM     22  C   UNL     1      -1.123   5.010  -6.157  0.00  0.00    +0.101 C 
ATOM     23  C   UNL     1       0.043   6.100  -6.737  0.00  0.00    +0.181 C 
ATOM     24  C   UNL     1       0.443   6.972  -5.336  0.00  0.00    +0.101 C 
ATOM     25  C   UNL     1      -1.012   6.488  -5.017  0.00  0.00    +0.093 C 
ATOM     26  C   UNL     1      -1.511   5.777  -2.774  0.00  0.00    +0.170 C 
ENDBRANCH  15  23
ENDBRANCH   1  15
TORSDOF 5
ENDMDL
