MODEL 1
REMARK VINA RESULT:      -6.4      0.000      0.000
REMARK  Name = 
REMARK  6 active torsions:
REMARK  status: ('A' for Active; 'I' for Inactive)
REMARK    1  A    between atoms: C_2  and  N_4
REMARK    2  A    between atoms: N_4  and  C_5
REMARK    3  A    between atoms: C_5  and  C_6
REMARK    4  A    between atoms: C_6  and  C_8
REMARK    5  A    between atoms: C_8  and  O_9
REMARK    6  A    between atoms: O_9  and  C_10
REMARK                            x       y       z     vdW  Elec       q    Type
REMARK                         _______ _______ _______ _____ _____    ______ ____
ROOT
ATOM      1  C   UNL     1      -0.078   5.351  -4.418  0.00  0.00    +0.139 A 
ATOM      2  C   UNL     1       0.226   5.092  -5.733  0.00  0.00    +0.034 A 
ATOM      3  C   UNL     1      -0.634   5.444  -6.768  0.00  0.00    +0.003 A 
ATOM      4  C   UNL     1      -0.160   5.466  -8.067  0.00  0.00    +0.000 A 
ATOM      5  C   UNL     1       1.164   5.194  -8.307  0.00  0.00    +0.000 A 
ATOM      6  C   UNL     1       1.908   4.559  -7.336  0.00  0.00    +0.000 A 
ATOM      7  C   UNL     1      -1.943   5.761  -6.437  0.00  0.00    +0.000 A 
ATOM      8  C   UNL     1      -2.352   5.757  -5.109  0.00  0.00    +0.003 A 
ATOM      9  C   UNL     1       1.325   4.367  -6.110  0.00  0.00    +0.003 A 
ATOM     10  C   UNL     1      -1.407   5.626  -4.110  0.00  0.00    +0.037 A 
ENDROOT
BRANCH   1  11
ATOM     11  O   UNL     1       0.946   5.425  -3.514  0.00  0.00    -0.473 OA
BRANCH  11  12
ATOM     12  C   UNL     1       0.851   5.267  -2.118  0.00  0.00    +0.240 C 
BRANCH  12  13
ATOM     13  C   UNL     1       2.012   6.401  -1.672  0.00  0.00    +0.213 C 
ATOM     14  O   UNL     1       2.339   5.623  -0.374  0.00  0.00    -0.218 OA
BRANCH  13  15
ATOM     15  C   UNL     1       3.218   5.610  -2.533  0.00  0.00    +0.125 C 
BRANCH  15  16
ATOM     16  N   UNL     1       4.219   6.594  -2.782  0.00  0.00    -0.217 NA
BRANCH  16  18
ATOM     17  C   UNL     1       4.598   4.895  -4.458  0.00  0.00    +0.019 C 
ATOM     18  C   UNL     1       4.672   6.386  -4.155  0.00  0.00    +0.073 C 
ATOM     19  C   UNL     1       3.743   7.063  -5.146  0.00  0.00    +0.019 C 
ENDBRANCH  16  18
ENDBRANCH  15  16
ENDBRANCH  13  15
ENDBRANCH  12  13
ENDBRANCH  11  12
ENDBRANCH   1  11
TORSDOF 6
ENDMDL
MODEL 2
REMARK VINA RESULT:      -6.4      6.289      8.912
REMARK  Name = 
REMARK  6 active torsions:
REMARK  status: ('A' for Active; 'I' for Inactive)
REMARK    1  A    between atoms: C_2  and  N_4
REMARK    2  A    between atoms: N_4  and  C_5
REMARK    3  A    between atoms: C_5  and  C_6
REMARK    4  A    between atoms: C_6  and  C_8
REMARK    5  A    between atoms: C_8  and  O_9
REMARK    6  A    between atoms: O_9  and  C_10
REMARK                            x       y       z     vdW  Elec       q    Type
REMARK                         _______ _______ _______ _____ _____    ______ ____
ROOT
ATOM      1  C   UNL     1       3.966   5.882 -10.712  0.00  0.00    +0.139 A 
ATOM      2  C   UNL     1       5.220   6.370 -10.436  0.00  0.00    +0.034 A 
ATOM      3  C   UNL     1       6.025   5.810  -9.449  0.00  0.00    +0.003 A 
ATOM      4  C   UNL     1       7.375   6.108  -9.423  0.00  0.00    +0.000 A 
ATOM      5  C   UNL     1       7.909   6.906 -10.404  0.00  0.00    +0.000 A 
ATOM      6  C   UNL     1       7.070   7.684 -11.172  0.00  0.00    +0.000 A 
ATOM      7  C   UNL     1       5.420   4.969  -8.528  0.00  0.00    +0.000 A 
ATOM      8  C   UNL     1       4.064   4.678  -8.626  0.00  0.00    +0.003 A 
ATOM      9  C   UNL     1       5.719   7.506 -11.018  0.00  0.00    +0.003 A 
ATOM     10  C   UNL     1       3.367   5.073  -9.752  0.00  0.00    +0.037 A 
ENDROOT
BRANCH   1  11
ATOM     11  O   UNL     1       3.426   6.132 -11.944  0.00  0.00    -0.473 OA
BRANCH  11  12
ATOM     12  C   UNL     1       3.624   5.381 -13.120  0.00  0.00    +0.240 C 
BRANCH  12  13
ATOM     13  C   UNL     1       2.504   6.171 -14.096  0.00  0.00    +0.213 C 
ATOM     14  O   UNL     1       1.788   4.839 -14.429  0.00  0.00    -0.218 OA
BRANCH  13  15
ATOM     15  C   UNL     1       1.481   6.476 -12.798  0.00  0.00    +0.125 C 
BRANCH  15  16
ATOM     16  N   UNL     1       0.552   5.396 -12.782  0.00  0.00    -0.217 NA
BRANCH  16  18
ATOM     17  C   UNL     1       0.042   4.355 -10.661  0.00  0.00    +0.019 C 
ATOM     18  C   UNL     1      -0.240   5.549 -11.564  0.00  0.00    +0.073 C 
ATOM     19  C   UNL     1       0.193   6.777 -10.783  0.00  0.00    +0.019 C 
ENDBRANCH  16  18
ENDBRANCH  15  16
ENDBRANCH  13  15
ENDBRANCH  12  13
ENDBRANCH  11  12
ENDBRANCH   1  11
TORSDOF 6
ENDMDL
MODEL 3
REMARK VINA RESULT:      -6.3      2.135      4.105
REMARK  Name = 
REMARK  6 active torsions:
REMARK  status: ('A' for Active; 'I' for Inactive)
REMARK    1  A    between atoms: C_2  and  N_4
REMARK    2  A    between atoms: N_4  and  C_5
REMARK    3  A    between atoms: C_5  and  C_6
REMARK    4  A    between atoms: C_6  and  C_8
REMARK    5  A    between atoms: C_8  and  O_9
REMARK    6  A    between atoms: O_9  and  C_10
REMARK                            x       y       z     vdW  Elec       q    Type
REMARK                         _______ _______ _______ _____ _____    ______ ____
ROOT
ATOM      1  C   UNL     1       0.159   5.240  -5.202  0.00  0.00    +0.139 A 
ATOM      2  C   UNL     1      -0.781   5.589  -4.263  0.00  0.00    +0.034 A 
ATOM      3  C   UNL     1      -2.141   5.607  -4.557  0.00  0.00    +0.003 A 
ATOM      4  C   UNL     1      -3.059   5.641  -3.524  0.00  0.00    +0.000 A 
ATOM      5  C   UNL     1      -2.615   5.600  -2.225  0.00  0.00    +0.000 A 
ATOM      6  C   UNL     1      -1.295   5.890  -1.954  0.00  0.00    +0.000 A 
ATOM      7  C   UNL     1      -2.509   5.590  -5.894  0.00  0.00    +0.000 A 
ATOM      8  C   UNL     1      -1.541   5.518  -6.888  0.00  0.00    +0.003 A 
ATOM      9  C   UNL     1      -0.448   6.056  -3.019  0.00  0.00    +0.003 A 
ATOM     10  C   UNL     1      -0.227   5.270  -6.538  0.00  0.00    +0.037 A 
ENDROOT
BRANCH   1  11
ATOM     11  O   UNL     1       1.377   4.789  -4.770  0.00  0.00    -0.473 OA
BRANCH  11  12
ATOM     12  C   UNL     1       2.489   4.464  -5.572  0.00  0.00    +0.240 C 
BRANCH  12  13
ATOM     13  C   UNL     1       3.524   5.682  -5.044  0.00  0.00    +0.213 C 
ATOM     14  O   UNL     1       4.547   4.645  -4.519  0.00  0.00    -0.218 OA
BRANCH  13  15
ATOM     15  C   UNL     1       4.286   5.780  -6.539  0.00  0.00    +0.125 C 
BRANCH  15  16
ATOM     16  N   UNL     1       3.278   5.480  -7.501  0.00  0.00    -0.217 NA
BRANCH  16  18
ATOM     17  C   UNL     1       2.659   6.150  -9.740  0.00  0.00    +0.019 C 
ATOM     18  C   UNL     1       3.215   6.627  -8.404  0.00  0.00    +0.073 C 
ATOM     19  C   UNL     1       2.239   7.671  -7.892  0.00  0.00    +0.019 C 
ENDBRANCH  16  18
ENDBRANCH  15  16
ENDBRANCH  13  15
ENDBRANCH  12  13
ENDBRANCH  11  12
ENDBRANCH   1  11
TORSDOF 6
ENDMDL
MODEL 4
REMARK VINA RESULT:      -6.3      3.804      5.752
REMARK  Name = 
REMARK  6 active torsions:
REMARK  status: ('A' for Active; 'I' for Inactive)
REMARK    1  A    between atoms: C_2  and  N_4
REMARK    2  A    between atoms: N_4  and  C_5
REMARK    3  A    between atoms: C_5  and  C_6
REMARK    4  A    between atoms: C_6  and  C_8
REMARK    5  A    between atoms: C_8  and  O_9
REMARK    6  A    between atoms: O_9  and  C_10
REMARK                            x       y       z     vdW  Elec       q    Type
REMARK                         _______ _______ _______ _____ _____    ______ ____
ROOT
ATOM      1  C   UNL     1       4.186   5.502  -8.457  0.00  0.00    +0.139 A 
ATOM      2  C   UNL     1       5.182   5.865  -9.330  0.00  0.00    +0.034 A 
ATOM      3  C   UNL     1       4.906   6.514 -10.530  0.00  0.00    +0.003 A 
ATOM      4  C   UNL     1       5.930   7.145 -11.212  0.00  0.00    +0.000 A 
ATOM      5  C   UNL     1       7.190   7.168 -10.668  0.00  0.00    +0.000 A 
ATOM      6  C   UNL     1       7.507   6.280  -9.663  0.00  0.00    +0.000 A 
ATOM      7  C   UNL     1       3.596   6.493 -10.984  0.00  0.00    +0.000 A 
ATOM      8  C   UNL     1       2.602   5.875 -10.235  0.00  0.00    +0.003 A 
ATOM      9  C   UNL     1       6.493   5.514  -9.147  0.00  0.00    +0.003 A 
ATOM     10  C   UNL     1       2.887   5.451  -8.951  0.00  0.00    +0.037 A 
ENDROOT
BRANCH   1  11
ATOM     11  O   UNL     1       4.510   5.312  -7.141  0.00  0.00    -0.473 OA
BRANCH  11  12
ATOM     12  C   UNL     1       3.962   5.987  -6.032  0.00  0.00    +0.240 C 
BRANCH  12  13
ATOM     13  C   UNL     1       3.519   4.637  -5.130  0.00  0.00    +0.213 C 
ATOM     14  O   UNL     1       4.078   5.267  -3.830  0.00  0.00    -0.218 OA
BRANCH  13  15
ATOM     15  C   UNL     1       1.979   5.245  -4.844  0.00  0.00    +0.125 C 
BRANCH  15  16
ATOM     16  N   UNL     1       1.142   4.644  -5.830  0.00  0.00    -0.217 NA
BRANCH  16  18
ATOM     17  C   UNL     1       0.138   6.815  -5.483  0.00  0.00    +0.019 C 
ATOM     18  C   UNL     1      -0.138   5.344  -5.768  0.00  0.00    +0.073 C 
ATOM     19  C   UNL     1      -0.848   5.303  -7.110  0.00  0.00    +0.019 C 
ENDBRANCH  16  18
ENDBRANCH  15  16
ENDBRANCH  13  15
ENDBRANCH  12  13
ENDBRANCH  11  12
ENDBRANCH   1  11
TORSDOF 6
ENDMDL
MODEL 5
REMARK VINA RESULT:      -6.1      1.902      3.463
REMARK  Name = 
REMARK  6 active torsions:
REMARK  status: ('A' for Active; 'I' for Inactive)
REMARK    1  A    between atoms: C_2  and  N_4
REMARK    2  A    between atoms: N_4  and  C_5
REMARK    3  A    between atoms: C_5  and  C_6
REMARK    4  A    between atoms: C_6  and  C_8
REMARK    5  A    between atoms: C_8  and  O_9
REMARK    6  A    between atoms: O_9  and  C_10
REMARK                            x       y       z     vdW  Elec       q    Type
REMARK                         _______ _______ _______ _____ _____    ______ ____
ROOT
ATOM      1  C   UNL     1       1.130   5.536  -4.073  0.00  0.00    +0.139 A 
ATOM      2  C   UNL     1      -0.007   5.404  -4.833  0.00  0.00    +0.034 A 
ATOM      3  C   UNL     1      -1.277   5.578  -4.291  0.00  0.00    +0.003 A 
ATOM      4  C   UNL     1      -2.356   5.760  -5.136  0.00  0.00    +0.000 A 
ATOM      5  C   UNL     1      -2.150   5.822  -6.491  0.00  0.00    +0.000 A 
ATOM      6  C   UNL     1      -0.967   5.349  -7.016  0.00  0.00    +0.000 A 
ATOM      7  C   UNL     1      -1.393   5.560  -2.910  0.00  0.00    +0.000 A 
ATOM      8  C   UNL     1      -0.265   5.410  -2.112  0.00  0.00    +0.003 A 
ATOM      9  C   UNL     1       0.017   4.979  -6.135  0.00  0.00    +0.003 A 
ATOM     10  C   UNL     1       0.988   5.473  -2.691  0.00  0.00    +0.037 A 
ENDROOT
BRANCH   1  11
ATOM     11  O   UNL     1       2.309   5.820  -4.707  0.00  0.00    -0.473 OA
BRANCH  11  12
ATOM     12  C   UNL     1       3.091   6.982  -4.553  0.00  0.00    +0.240 C 
BRANCH  12  13
ATOM     13  C   UNL     1       4.546   6.366  -5.133  0.00  0.00    +0.213 C 
ATOM     14  O   UNL     1       4.552   5.249  -4.060  0.00  0.00    -0.218 OA
BRANCH  13  15
ATOM     15  C   UNL     1       3.766   5.384  -6.251  0.00  0.00    +0.125 C 
BRANCH  15  16
ATOM     16  N   UNL     1       4.557   5.451  -7.435  0.00  0.00    -0.217 NA
BRANCH  16  18
ATOM     17  C   UNL     1       2.868   4.121  -8.540  0.00  0.00    +0.019 C 
ATOM     18  C   UNL     1       3.622   5.445  -8.558  0.00  0.00    +0.073 C 
ATOM     19  C   UNL     1       2.572   6.529  -8.400  0.00  0.00    +0.019 C 
ENDBRANCH  16  18
ENDBRANCH  15  16
ENDBRANCH  13  15
ENDBRANCH  12  13
ENDBRANCH  11  12
ENDBRANCH   1  11
TORSDOF 6
ENDMDL
MODEL 6
REMARK VINA RESULT:      -6.1      4.091      5.923
REMARK  Name = 
REMARK  6 active torsions:
REMARK  status: ('A' for Active; 'I' for Inactive)
REMARK    1  A    between atoms: C_2  and  N_4
REMARK    2  A    between atoms: N_4  and  C_5
REMARK    3  A    between atoms: C_5  and  C_6
REMARK    4  A    between atoms: C_6  and  C_8
REMARK    5  A    between atoms: C_8  and  O_9
REMARK    6  A    between atoms: O_9  and  C_10
REMARK                            x       y       z     vdW  Elec       q    Type
REMARK                         _______ _______ _______ _____ _____    ______ ____
ROOT
ATOM      1  C   UNL     1       1.906   6.705  -7.033  0.00  0.00    +0.139 A 
ATOM      2  C   UNL     1       0.724   6.209  -6.538  0.00  0.00    +0.034 A 
ATOM      3  C   UNL     1       0.382   6.332  -5.194  0.00  0.00    +0.003 A 
ATOM      4  C   UNL     1      -0.928   6.122  -4.805  0.00  0.00    +0.000 A 
ATOM      5  C   UNL     1      -1.879   5.850  -5.756  0.00  0.00    +0.000 A 
ATOM      6  C   UNL     1      -1.482   5.435  -7.009  0.00  0.00    +0.000 A 
ATOM      7  C   UNL     1       1.391   6.664  -4.303  0.00  0.00    +0.000 A 
ATOM      8  C   UNL     1       2.683   6.900  -4.759  0.00  0.00    +0.003 A 
ATOM      9  C   UNL     1      -0.140   5.461  -7.292  0.00  0.00    +0.003 A 
ATOM     10  C   UNL     1       2.914   6.991  -6.118  0.00  0.00    +0.037 A 
ENDROOT
BRANCH   1  11
ATOM     11  O   UNL     1       1.988   6.980  -8.371  0.00  0.00    -0.473 OA
BRANCH  11  12
ATOM     12  C   UNL     1       3.156   6.990  -9.159  0.00  0.00    +0.240 C 
BRANCH  12  13
ATOM     13  C   UNL     1       2.989   5.463  -9.847  0.00  0.00    +0.213 C 
ATOM     14  O   UNL     1       3.037   6.053 -11.278  0.00  0.00    -0.218 OA
BRANCH  13  15
ATOM     15  C   UNL     1       4.648   5.196  -9.828  0.00  0.00    +0.125 C 
BRANCH  15  16
ATOM     16  N   UNL     1       5.117   5.612 -11.108  0.00  0.00    -0.217 NA
BRANCH  16  18
ATOM     17  C   UNL     1       6.527   7.575 -11.104  0.00  0.00    +0.019 C 
ATOM     18  C   UNL     1       6.493   6.063 -10.918  0.00  0.00    +0.073 C 
ATOM     19  C   UNL     1       6.961   5.805  -9.498  0.00  0.00    +0.019 C 
ENDBRANCH  16  18
ENDBRANCH  15  16
ENDBRANCH  13  15
ENDBRANCH  12  13
ENDBRANCH  11  12
ENDBRANCH   1  11
TORSDOF 6
ENDMDL
MODEL 7
REMARK VINA RESULT:      -6.1      2.844      5.315
REMARK  Name = 
REMARK  6 active torsions:
REMARK  status: ('A' for Active; 'I' for Inactive)
REMARK    1  A    between atoms: C_2  and  N_4
REMARK    2  A    between atoms: N_4  and  C_5
REMARK    3  A    between atoms: C_5  and  C_6
REMARK    4  A    between atoms: C_6  and  C_8
REMARK    5  A    between atoms: C_8  and  O_9
REMARK    6  A    between atoms: O_9  and  C_10
REMARK                            x       y       z     vdW  Elec       q    Type
REMARK                         _______ _______ _______ _____ _____    ______ ____
ROOT
ATOM      1  C   UNL     1       0.577   4.904  -6.173  0.00  0.00    +0.139 A 
ATOM      2  C   UNL     1       0.341   5.297  -4.878  0.00  0.00    +0.034 A 
ATOM      3  C   UNL     1      -0.944   5.560  -4.413  0.00  0.00    +0.003 A 
ATOM      4  C   UNL     1      -1.173   5.630  -3.051  0.00  0.00    +0.000 A 
ATOM      5  C   UNL     1      -0.141   5.384  -2.180  0.00  0.00    +0.000 A 
ATOM      6  C   UNL     1       1.157   5.432  -2.641  0.00  0.00    +0.000 A 
ATOM      7  C   UNL     1      -1.944   5.740  -5.357  0.00  0.00    +0.000 A 
ATOM      8  C   UNL     1      -1.660   5.621  -6.712  0.00  0.00    +0.003 A 
ATOM      9  C   UNL     1       1.348   5.574  -3.991  0.00  0.00    +0.003 A 
ATOM     10  C   UNL     1      -0.428   5.135  -7.106  0.00  0.00    +0.037 A 
ENDROOT
BRANCH   1  11
ATOM     11  O   UNL     1       1.733   4.225  -6.448  0.00  0.00    -0.473 OA
BRANCH  11  12
ATOM     12  C   UNL     1       2.290   3.989  -7.720  0.00  0.00    +0.240 C 
BRANCH  12  13
ATOM     13  C   UNL     1       3.380   5.271  -7.741  0.00  0.00    +0.213 C 
ATOM     14  O   UNL     1       4.384   4.461  -8.599  0.00  0.00    -0.218 OA
BRANCH  13  15
ATOM     15  C   UNL     1       2.663   5.952  -9.100  0.00  0.00    +0.125 C 
BRANCH  15  16
ATOM     16  N   UNL     1       2.061   4.865  -9.799  0.00  0.00    -0.217 NA
BRANCH  16  18
ATOM     17  C   UNL     1      -0.017   4.535 -10.987  0.00  0.00    +0.019 C 
ATOM     18  C   UNL     1       1.182   5.457 -10.804  0.00  0.00    +0.073 C 
ATOM     19  C   UNL     1       0.621   6.784 -10.326  0.00  0.00    +0.019 C 
ENDBRANCH  16  18
ENDBRANCH  15  16
ENDBRANCH  13  15
ENDBRANCH  12  13
ENDBRANCH  11  12
ENDBRANCH   1  11
TORSDOF 6
ENDMDL
MODEL 8
REMARK VINA RESULT:      -6.1      1.680      3.716
REMARK  Name = 
REMARK  6 active torsions:
REMARK  status: ('A' for Active; 'I' for Inactive)
REMARK    1  A    between atoms: C_2  and  N_4
REMARK    2  A    between atoms: N_4  and  C_5
REMARK    3  A    between atoms: C_5  and  C_6
REMARK    4  A    between atoms: C_6  and  C_8
REMARK    5  A    between atoms: C_8  and  O_9
REMARK    6  A    between atoms: O_9  and  C_10
REMARK                            x       y       z     vdW  Elec       q    Type
REMARK                         _______ _______ _______ _____ _____    ______ ____
ROOT
ATOM      1  C   UNL     1       0.198   5.270  -5.090  0.00  0.00    +0.139 A 
ATOM      2  C   UNL     1      -0.796   5.641  -4.218  0.00  0.00    +0.034 A 
ATOM      3  C   UNL     1      -2.137   5.636  -4.588  0.00  0.00    +0.003 A 
ATOM      4  C   UNL     1      -3.112   5.696  -3.610  0.00  0.00    +0.000 A 
ATOM      5  C   UNL     1      -2.742   5.704  -2.288  0.00  0.00    +0.000 A 
ATOM      6  C   UNL     1      -1.442   6.016  -1.953  0.00  0.00    +0.000 A 
ATOM      7  C   UNL     1      -2.430   5.569  -5.942  0.00  0.00    +0.000 A 
ATOM      8  C   UNL     1      -1.406   5.473  -6.878  0.00  0.00    +0.003 A 
ATOM      9  C   UNL     1      -0.538   6.154  -2.974  0.00  0.00    +0.003 A 
ATOM     10  C   UNL     1      -0.113   5.251  -6.446  0.00  0.00    +0.037 A 
ENDROOT
BRANCH   1  11
ATOM     11  O   UNL     1       1.393   4.846  -4.575  0.00  0.00    -0.473 OA
BRANCH  11  12
ATOM     12  C   UNL     1       2.658   4.948  -5.187  0.00  0.00    +0.240 C 
BRANCH  12  13
ATOM     13  C   UNL     1       3.586   5.082  -3.789  0.00  0.00    +0.213 C 
ATOM     14  O   UNL     1       4.882   4.735  -4.563  0.00  0.00    -0.218 OA
BRANCH  13  15
ATOM     15  C   UNL     1       3.812   6.732  -4.012  0.00  0.00    +0.125 C 
BRANCH  15  16
ATOM     16  N   UNL     1       3.099   7.362  -2.951  0.00  0.00    -0.217 NA
BRANCH  16  18
ATOM     17  C   UNL     1       4.648   7.326  -1.096  0.00  0.00    +0.019 C 
ATOM     18  C   UNL     1       3.447   6.638  -1.731  0.00  0.00    +0.073 C 
ATOM     19  C   UNL     1       2.327   6.720  -0.709  0.00  0.00    +0.019 C 
ENDBRANCH  16  18
ENDBRANCH  15  16
ENDBRANCH  13  15
ENDBRANCH  12  13
ENDBRANCH  11  12
ENDBRANCH   1  11
TORSDOF 6
ENDMDL
MODEL 9
REMARK VINA RESULT:      -6.1      2.029      4.228
REMARK  Name = 
REMARK  6 active torsions:
REMARK  status: ('A' for Active; 'I' for Inactive)
REMARK    1  A    between atoms: C_2  and  N_4
REMARK    2  A    between atoms: N_4  and  C_5
REMARK    3  A    between atoms: C_5  and  C_6
REMARK    4  A    between atoms: C_6  and  C_8
REMARK    5  A    between atoms: C_8  and  O_9
REMARK    6  A    between atoms: O_9  and  C_10
REMARK                            x       y       z     vdW  Elec       q    Type
REMARK                         _______ _______ _______ _____ _____    ______ ____
ROOT
ATOM      1  C   UNL     1       1.983   6.175  -4.878  0.00  0.00    +0.139 A 
ATOM      2  C   UNL     1       0.896   6.100  -5.714  0.00  0.00    +0.034 A 
ATOM      3  C   UNL     1       1.024   6.196  -7.096  0.00  0.00    +0.003 A 
ATOM      4  C   UNL     1      -0.024   5.796  -7.905  0.00  0.00    +0.000 A 
ATOM      5  C   UNL     1      -1.150   5.259  -7.334  0.00  0.00    +0.000 A 
ATOM      6  C   UNL     1      -1.383   5.454  -5.990  0.00  0.00    +0.000 A 
ATOM      7  C   UNL     1       2.216   6.697  -7.597  0.00  0.00    +0.000 A 
ATOM      8  C   UNL     1       3.248   7.049  -6.735  0.00  0.00    +0.003 A 
ATOM      9  C   UNL     1      -0.393   6.049  -5.251  0.00  0.00    +0.003 A 
ATOM     10  C   UNL     1       3.154   6.719  -5.396  0.00  0.00    +0.037 A 
ENDROOT
BRANCH   1  11
ATOM     11  O   UNL     1       1.885   5.624  -3.629  0.00  0.00    -0.473 OA
BRANCH  11  12
ATOM     12  C   UNL     1       2.161   6.260  -2.403  0.00  0.00    +0.240 C 
BRANCH  12  13
ATOM     13  C   UNL     1       1.323   5.203  -1.396  0.00  0.00    +0.213 C 
ATOM     14  O   UNL     1       1.719   6.017  -0.139  0.00  0.00    -0.218 OA
BRANCH  13  15
ATOM     15  C   UNL     1      -0.114   6.054  -1.580  0.00  0.00    +0.125 C 
BRANCH  15  16
ATOM     16  N   UNL     1      -1.116   5.066  -1.808  0.00  0.00    -0.217 NA
BRANCH  16  18
ATOM     17  C   UNL     1      -2.134   7.161  -1.163  0.00  0.00    +0.019 C 
ATOM     18  C   UNL     1      -2.401   5.716  -1.565  0.00  0.00    +0.073 C 
ATOM     19  C   UNL     1      -3.229   5.780  -2.835  0.00  0.00    +0.019 C 
ENDBRANCH  16  18
ENDBRANCH  15  16
ENDBRANCH  13  15
ENDBRANCH  12  13
ENDBRANCH  11  12
ENDBRANCH   1  11
TORSDOF 6
ENDMDL
