MODEL 1
REMARK VINA RESULT:      -6.5      0.000      0.000
REMARK  Name = 
REMARK  9 active torsions:
REMARK  status: ('A' for Active; 'I' for Inactive)
REMARK    1  A    between atoms: C_2  and  O_4
REMARK    2  A    between atoms: O_4  and  C_5
REMARK    3  A    between atoms: C_5  and  C_6
REMARK    4  A    between atoms: C_6  and  C_7
REMARK    5  A    between atoms: C_6  and  C_19
REMARK    6  A    between atoms: C_7  and  C_8
REMARK    7  A    between atoms: C_8  and  N_9
REMARK    8  A    between atoms: C_19  and  O_20
REMARK    9  A    between atoms: O_20  and  C_21
REMARK                            x       y       z     vdW  Elec       q    Type
REMARK                         _______ _______ _______ _____ _____    ______ ____
ROOT
ATOM      1  C   UNL     1       1.275   7.241  -6.920  0.00  0.00    +0.032 C 
ENDROOT
BRANCH   1   2
ATOM      2  C   UNL     1       2.673   6.944  -7.449  0.00  0.00    +0.090 C 
BRANCH   2   3
ATOM      3  C   UNL     1       2.484   6.592  -8.917  0.00  0.00    +0.212 C 
BRANCH   3   4
ATOM      4  O   UNL     1       1.530   5.577  -9.112  0.00  0.00    -0.448 OA
BRANCH   4   5
ATOM      5  C   UNL     1       0.670   5.533 -10.200  0.00  0.00    +0.318 C 
ATOM      6  O   UNL     1       0.193   4.416 -10.484  0.00  0.00    -0.250 OA
ATOM      7  C   UNL     1       0.043   6.723 -10.808  0.00  0.00    +0.121 C 
ENDBRANCH   4   5
ENDBRANCH   3   4
ENDBRANCH   2   3
BRANCH   2   8
ATOM      8  C   UNL     1       3.292   5.743  -6.799  0.00  0.00    +0.212 C 
BRANCH   8   9
ATOM      9  O   UNL     1       4.589   5.960  -6.302  0.00  0.00    -0.448 OA
BRANCH   9  11
ATOM     10  C   UNL     1       5.004   7.496  -4.327  0.00  0.00    +0.121 C 
ATOM     11  C   UNL     1       4.725   6.157  -4.928  0.00  0.00    +0.318 C 
ATOM     12  O   UNL     1       4.765   5.097  -4.241  0.00  0.00    -0.250 OA
ENDBRANCH   9  11
ENDBRANCH   8   9
ENDBRANCH   2   8
ENDBRANCH   1   2
BRANCH   1  13
ATOM     13  C   UNL     1       1.139   6.550  -5.587  0.00  0.00    +0.109 C 
BRANCH  13  14
ATOM     14  N   UNL     1      -0.096   5.778  -5.500  0.00  0.00    -0.294 N 
ATOM     15  C   UNL     1      -0.794   5.590  -4.360  0.00  0.00    +0.167 A 
ATOM     16  C   UNL     1      -2.135   5.449  -4.665  0.00  0.00    +0.136 A 
ATOM     17  C   UNL     1      -3.039   5.346  -3.635  0.00  0.00    +0.124 A 
ATOM     18  N   UNL     1      -2.578   5.127  -2.396  0.00  0.00    -0.208 NA
ATOM     19  C   UNL     1      -1.289   5.416  -2.098  0.00  0.00    +0.258 A 
ATOM     20  N   UNL     1      -0.965   5.783  -0.758  0.00  0.00    -0.086 NA
ATOM     21  N   UNL     1      -2.202   5.547  -6.001  0.00  0.00    -0.221 NA
ATOM     22  N   UNL     1      -0.385   5.575  -3.072  0.00  0.00    -0.192 NA
ATOM     23  C   UNL     1      -0.963   5.545  -6.513  0.00  0.00    +0.180 A 
ENDBRANCH  13  14
ENDBRANCH   1  13
TORSDOF 9
ENDMDL
MODEL 2
REMARK VINA RESULT:      -6.4      3.531      5.219
REMARK  Name = 
REMARK  9 active torsions:
REMARK  status: ('A' for Active; 'I' for Inactive)
REMARK    1  A    between atoms: C_2  and  O_4
REMARK    2  A    between atoms: O_4  and  C_5
REMARK    3  A    between atoms: C_5  and  C_6
REMARK    4  A    between atoms: C_6  and  C_7
REMARK    5  A    between atoms: C_6  and  C_19
REMARK    6  A    between atoms: C_7  and  C_8
REMARK    7  A    between atoms: C_8  and  N_9
REMARK    8  A    between atoms: C_19  and  O_20
REMARK    9  A    between atoms: O_20  and  C_21
REMARK                            x       y       z     vdW  Elec       q    Type
REMARK                         _______ _______ _______ _____ _____    ______ ____
ROOT
ATOM      1  C   UNL     1       4.525   4.550  -8.746  0.00  0.00    +0.032 C 
ENDROOT
BRANCH   1   2
ATOM      2  C   UNL     1       4.568   5.321 -10.061  0.00  0.00    +0.090 C 
BRANCH   2   3
ATOM      3  C   UNL     1       6.025   5.715 -10.251  0.00  0.00    +0.212 C 
BRANCH   3   4
ATOM      4  O   UNL     1       6.357   5.924 -11.601  0.00  0.00    -0.448 OA
BRANCH   4   5
ATOM      5  C   UNL     1       7.472   5.363 -12.211  0.00  0.00    +0.318 C 
ATOM      6  O   UNL     1       7.257   4.663 -13.221  0.00  0.00    -0.250 OA
ATOM      7  C   UNL     1       8.860   5.797 -11.958  0.00  0.00    +0.121 C 
ENDBRANCH   4   5
ENDBRANCH   3   4
ENDBRANCH   2   3
BRANCH   2   8
ATOM      8  C   UNL     1       3.785   6.598 -10.004  0.00  0.00    +0.212 C 
BRANCH   8   9
ATOM      9  O   UNL     1       2.516   6.524 -10.605  0.00  0.00    -0.448 OA
BRANCH   9  11
ATOM     10  C   UNL     1       0.237   5.583 -10.011  0.00  0.00    +0.121 C 
ATOM     11  C   UNL     1       1.408   6.476  -9.760  0.00  0.00    +0.318 C 
ATOM     12  O   UNL     1       1.387   7.364  -8.861  0.00  0.00    -0.250 OA
ENDBRANCH   9  11
ENDBRANCH   8   9
ENDBRANCH   2   8
ENDBRANCH   1   2
BRANCH   1  13
ATOM     13  C   UNL     1       4.123   5.520  -7.666  0.00  0.00    +0.109 C 
BRANCH  13  14
ATOM     14  N   UNL     1       3.225   4.907  -6.693  0.00  0.00    -0.294 N 
ATOM     15  C   UNL     1       2.915   5.451  -5.497  0.00  0.00    +0.167 A 
ATOM     16  C   UNL     1       1.640   5.058  -5.135  0.00  0.00    +0.136 A 
ATOM     17  C   UNL     1       1.088   5.583  -3.992  0.00  0.00    +0.124 A 
ATOM     18  N   UNL     1       1.883   6.246  -3.140  0.00  0.00    -0.208 NA
ATOM     19  C   UNL     1       3.065   6.744  -3.574  0.00  0.00    +0.258 A 
ATOM     20  N   UNL     1       3.589   7.909  -2.938  0.00  0.00    -0.086 NA
ATOM     21  N   UNL     1       1.221   4.267  -6.134  0.00  0.00    -0.221 NA
ATOM     22  N   UNL     1       3.615   6.298  -4.709  0.00  0.00    -0.192 NA
ATOM     23  C   UNL     1       2.241   4.019  -6.967  0.00  0.00    +0.180 A 
ENDBRANCH  13  14
ENDBRANCH   1  13
TORSDOF 9
ENDMDL
MODEL 3
REMARK VINA RESULT:      -6.4      4.800      7.584
REMARK  Name = 
REMARK  9 active torsions:
REMARK  status: ('A' for Active; 'I' for Inactive)
REMARK    1  A    between atoms: C_2  and  O_4
REMARK    2  A    between atoms: O_4  and  C_5
REMARK    3  A    between atoms: C_5  and  C_6
REMARK    4  A    between atoms: C_6  and  C_7
REMARK    5  A    between atoms: C_6  and  C_19
REMARK    6  A    between atoms: C_7  and  C_8
REMARK    7  A    between atoms: C_8  and  N_9
REMARK    8  A    between atoms: C_19  and  O_20
REMARK    9  A    between atoms: O_20  and  C_21
REMARK                            x       y       z     vdW  Elec       q    Type
REMARK                         _______ _______ _______ _____ _____    ______ ____
ROOT
ATOM      1  C   UNL     1       2.731   3.961  -8.678  0.00  0.00    +0.032 C 
ENDROOT
BRANCH   1   2
ATOM      2  C   UNL     1       2.452   4.530  -7.292  0.00  0.00    +0.090 C 
BRANCH   2   3
ATOM      3  C   UNL     1       1.097   5.214  -7.401  0.00  0.00    +0.212 C 
BRANCH   3   4
ATOM      4  O   UNL     1       0.205   4.813  -6.391  0.00  0.00    -0.448 OA
BRANCH   4   5
ATOM      5  C   UNL     1      -0.815   5.621  -5.905  0.00  0.00    +0.318 C 
ATOM      6  O   UNL     1      -0.464   6.623  -5.251  0.00  0.00    -0.250 OA
ATOM      7  C   UNL     1      -2.212   5.565  -6.379  0.00  0.00    +0.121 C 
ENDBRANCH   4   5
ENDBRANCH   3   4
ENDBRANCH   2   3
BRANCH   2   8
ATOM      8  C   UNL     1       3.434   5.591  -6.896  0.00  0.00    +0.212 C 
BRANCH   8   9
ATOM      9  O   UNL     1       3.320   6.012  -5.560  0.00  0.00    -0.448 OA
BRANCH   9  11
ATOM     10  C   UNL     1       5.237   7.185  -4.384  0.00  0.00    +0.121 C 
ATOM     11  C   UNL     1       4.470   5.963  -4.771  0.00  0.00    +0.318 C 
ATOM     12  O   UNL     1       4.913   4.800  -4.551  0.00  0.00    -0.250 OA
ENDBRANCH   9  11
ENDBRANCH   8   9
ENDBRANCH   2   8
ENDBRANCH   1   2
BRANCH   1  13
ATOM     13  C   UNL     1       3.977   4.630  -9.198  0.00  0.00    +0.109 C 
BRANCH  13  14
ATOM     14  N   UNL     1       3.711   5.412 -10.401  0.00  0.00    -0.294 N 
ATOM     15  C   UNL     1       4.537   5.470 -11.467  0.00  0.00    +0.167 A 
ATOM     16  C   UNL     1       3.790   5.678 -12.611  0.00  0.00    +0.136 A 
ATOM     17  C   UNL     1       4.430   5.670 -13.827  0.00  0.00    +0.124 A 
ATOM     18  N   UNL     1       5.769   5.720 -13.849  0.00  0.00    -0.208 NA
ATOM     19  C   UNL     1       6.472   5.365 -12.747  0.00  0.00    +0.258 A 
ATOM     20  N   UNL     1       7.781   4.824 -12.918  0.00  0.00    -0.086 NA
ATOM     21  N   UNL     1       2.519   5.753 -12.190  0.00  0.00    -0.221 NA
ATOM     22  N   UNL     1       5.877   5.311 -11.550  0.00  0.00    -0.192 NA
ATOM     23  C   UNL     1       2.492   5.791 -10.851  0.00  0.00    +0.180 A 
ENDBRANCH  13  14
ENDBRANCH   1  13
TORSDOF 9
ENDMDL
MODEL 4
REMARK VINA RESULT:      -6.4      1.907      3.132
REMARK  Name = 
REMARK  9 active torsions:
REMARK  status: ('A' for Active; 'I' for Inactive)
REMARK    1  A    between atoms: C_2  and  O_4
REMARK    2  A    between atoms: O_4  and  C_5
REMARK    3  A    between atoms: C_5  and  C_6
REMARK    4  A    between atoms: C_6  and  C_7
REMARK    5  A    between atoms: C_6  and  C_19
REMARK    6  A    between atoms: C_7  and  C_8
REMARK    7  A    between atoms: C_8  and  N_9
REMARK    8  A    between atoms: C_19  and  O_20
REMARK    9  A    between atoms: O_20  and  C_21
REMARK                            x       y       z     vdW  Elec       q    Type
REMARK                         _______ _______ _______ _____ _____    ______ ____
ROOT
ATOM      1  C   UNL     1       2.070   7.087  -6.907  0.00  0.00    +0.032 C 
ENDROOT
BRANCH   1   2
ATOM      2  C   UNL     1       2.050   6.027  -8.002  0.00  0.00    +0.090 C 
BRANCH   2   3
ATOM      3  C   UNL     1       0.670   5.390  -7.923  0.00  0.00    +0.212 C 
BRANCH   3   4
ATOM      4  O   UNL     1      -0.124   5.676  -9.047  0.00  0.00    -0.448 OA
BRANCH   4   5
ATOM      5  C   UNL     1       0.365   5.685 -10.347  0.00  0.00    +0.318 C 
ATOM      6  O   UNL     1       0.654   4.576 -10.838  0.00  0.00    -0.250 OA
ATOM      7  C   UNL     1       0.249   6.835 -11.267  0.00  0.00    +0.121 C 
ENDBRANCH   4   5
ENDBRANCH   3   4
ENDBRANCH   2   3
BRANCH   2   8
ATOM      8  C   UNL     1       3.040   4.929  -7.757  0.00  0.00    +0.212 C 
BRANCH   8   9
ATOM      9  O   UNL     1       3.568   4.358  -8.928  0.00  0.00    -0.448 OA
BRANCH   9  11
ATOM     10  C   UNL     1       4.232   5.460 -11.115  0.00  0.00    +0.121 C 
ATOM     11  C   UNL     1       4.458   5.131  -9.675  0.00  0.00    +0.318 C 
ATOM     12  O   UNL     1       5.550   5.390  -9.095  0.00  0.00    -0.250 OA
ENDBRANCH   9  11
ENDBRANCH   8   9
ENDBRANCH   2   8
ENDBRANCH   1   2
BRANCH   1  13
ATOM     13  C   UNL     1       0.864   6.858  -6.033  0.00  0.00    +0.109 C 
BRANCH  13  14
ATOM     14  N   UNL     1       1.224   6.789  -4.620  0.00  0.00    -0.294 N 
ATOM     15  C   UNL     1       0.454   6.221  -3.668  0.00  0.00    +0.167 A 
ATOM     16  C   UNL     1       1.264   5.715  -2.669  0.00  0.00    +0.136 A 
ATOM     17  C   UNL     1       0.684   5.005  -1.645  0.00  0.00    +0.124 A 
ATOM     18  N   UNL     1      -0.649   5.045  -1.510  0.00  0.00    -0.208 NA
ATOM     19  C   UNL     1      -1.420   5.408  -2.563  0.00  0.00    +0.258 A 
ATOM     20  N   UNL     1      -2.742   4.881  -2.653  0.00  0.00    -0.086 NA
ATOM     21  N   UNL     1       2.516   6.009  -3.051  0.00  0.00    -0.221 NA
ATOM     22  N   UNL     1      -0.887   6.057  -3.605  0.00  0.00    -0.192 NA
ATOM     23  C   UNL     1       2.479   6.823  -4.116  0.00  0.00    +0.180 A 
ENDBRANCH  13  14
ENDBRANCH   1  13
TORSDOF 9
ENDMDL
MODEL 5
REMARK VINA RESULT:      -6.4      3.644      5.235
REMARK  Name = 
REMARK  9 active torsions:
REMARK  status: ('A' for Active; 'I' for Inactive)
REMARK    1  A    between atoms: C_2  and  O_4
REMARK    2  A    between atoms: O_4  and  C_5
REMARK    3  A    between atoms: C_5  and  C_6
REMARK    4  A    between atoms: C_6  and  C_7
REMARK    5  A    between atoms: C_6  and  C_19
REMARK    6  A    between atoms: C_7  and  C_8
REMARK    7  A    between atoms: C_8  and  N_9
REMARK    8  A    between atoms: C_19  and  O_20
REMARK    9  A    between atoms: O_20  and  C_21
REMARK                            x       y       z     vdW  Elec       q    Type
REMARK                         _______ _______ _______ _____ _____    ______ ____
ROOT
ATOM      1  C   UNL     1       4.236   4.947  -9.981  0.00  0.00    +0.032 C 
ENDROOT
BRANCH   1   2
ATOM      2  C   UNL     1       4.102   6.275 -10.718  0.00  0.00    +0.090 C 
BRANCH   2   3
ATOM      3  C   UNL     1       3.250   5.974 -11.942  0.00  0.00    +0.212 C 
BRANCH   3   4
ATOM      4  O   UNL     1       1.967   6.543 -11.863  0.00  0.00    -0.448 OA
BRANCH   4   5
ATOM      5  C   UNL     1       1.041   6.211 -10.883  0.00  0.00    +0.318 C 
ATOM      6  O   UNL     1       0.706   7.126 -10.105  0.00  0.00    -0.250 OA
ATOM      7  C   UNL     1       0.207   4.993 -10.911  0.00  0.00    +0.121 C 
ENDBRANCH   4   5
ENDBRANCH   3   4
ENDBRANCH   2   3
BRANCH   2   8
ATOM      8  C   UNL     1       5.416   6.785 -11.228  0.00  0.00    +0.212 C 
BRANCH   8   9
ATOM      9  O   UNL     1       5.932   6.061 -12.316  0.00  0.00    -0.448 OA
BRANCH   9  11
ATOM     10  C   UNL     1       7.968   5.540 -10.896  0.00  0.00    +0.121 C 
ATOM     11  C   UNL     1       7.124   5.366 -12.117  0.00  0.00    +0.318 C 
ATOM     12  O   UNL     1       7.528   4.707 -13.117  0.00  0.00    -0.250 OA
ENDBRANCH   9  11
ENDBRANCH   8   9
ENDBRANCH   2   8
ENDBRANCH   1   2
BRANCH   1  13
ATOM     13  C   UNL     1       4.704   5.252  -8.581  0.00  0.00    +0.109 C 
BRANCH  13  14
ATOM     14  N   UNL     1       3.642   5.055  -7.600  0.00  0.00    -0.294 N 
ATOM     15  C   UNL     1       3.529   5.758  -6.453  0.00  0.00    +0.167 A 
ATOM     16  C   UNL     1       2.194   5.853  -6.107  0.00  0.00    +0.136 A 
ATOM     17  C   UNL     1       1.848   6.617  -5.018  0.00  0.00    +0.124 A 
ATOM     18  N   UNL     1       2.815   7.026  -4.186  0.00  0.00    -0.208 NA
ATOM     19  C   UNL     1       4.100   7.056  -4.614  0.00  0.00    +0.258 A 
ATOM     20  N   UNL     1       4.988   8.013  -4.039  0.00  0.00    -0.086 NA
ATOM     21  N   UNL     1       1.536   5.184  -7.065  0.00  0.00    -0.221 NA
ATOM     22  N   UNL     1       4.472   6.367  -5.700  0.00  0.00    -0.192 NA
ATOM     23  C   UNL     1       2.414   4.541  -7.847  0.00  0.00    +0.180 A 
ENDBRANCH  13  14
ENDBRANCH   1  13
TORSDOF 9
ENDMDL
MODEL 6
REMARK VINA RESULT:      -6.4      3.223      5.665
REMARK  Name = 
REMARK  9 active torsions:
REMARK  status: ('A' for Active; 'I' for Inactive)
REMARK    1  A    between atoms: C_2  and  O_4
REMARK    2  A    between atoms: O_4  and  C_5
REMARK    3  A    between atoms: C_5  and  C_6
REMARK    4  A    between atoms: C_6  and  C_7
REMARK    5  A    between atoms: C_6  and  C_19
REMARK    6  A    between atoms: C_7  and  C_8
REMARK    7  A    between atoms: C_8  and  N_9
REMARK    8  A    between atoms: C_19  and  O_20
REMARK    9  A    between atoms: O_20  and  C_21
REMARK                            x       y       z     vdW  Elec       q    Type
REMARK                         _______ _______ _______ _____ _____    ______ ____
ROOT
ATOM      1  C   UNL     1       3.929   6.219  -9.293  0.00  0.00    +0.032 C 
ENDROOT
BRANCH   1   2
ATOM      2  C   UNL     1       3.866   5.627 -10.696  0.00  0.00    +0.090 C 
BRANCH   2   3
ATOM      3  C   UNL     1       4.996   6.293 -11.468  0.00  0.00    +0.212 C 
BRANCH   3   4
ATOM      4  O   UNL     1       5.820   5.365 -12.129  0.00  0.00    -0.448 OA
BRANCH   4   5
ATOM      5  C   UNL     1       7.198   5.314 -11.968  0.00  0.00    +0.318 C 
ATOM      6  O   UNL     1       7.821   4.569 -12.750  0.00  0.00    -0.250 OA
ATOM      7  C   UNL     1       7.978   6.299 -11.191  0.00  0.00    +0.121 C 
ENDBRANCH   4   5
ENDBRANCH   3   4
ENDBRANCH   2   3
BRANCH   2   8
ATOM      8  C   UNL     1       2.597   5.978 -11.412  0.00  0.00    +0.212 C 
BRANCH   8   9
ATOM      9  O   UNL     1       1.602   6.530 -10.586  0.00  0.00    -0.448 OA
BRANCH   9  11
ATOM     10  C   UNL     1       0.024   4.550 -10.731  0.00  0.00    +0.121 C 
ATOM     11  C   UNL     1       0.311   6.016 -10.705  0.00  0.00    +0.318 C 
ATOM     12  O   UNL     1      -0.580   6.874 -10.960  0.00  0.00    -0.250 OA
ENDBRANCH   9  11
ENDBRANCH   8   9
ENDBRANCH   2   8
ENDBRANCH   1   2
BRANCH   1  13
ATOM     13  C   UNL     1       3.940   5.071  -8.317  0.00  0.00    +0.109 C 
BRANCH  13  14
ATOM     14  N   UNL     1       3.547   5.495  -6.977  0.00  0.00    -0.294 N 
ATOM     15  C   UNL     1       2.279   5.471  -6.515  0.00  0.00    +0.167 A 
ATOM     16  C   UNL     1       2.298   5.266  -5.148  0.00  0.00    +0.136 A 
ATOM     17  C   UNL     1       1.102   5.109  -4.488  0.00  0.00    +0.124 A 
ATOM     18  N   UNL     1      -0.033   5.411  -5.134  0.00  0.00    -0.208 NA
ATOM     19  C   UNL     1      -0.043   5.458  -6.488  0.00  0.00    +0.258 A 
ATOM     20  N   UNL     1      -1.258   5.156  -7.172  0.00  0.00    -0.086 NA
ATOM     21  N   UNL     1       3.596   5.186  -4.823  0.00  0.00    -0.221 NA
ATOM     22  N   UNL     1       1.102   5.560  -7.173  0.00  0.00    -0.192 NA
ATOM     23  C   UNL     1       4.344   5.520  -5.884  0.00  0.00    +0.180 A 
ENDBRANCH  13  14
ENDBRANCH   1  13
TORSDOF 9
ENDMDL
MODEL 7
REMARK VINA RESULT:      -6.3      3.193      4.835
REMARK  Name = 
REMARK  9 active torsions:
REMARK  status: ('A' for Active; 'I' for Inactive)
REMARK    1  A    between atoms: C_2  and  O_4
REMARK    2  A    between atoms: O_4  and  C_5
REMARK    3  A    between atoms: C_5  and  C_6
REMARK    4  A    between atoms: C_6  and  C_7
REMARK    5  A    between atoms: C_6  and  C_19
REMARK    6  A    between atoms: C_7  and  C_8
REMARK    7  A    between atoms: C_8  and  N_9
REMARK    8  A    between atoms: C_19  and  O_20
REMARK    9  A    between atoms: O_20  and  C_21
REMARK                            x       y       z     vdW  Elec       q    Type
REMARK                         _______ _______ _______ _____ _____    ______ ____
ROOT
ATOM      1  C   UNL     1       4.767   5.424  -9.127  0.00  0.00    +0.032 C 
ENDROOT
BRANCH   1   2
ATOM      2  C   UNL     1       4.254   6.414 -10.166  0.00  0.00    +0.090 C 
BRANCH   2   3
ATOM      3  C   UNL     1       2.987   5.788 -10.731  0.00  0.00    +0.212 C 
BRANCH   3   4
ATOM      4  O   UNL     1       1.839   6.557 -10.469  0.00  0.00    -0.448 OA
BRANCH   4   5
ATOM      5  C   UNL     1       0.545   6.079 -10.626  0.00  0.00    +0.318 C 
ATOM      6  O   UNL     1      -0.311   6.909 -10.991  0.00  0.00    -0.250 OA
ATOM      7  C   UNL     1       0.197   4.647 -10.716  0.00  0.00    +0.121 C 
ENDBRANCH   4   5
ENDBRANCH   3   4
ENDBRANCH   2   3
BRANCH   2   8
ATOM      8  C   UNL     1       5.197   6.578 -11.319  0.00  0.00    +0.212 C 
BRANCH   8   9
ATOM      9  O   UNL     1       5.754   5.374 -11.785  0.00  0.00    -0.448 OA
BRANCH   9  11
ATOM     10  C   UNL     1       8.082   6.245 -11.278  0.00  0.00    +0.121 C 
ATOM     11  C   UNL     1       7.132   5.344 -11.999  0.00  0.00    +0.318 C 
ATOM     12  O   UNL     1       7.503   4.622 -12.967  0.00  0.00    -0.250 OA
ENDBRANCH   9  11
ENDBRANCH   8   9
ENDBRANCH   2   8
ENDBRANCH   1   2
BRANCH   1  13
ATOM     13  C   UNL     1       3.566   4.769  -8.495  0.00  0.00    +0.109 C 
BRANCH  13  14
ATOM     14  N   UNL     1       3.311   5.285  -7.154  0.00  0.00    -0.294 N 
ATOM     15  C   UNL     1       2.091   5.325  -6.576  0.00  0.00    +0.167 A 
ATOM     16  C   UNL     1       2.233   5.204  -5.206  0.00  0.00    +0.136 A 
ATOM     17  C   UNL     1       1.102   5.122  -4.430  0.00  0.00    +0.124 A 
ATOM     18  N   UNL     1      -0.082   5.417  -4.987  0.00  0.00    -0.208 NA
ATOM     19  C   UNL     1      -0.217   5.381  -6.334  0.00  0.00    +0.258 A 
ATOM     20  N   UNL     1      -1.498   5.074  -6.882  0.00  0.00    -0.086 NA
ATOM     21  N   UNL     1       3.554   5.106  -4.998  0.00  0.00    -0.221 NA
ATOM     22  N   UNL     1       0.860   5.409  -7.127  0.00  0.00    -0.192 NA
ATOM     23  C   UNL     1       4.207   5.353  -6.142  0.00  0.00    +0.180 A 
ENDBRANCH  13  14
ENDBRANCH   1  13
TORSDOF 9
ENDMDL
MODEL 8
REMARK VINA RESULT:      -6.3      3.308      6.703
REMARK  Name = 
REMARK  9 active torsions:
REMARK  status: ('A' for Active; 'I' for Inactive)
REMARK    1  A    between atoms: C_2  and  O_4
REMARK    2  A    between atoms: O_4  and  C_5
REMARK    3  A    between atoms: C_5  and  C_6
REMARK    4  A    between atoms: C_6  and  C_7
REMARK    5  A    between atoms: C_6  and  C_19
REMARK    6  A    between atoms: C_7  and  C_8
REMARK    7  A    between atoms: C_8  and  N_9
REMARK    8  A    between atoms: C_19  and  O_20
REMARK    9  A    between atoms: O_20  and  C_21
REMARK                            x       y       z     vdW  Elec       q    Type
REMARK                         _______ _______ _______ _____ _____    ______ ____
ROOT
ATOM      1  C   UNL     1       1.104   6.646  -6.096  0.00  0.00    +0.032 C 
ENDROOT
BRANCH   1   2
ATOM      2  C   UNL     1       0.775   6.662  -4.607  0.00  0.00    +0.090 C 
BRANCH   2   3
ATOM      3  C   UNL     1       2.119   6.741  -3.897  0.00  0.00    +0.212 C 
BRANCH   3   4
ATOM      4  O   UNL     1       3.013   5.741  -4.318  0.00  0.00    -0.448 OA
BRANCH   4   5
ATOM      5  C   UNL     1       4.392   5.853  -4.211  0.00  0.00    +0.318 C 
ATOM      6  O   UNL     1       5.039   4.787  -4.233  0.00  0.00    -0.250 OA
ATOM      7  C   UNL     1       5.138   7.113  -4.408  0.00  0.00    +0.121 C 
ENDBRANCH   4   5
ENDBRANCH   3   4
ENDBRANCH   2   3
BRANCH   2   8
ATOM      8  C   UNL     1       0.125   5.392  -4.147  0.00  0.00    +0.212 C 
BRANCH   8   9
ATOM      9  O   UNL     1      -0.637   5.526  -2.974  0.00  0.00    -0.448 OA
BRANCH   9  11
ATOM     10  C   UNL     1      -2.711   6.836  -3.621  0.00  0.00    +0.121 C 
ATOM     11  C   UNL     1      -2.022   5.610  -3.114  0.00  0.00    +0.318 C 
ATOM     12  O   UNL     1      -2.665   4.640  -2.622  0.00  0.00    -0.250 OA
ENDBRANCH   9  11
ENDBRANCH   8   9
ENDBRANCH   2   8
ENDBRANCH   1   2
BRANCH   1  13
ATOM     13  C   UNL     1       0.500   5.395  -6.679  0.00  0.00    +0.109 C 
BRANCH  13  14
ATOM     14  N   UNL     1       1.259   4.911  -7.828  0.00  0.00    -0.294 N 
ATOM     15  C   UNL     1       1.204   5.462  -9.059  0.00  0.00    +0.167 A 
ATOM     16  C   UNL     1       2.419   5.280  -9.693  0.00  0.00    +0.136 A 
ATOM     17  C   UNL     1       2.612   5.854 -10.926  0.00  0.00    +0.124 A 
ATOM     18  N   UNL     1       1.550   6.344 -11.580  0.00  0.00    -0.208 NA
ATOM     19  C   UNL     1       0.421   6.648 -10.895  0.00  0.00    +0.258 A 
ATOM     20  N   UNL     1      -0.421   7.686 -11.394  0.00  0.00    -0.086 NA
ATOM     21  N   UNL     1       3.174   4.604  -8.815  0.00  0.00    -0.221 NA
ATOM     22  N   UNL     1       0.215   6.152  -9.670  0.00  0.00    -0.192 NA
ATOM     23  C   UNL     1       2.417   4.213  -7.781  0.00  0.00    +0.180 A 
ENDBRANCH  13  14
ENDBRANCH   1  13
TORSDOF 9
ENDMDL
MODEL 9
REMARK VINA RESULT:      -6.3      3.139      4.886
REMARK  Name = 
REMARK  9 active torsions:
REMARK  status: ('A' for Active; 'I' for Inactive)
REMARK    1  A    between atoms: C_2  and  O_4
REMARK    2  A    between atoms: O_4  and  C_5
REMARK    3  A    between atoms: C_5  and  C_6
REMARK    4  A    between atoms: C_6  and  C_7
REMARK    5  A    between atoms: C_6  and  C_19
REMARK    6  A    between atoms: C_7  and  C_8
REMARK    7  A    between atoms: C_8  and  N_9
REMARK    8  A    between atoms: C_19  and  O_20
REMARK    9  A    between atoms: O_20  and  C_21
REMARK                            x       y       z     vdW  Elec       q    Type
REMARK                         _______ _______ _______ _____ _____    ______ ____
ROOT
ATOM      1  C   UNL     1       0.819   4.751  -5.509  0.00  0.00    +0.032 C 
ENDROOT
BRANCH   1   2
ATOM      2  C   UNL     1      -0.422   5.066  -6.336  0.00  0.00    +0.090 C 
BRANCH   2   3
ATOM      3  C   UNL     1       0.089   5.790  -7.573  0.00  0.00    +0.212 C 
BRANCH   3   4
ATOM      4  O   UNL     1      -0.349   5.194  -8.769  0.00  0.00    -0.448 OA
BRANCH   4   5
ATOM      5  C   UNL     1       0.242   5.430 -10.003  0.00  0.00    +0.318 C 
ATOM      6  O   UNL     1       0.605   4.424 -10.645  0.00  0.00    -0.250 OA
ATOM      7  C   UNL     1       0.164   6.715 -10.726  0.00  0.00    +0.121 C 
ENDBRANCH   4   5
ENDBRANCH   3   4
ENDBRANCH   2   3
BRANCH   2   8
ATOM      8  C   UNL     1      -1.351   6.015  -5.641  0.00  0.00    +0.212 C 
BRANCH   8   9
ATOM      9  O   UNL     1      -2.404   5.389  -4.950  0.00  0.00    -0.448 OA
BRANCH   9  11
ATOM     10  C   UNL     1      -2.352   7.093  -3.072  0.00  0.00    +0.121 C 
ATOM     11  C   UNL     1      -2.571   5.714  -3.604  0.00  0.00    +0.318 C 
ATOM     12  O   UNL     1      -2.753   4.726  -2.838  0.00  0.00    -0.250 OA
ENDBRANCH   9  11
ENDBRANCH   8   9
ENDBRANCH   2   8
ENDBRANCH   1   2
BRANCH   1  13
ATOM     13  C   UNL     1       1.265   6.033  -4.856  0.00  0.00    +0.109 C 
BRANCH  13  14
ATOM     14  N   UNL     1       2.561   5.887  -4.203  0.00  0.00    -0.294 N 
ATOM     15  C   UNL     1       2.748   5.929  -2.867  0.00  0.00    +0.167 A 
ATOM     16  C   UNL     1       3.830   5.137  -2.533  0.00  0.00    +0.136 A 
ATOM     17  C   UNL     1       4.134   4.960  -1.205  0.00  0.00    +0.124 A 
ATOM     18  N   UNL     1       3.543   5.752  -0.299  0.00  0.00    -0.208 NA
ATOM     19  C   UNL     1       2.397   6.400  -0.620  0.00  0.00    +0.258 A 
ATOM     20  N   UNL     1       1.470   6.702   0.421  0.00  0.00    -0.086 NA
ATOM     21  N   UNL     1       4.277   4.645  -3.698  0.00  0.00    -0.221 NA
ATOM     22  N   UNL     1       2.037   6.551  -1.900  0.00  0.00    -0.192 NA
ATOM     23  C   UNL     1       3.642   5.250  -4.712  0.00  0.00    +0.180 A 
ENDBRANCH  13  14
ENDBRANCH   1  13
TORSDOF 9
ENDMDL
