MODEL 1
REMARK VINA RESULT:     -10.0      0.000      0.000
REMARK  Name = 
REMARK  13 active torsions:
REMARK  status: ('A' for Active; 'I' for Inactive)
REMARK    1  A    between atoms: C_2  and  N_5
REMARK    2  A    between atoms: C_6  and  C_8
REMARK    3  A    between atoms: N_17  and  C_18
REMARK    4  A    between atoms: C_18  and  C_19
REMARK    5  A    between atoms: C_19  and  C_21
REMARK    6  A    between atoms: C_21  and  C_22
REMARK    7  A    between atoms: C_21  and  N_29
REMARK    8  A    between atoms: C_22  and  C_23
REMARK    9  A    between atoms: C_30  and  C_32
REMARK   10  A    between atoms: C_32  and  C_33
REMARK   11  A    between atoms: C_32  and  N_37
REMARK   12  A    between atoms: C_33  and  C_34
REMARK   13  A    between atoms: C_38  and  C_40
REMARK                            x       y       z     vdW  Elec       q    Type
REMARK                         _______ _______ _______ _____ _____    ______ ____
ROOT
ATOM      1  C   UNL     1       3.226   5.952  -5.246  0.00  0.00    +0.131 C 
ENDROOT
BRANCH   1   2
ATOM      2  N   UNL     1       1.829   5.241  -5.345  0.00  0.00    -0.203 NA
ATOM      3  C   UNL     1       0.790   6.228  -5.195  0.00  0.00    +0.262 C 
ATOM      4  O   UNL     1       1.040   7.410  -4.859  0.00  0.00    -0.271 OA
BRANCH   3   5
ATOM      5  C   UNL     1      -0.608   5.630  -4.620  0.00  0.00    +0.182 C 
BRANCH   5   6
ATOM      6  N   UNL     1      -0.328   6.178  -3.160  0.00  0.00    -0.192 NA
ATOM      7  C   UNL     1      -0.909   5.381  -2.119  0.00  0.00    +0.283 C 
ATOM      8  O   UNL     1      -2.118   5.066  -2.330  0.00  0.00    -0.267 OA
BRANCH   7   9
ATOM      9  C   UNL     1      -0.585   5.833  -0.759  0.00  0.00    +0.136 A 
ATOM     10  N   UNL     1      -1.516   6.162   0.146  0.00  0.00    -0.241 NA
ATOM     11  C   UNL     1      -1.280   7.164   1.027  0.00  0.00    +0.081 A 
ATOM     12  C   UNL     1      -0.087   7.858   1.074  0.00  0.00    +0.018 A 
ATOM     13  C   UNL     1      -0.077   9.224   1.335  0.00  0.00    +0.001 A 
ATOM     14  C   UNL     1      -1.276   9.879   1.595  0.00  0.00    +0.000 A 
ATOM     15  C   UNL     1      -2.316   9.088   2.012  0.00  0.00    +0.002 A 
ATOM     16  C   UNL     1       0.980   7.252   0.423  0.00  0.00    +0.003 A 
ATOM     17  C   UNL     1      -2.323   7.723   1.756  0.00  0.00    +0.019 A 
ATOM     18  C   UNL     1       0.717   6.171  -0.410  0.00  0.00    +0.024 A 
ENDBRANCH   7   9
ENDBRANCH   5   6
BRANCH   5  19
ATOM     19  C   UNL     1      -1.495   6.974  -5.002  0.00  0.00    +0.120 C 
BRANCH  19  20
ATOM     20  C   UNL     1      -2.423   6.520  -6.066  0.00  0.00    +0.263 C 
ATOM     21  O   UNL     1      -3.502   7.106  -6.280  0.00  0.00    -0.272 OA
ATOM     22  N   UNL     1      -2.424   5.108  -6.309  0.00  0.00    -0.088 NA
ENDBRANCH  19  20
ENDBRANCH   5  19
ENDBRANCH   3   5
ENDBRANCH   1   2
BRANCH   1  23
ATOM     23  C   UNL     1       3.946   5.142  -6.589  0.00  0.00    +0.188 C 
ATOM     24  O   UNL     1       5.315   5.567  -6.086  0.00  0.00    -0.220 OA
BRANCH  23  25
ATOM     25  C   UNL     1       3.862   6.439  -7.606  0.00  0.00    +0.107 C 
BRANCH  25  27
ATOM     26  C   UNL     1       3.553   6.637 -10.009  0.00  0.00    +0.137 C 
ATOM     27  N   UNL     1       4.190   5.752  -8.857  0.00  0.00    -0.264 NA
ATOM     28  C   UNL     1       5.568   6.171  -9.139  0.00  0.00    +0.072 C 
ATOM     29  C   UNL     1       6.129   5.148 -10.263  0.00  0.00    +0.016 C 
ATOM     30  C   UNL     1       5.454   5.940 -11.627  0.00  0.00    +0.003 C 
ATOM     31  C   UNL     1       5.450   7.466 -11.062  0.00  0.00    +0.000 C 
ATOM     32  C   UNL     1       6.845   7.986 -11.207  0.00  0.00    +0.000 C 
ATOM     33  C   UNL     1       7.588   7.252 -10.109  0.00  0.00    +0.000 C 
ATOM     34  C   UNL     1       7.591   5.837 -10.419  0.00  0.00    +0.001 C 
ATOM     35  C   UNL     1       3.957   5.531 -11.163  0.00  0.00    +0.025 C 
BRANCH  26  37
ATOM     36  N   UNL     1       1.062   6.829 -10.532  0.00  0.00    -0.208 NA
ATOM     37  C   UNL     1       2.052   6.025  -9.885  0.00  0.00    +0.256 C 
ATOM     38  O   UNL     1       1.947   4.799  -9.986  0.00  0.00    -0.272 OA
BRANCH  36  40
ATOM     39  C   UNL     1      -0.288   5.958 -11.234  0.00  0.00    +0.022 C 
ATOM     40  C   UNL     1      -0.020   6.314 -11.366  0.00  0.00    +0.079 C 
ATOM     41  C   UNL     1      -0.934   7.510 -11.620  0.00  0.00    +0.022 C 
ATOM     42  C   UNL     1       0.605   6.030 -12.727  0.00  0.00    +0.022 C 
ENDBRANCH  36  40
ENDBRANCH  26  37
ENDBRANCH  25  27
ENDBRANCH  23  25
ENDBRANCH   1  23
BRANCH   1  43
ATOM     43  C   UNL     1       3.768   4.856  -4.160  0.00  0.00    +0.051 C 
BRANCH  43  44
ATOM     44  C   UNL     1       4.014   5.501  -2.880  0.00  0.00    -0.020 A 
ATOM     45  C   UNL     1       3.893   6.891  -2.858  0.00  0.00    -0.004 A 
ATOM     46  C   UNL     1       4.469   7.578  -1.794  0.00  0.00    -0.000 A 
ATOM     47  C   UNL     1       4.567   6.971  -0.547  0.00  0.00    -0.000 A 
ATOM     48  C   UNL     1       4.462   5.588  -0.533  0.00  0.00    -0.000 A 
ATOM     49  C   UNL     1       3.961   4.950  -1.633  0.00  0.00    -0.004 A 
ENDBRANCH  43  44
ENDBRANCH   1  43
TORSDOF 13
ENDMDL
MODEL 2
REMARK VINA RESULT:      -9.4      3.352     12.049
REMARK  Name = 
REMARK  13 active torsions:
REMARK  status: ('A' for Active; 'I' for Inactive)
REMARK    1  A    between atoms: C_2  and  N_5
REMARK    2  A    between atoms: C_6  and  C_8
REMARK    3  A    between atoms: N_17  and  C_18
REMARK    4  A    between atoms: C_18  and  C_19
REMARK    5  A    between atoms: C_19  and  C_21
REMARK    6  A    between atoms: C_21  and  C_22
REMARK    7  A    between atoms: C_21  and  N_29
REMARK    8  A    between atoms: C_22  and  C_23
REMARK    9  A    between atoms: C_30  and  C_32
REMARK   10  A    between atoms: C_32  and  C_33
REMARK   11  A    between atoms: C_32  and  N_37
REMARK   12  A    between atoms: C_33  and  C_34
REMARK   13  A    between atoms: C_38  and  C_40
REMARK                            x       y       z     vdW  Elec       q    Type
REMARK                         _______ _______ _______ _____ _____    ______ ____
ROOT
ATOM      1  C   UNL     1       1.744   6.104 -10.479  0.00  0.00    +0.131 C 
ENDROOT
BRANCH   1   2
ATOM      2  N   UNL     1       3.121   5.351 -10.471  0.00  0.00    -0.203 NA
ATOM      3  C   UNL     1       4.183   6.318 -10.603  0.00  0.00    +0.262 C 
ATOM      4  O   UNL     1       3.955   7.523 -10.862  0.00  0.00    -0.271 OA
BRANCH   3   5
ATOM      5  C   UNL     1       5.543   5.716 -11.260  0.00  0.00    +0.182 C 
BRANCH   5   6
ATOM      6  N   UNL     1       5.229   6.357 -12.676  0.00  0.00    -0.192 NA
ATOM      7  C   UNL     1       5.645   5.548 -13.784  0.00  0.00    +0.283 C 
ATOM      8  O   UNL     1       6.823   5.093 -13.673  0.00  0.00    -0.267 OA
BRANCH   7   9
ATOM      9  C   UNL     1       5.284   6.094 -15.100  0.00  0.00    +0.136 A 
ATOM     10  N   UNL     1       6.181   6.334 -16.066  0.00  0.00    -0.241 NA
ATOM     11  C   UNL     1       6.016   7.393 -16.895  0.00  0.00    +0.081 A 
ATOM     12  C   UNL     1       4.926   8.239 -16.826  0.00  0.00    +0.018 A 
ATOM     13  C   UNL     1       5.080   9.604 -17.044  0.00  0.00    +0.001 A 
ATOM     14  C   UNL     1       6.333  10.106 -17.377  0.00  0.00    +0.000 A 
ATOM     15  C   UNL     1       7.223   9.204 -17.899  0.00  0.00    +0.002 A 
ATOM     16  C   UNL     1       3.840   7.751 -16.111  0.00  0.00    +0.003 A 
ATOM     17  C   UNL     1       7.067   7.840 -17.686  0.00  0.00    +0.019 A 
ATOM     18  C   UNL     1       4.017   6.613 -15.334  0.00  0.00    +0.024 A 
ENDBRANCH   7   9
ENDBRANCH   5   6
BRANCH   5  19
ATOM     19  C   UNL     1       6.481   7.011 -10.834  0.00  0.00    +0.120 C 
BRANCH  19  20
ATOM     20  C   UNL     1       7.800   6.422 -10.495  0.00  0.00    +0.263 C 
ATOM     21  O   UNL     1       8.684   6.270 -11.360  0.00  0.00    -0.272 OA
ATOM     22  N   UNL     1       7.776   5.440  -9.453  0.00  0.00    -0.088 NA
ENDBRANCH  19  20
ENDBRANCH   5  19
ENDBRANCH   3   5
ENDBRANCH   1   2
BRANCH   1  23
ATOM     23  C   UNL     1       1.036   5.217  -9.179  0.00  0.00    +0.188 C 
ATOM     24  O   UNL     1      -0.332   5.718  -9.607  0.00  0.00    -0.220 OA
BRANCH  23  25
ATOM     25  C   UNL     1       1.189   6.431  -8.072  0.00  0.00    +0.107 C 
BRANCH  25  27
ATOM     26  C   UNL     1       1.372   6.498  -5.648  0.00  0.00    +0.137 C 
ATOM     27  N   UNL     1       0.787   5.683  -6.877  0.00  0.00    -0.264 NA
ATOM     28  C   UNL     1      -0.600   6.107  -6.647  0.00  0.00    +0.072 C 
ATOM     29  C   UNL     1      -1.230   5.034  -5.609  0.00  0.00    +0.016 C 
ATOM     30  C   UNL     1      -0.620   5.744  -4.172  0.00  0.00    +0.003 C 
ATOM     31  C   UNL     1      -0.569   7.297  -4.654  0.00  0.00    +0.000 C 
ATOM     32  C   UNL     1      -1.964   7.828  -4.554  0.00  0.00    +0.000 C 
ATOM     33  C   UNL     1      -2.655   7.163  -5.728  0.00  0.00    +0.000 C 
ATOM     34  C   UNL     1      -2.691   5.735  -5.494  0.00  0.00    +0.001 C 
ATOM     35  C   UNL     1       0.895   5.339  -4.577  0.00  0.00    +0.025 C 
BRANCH  26  37
ATOM     36  N   UNL     1       3.847   6.665  -5.043  0.00  0.00    -0.208 NA
ATOM     37  C   UNL     1       2.871   5.872  -5.726  0.00  0.00    +0.256 C 
ATOM     38  O   UNL     1       2.960   4.645  -5.626  0.00  0.00    -0.272 OA
BRANCH  36  40
ATOM     39  C   UNL     1       5.172   5.787  -4.306  0.00  0.00    +0.022 C 
ATOM     40  C   UNL     1       4.895   6.137  -4.177  0.00  0.00    +0.079 C 
ATOM     41  C   UNL     1       5.787   7.333  -3.852  0.00  0.00    +0.022 C 
ATOM     42  C   UNL     1       4.215   5.813  -2.852  0.00  0.00    +0.022 C 
ENDBRANCH  36  40
ENDBRANCH  26  37
ENDBRANCH  25  27
ENDBRANCH  23  25
ENDBRANCH   1  23
BRANCH   1  43
ATOM     43  C   UNL     1       1.143   5.105 -11.626  0.00  0.00    +0.051 C 
BRANCH  43  44
ATOM     44  C   UNL     1       0.889   5.847 -12.851  0.00  0.00    -0.020 A 
ATOM     45  C   UNL     1       1.100   7.224 -12.791  0.00  0.00    -0.004 A 
ATOM     46  C   UNL     1       0.528   8.014 -13.784  0.00  0.00    -0.000 A 
ATOM     47  C   UNL     1       0.341   7.498 -15.060  0.00  0.00    -0.000 A 
ATOM     48  C   UNL     1       0.355   6.116 -15.166  0.00  0.00    -0.000 A 
ATOM     49  C   UNL     1       0.856   5.376 -14.131  0.00  0.00    -0.004 A 
ENDBRANCH  43  44
ENDBRANCH   1  43
TORSDOF 13
ENDMDL
MODEL 3
REMARK VINA RESULT:      -9.2      2.353     10.895
REMARK  Name = 
REMARK  13 active torsions:
REMARK  status: ('A' for Active; 'I' for Inactive)
REMARK    1  A    between atoms: C_2  and  N_5
REMARK    2  A    between atoms: C_6  and  C_8
REMARK    3  A    between atoms: N_17  and  C_18
REMARK    4  A    between atoms: C_18  and  C_19
REMARK    5  A    between atoms: C_19  and  C_21
REMARK    6  A    between atoms: C_21  and  C_22
REMARK    7  A    between atoms: C_21  and  N_29
REMARK    8  A    between atoms: C_22  and  C_23
REMARK    9  A    between atoms: C_30  and  C_32
REMARK   10  A    between atoms: C_32  and  C_33
REMARK   11  A    between atoms: C_32  and  N_37
REMARK   12  A    between atoms: C_33  and  C_34
REMARK   13  A    between atoms: C_38  and  C_40
REMARK                            x       y       z     vdW  Elec       q    Type
REMARK                         _______ _______ _______ _____ _____    ______ ____
ROOT
ATOM      1  C   UNL     1      -0.775   6.576  -2.500  0.00  0.00    +0.131 C 
ENDROOT
BRANCH   1   2
ATOM      2  N   UNL     1       0.433   5.656  -2.099  0.00  0.00    -0.203 NA
ATOM      3  C   UNL     1       1.661   6.383  -2.304  0.00  0.00    +0.262 C 
ATOM      4  O   UNL     1       1.686   7.494  -2.884  0.00  0.00    -0.271 OA
BRANCH   3   5
ATOM      5  C   UNL     1       2.950   5.431  -2.580  0.00  0.00    +0.182 C 
BRANCH   5   6
ATOM      6  N   UNL     1       3.236   6.103  -3.987  0.00  0.00    -0.192 NA
ATOM      7  C   UNL     1       3.905   5.240  -4.916  0.00  0.00    +0.283 C 
ATOM      8  O   UNL     1       4.900   4.629  -4.424  0.00  0.00    -0.267 OA
BRANCH   7   9
ATOM      9  C   UNL     1       4.100   5.823  -6.251  0.00  0.00    +0.136 A 
ATOM     10  N   UNL     1       3.230   6.672  -6.815  0.00  0.00    -0.241 NA
ATOM     11  C   UNL     1       3.024   6.640  -8.154  0.00  0.00    +0.081 A 
ATOM     12  C   UNL     1       3.708   5.788  -8.999  0.00  0.00    +0.018 A 
ATOM     13  C   UNL     1       3.060   5.202 -10.082  0.00  0.00    +0.001 A 
ATOM     14  C   UNL     1       1.730   5.516 -10.334  0.00  0.00    +0.000 A 
ATOM     15  C   UNL     1       1.275   6.690  -9.792  0.00  0.00    +0.002 A 
ATOM     16  C   UNL     1       4.859   5.221  -8.468  0.00  0.00    +0.003 A 
ATOM     17  C   UNL     1       1.924   7.278  -8.714  0.00  0.00    +0.019 A 
ATOM     18  C   UNL     1       5.087   5.343  -7.103  0.00  0.00    +0.024 A 
ENDBRANCH   7   9
ENDBRANCH   5   6
BRANCH   5  19
ATOM     19  C   UNL     1       4.025   6.443  -1.831  0.00  0.00    +0.120 C 
BRANCH  19  20
ATOM     20  C   UNL     1       4.492   5.681  -0.647  0.00  0.00    +0.263 C 
ATOM     21  O   UNL     1       4.449   4.436  -0.618  0.00  0.00    -0.272 OA
ATOM     22  N   UNL     1       4.301   6.338   0.612  0.00  0.00    -0.088 NA
ENDBRANCH  19  20
ENDBRANCH   5  19
ENDBRANCH   3   5
ENDBRANCH   1   2
BRANCH   1  23
ATOM     23  C   UNL     1      -1.645   6.400  -1.019  0.00  0.00    +0.188 C 
ATOM     24  O   UNL     1      -2.933   6.713  -1.762  0.00  0.00    -0.220 OA
BRANCH  23  25
ATOM     25  C   UNL     1      -1.469   7.974  -0.558  0.00  0.00    +0.107 C 
BRANCH  25  27
ATOM     26  C   UNL     1      -0.529   9.142   1.357  0.00  0.00    +0.137 C 
ATOM     27  N   UNL     1      -1.074   7.746   0.835  0.00  0.00    -0.264 NA
ATOM     28  C   UNL     1      -2.337   7.831   1.578  0.00  0.00    +0.072 C 
ATOM     29  C   UNL     1      -2.044   7.193   3.038  0.00  0.00    +0.016 C 
ATOM     30  C   UNL     1      -1.361   8.597   3.750  0.00  0.00    +0.003 C 
ATOM     31  C   UNL     1      -2.161   9.731   2.901  0.00  0.00    +0.000 C 
ATOM     32  C   UNL     1      -3.522   9.848   3.509  0.00  0.00    +0.000 C 
ATOM     33  C   UNL     1      -4.203   8.576   3.044  0.00  0.00    +0.000 C 
ATOM     34  C   UNL     1      -3.528   7.445   3.646  0.00  0.00    +0.001 C 
ATOM     35  C   UNL     1      -0.058   8.487   2.794  0.00  0.00    +0.025 C 
BRANCH  26  37
ATOM     36  N   UNL     1       1.771  10.154   0.904  0.00  0.00    -0.208 NA
ATOM     37  C   UNL     1       0.968   8.981   0.742  0.00  0.00    +0.256 C 
ATOM     38  O   UNL     1       1.515   7.887   0.906  0.00  0.00    -0.272 OA
BRANCH  36  40
ATOM     39  C   UNL     1       3.339   9.851   1.626  0.00  0.00    +0.022 C 
ATOM     40  C   UNL     1       3.169  10.159   1.322  0.00  0.00    +0.079 C 
ATOM     41  C   UNL     1       3.973  10.022   0.032  0.00  0.00    +0.022 C 
ATOM     42  C   UNL     1       3.458  11.581   1.788  0.00  0.00    +0.022 C 
ENDBRANCH  36  40
ENDBRANCH  26  37
ENDBRANCH  25  27
ENDBRANCH  23  25
ENDBRANCH   1  23
BRANCH   1  43
ATOM     43  C   UNL     1      -1.551   5.331  -3.225  0.00  0.00    +0.051 C 
BRANCH  43  44
ATOM     44  C   UNL     1      -1.315   5.365  -4.660  0.00  0.00    -0.020 A 
ATOM     45  C   UNL     1      -2.310   5.964  -5.432  0.00  0.00    -0.004 A 
ATOM     46  C   UNL     1      -2.322   5.697  -6.798  0.00  0.00    -0.000 A 
ATOM     47  C   UNL     1      -1.133   5.431  -7.465  0.00  0.00    -0.000 A 
ATOM     48  C   UNL     1      -0.063   5.046  -6.671  0.00  0.00    -0.000 A 
ATOM     49  C   UNL     1      -0.127   5.259  -5.322  0.00  0.00    -0.004 A 
ENDBRANCH  43  44
ENDBRANCH   1  43
TORSDOF 13
ENDMDL
MODEL 4
REMARK VINA RESULT:      -8.6      2.861      9.716
REMARK  Name = 
REMARK  13 active torsions:
REMARK  status: ('A' for Active; 'I' for Inactive)
REMARK    1  A    between atoms: C_2  and  N_5
REMARK    2  A    between atoms: C_6  and  C_8
REMARK    3  A    between atoms: N_17  and  C_18
REMARK    4  A    between atoms: C_18  and  C_19
REMARK    5  A    between atoms: C_19  and  C_21
REMARK    6  A    between atoms: C_21  and  C_22
REMARK    7  A    between atoms: C_21  and  N_29
REMARK    8  A    between atoms: C_22  and  C_23
REMARK    9  A    between atoms: C_30  and  C_32
REMARK   10  A    between atoms: C_32  and  C_33
REMARK   11  A    between atoms: C_32  and  N_37
REMARK   12  A    between atoms: C_33  and  C_34
REMARK   13  A    between atoms: C_38  and  C_40
REMARK                            x       y       z     vdW  Elec       q    Type
REMARK                         _______ _______ _______ _____ _____    ______ ____
ROOT
ATOM      1  C   UNL     1       3.221   6.591  -0.928  0.00  0.00    +0.131 C 
ENDROOT
BRANCH   1   2
ATOM      2  N   UNL     1       1.749   7.137  -0.932  0.00  0.00    -0.203 NA
ATOM      3  C   UNL     1       0.862   6.082  -1.355  0.00  0.00    +0.262 C 
ATOM      4  O   UNL     1       1.290   4.994  -1.805  0.00  0.00    -0.271 OA
BRANCH   3   5
ATOM      5  C   UNL     1      -0.516   6.614  -2.035  0.00  0.00    +0.182 C 
BRANCH   5   6
ATOM      6  N   UNL     1      -0.299   5.736  -3.337  0.00  0.00    -0.192 NA
ATOM      7  C   UNL     1      -0.192   6.503  -4.543  0.00  0.00    +0.283 C 
ATOM      8  O   UNL     1      -1.084   7.395  -4.664  0.00  0.00    -0.267 OA
BRANCH   7   9
ATOM      9  C   UNL     1       0.094   5.705  -5.744  0.00  0.00    +0.136 A 
ATOM     10  N   UNL     1       1.280   5.714  -6.365  0.00  0.00    -0.241 NA
ATOM     11  C   UNL     1       1.339   5.599  -7.714  0.00  0.00    +0.081 A 
ATOM     12  C   UNL     1       0.218   5.427  -8.503  0.00  0.00    +0.018 A 
ATOM     13  C   UNL     1       0.132   6.045  -9.747  0.00  0.00    +0.001 A 
ATOM     14  C   UNL     1       1.203   6.800 -10.211  0.00  0.00    +0.000 A 
ATOM     15  C   UNL     1       2.420   6.533  -9.639  0.00  0.00    +0.002 A 
ATOM     16  C   UNL     1      -0.928   5.025  -7.829  0.00  0.00    +0.003 A 
ATOM     17  C   UNL     1       2.507   5.912  -8.399  0.00  0.00    +0.019 A 
ATOM     18  C   UNL     1      -0.930   5.074  -6.440  0.00  0.00    +0.024 A 
ENDBRANCH   7   9
ENDBRANCH   5   6
BRANCH   5  19
ATOM     19  C   UNL     1      -1.464   5.442  -1.351  0.00  0.00    +0.120 C 
BRANCH  19  20
ATOM     20  C   UNL     1      -2.765   5.556  -2.054  0.00  0.00    +0.263 C 
ATOM     21  O   UNL     1      -3.092   4.750  -2.947  0.00  0.00    -0.272 OA
ATOM     22  N   UNL     1      -3.254   6.893  -2.214  0.00  0.00    -0.088 NA
ENDBRANCH  19  20
ENDBRANCH   5  19
ENDBRANCH   3   5
ENDBRANCH   1   2
BRANCH   1  23
ATOM     23  C   UNL     1       3.834   7.712   0.233  0.00  0.00    +0.188 C 
ATOM     24  O   UNL     1       4.814   6.653   0.709  0.00  0.00    -0.220 OA
BRANCH  23  25
ATOM     25  C   UNL     1       2.751   7.309   1.411  0.00  0.00    +0.107 C 
BRANCH  25  27
ATOM     26  C   UNL     1       2.304   8.756   3.313  0.00  0.00    +0.137 C 
ATOM     27  N   UNL     1       2.270   8.656   1.730  0.00  0.00    -0.264 NA
ATOM     28  C   UNL     1       3.451   9.506   1.537  0.00  0.00    +0.072 C 
ATOM     29  C   UNL     1       2.903  11.029   1.472  0.00  0.00    +0.016 C 
ATOM     30  C   UNL     1       2.809  11.293   3.164  0.00  0.00    +0.003 C 
ATOM     31  C   UNL     1       4.005  10.301   3.646  0.00  0.00    +0.000 C 
ATOM     32  C   UNL     1       5.291  11.026   3.409  0.00  0.00    +0.000 C 
ATOM     33  C   UNL     1       5.431  10.968   1.901  0.00  0.00    +0.000 C 
ATOM     34  C   UNL     1       4.356  11.736   1.309  0.00  0.00    +0.001 C 
ATOM     35  C   UNL     1       1.586  10.240   3.293  0.00  0.00    +0.025 C 
BRANCH  26  37
ATOM     36  N   UNL     1      -0.172   8.530   2.729  0.00  0.00    -0.208 NA
ATOM     37  C   UNL     1       0.875   8.019   3.560  0.00  0.00    +0.256 C 
ATOM     38  O   UNL     1       0.910   6.800   3.750  0.00  0.00    -0.272 OA
BRANCH  36  40
ATOM     39  C   UNL     1      -1.077   7.269   1.916  0.00  0.00    +0.022 C 
ATOM     40  C   UNL     1      -1.156   7.713   2.028  0.00  0.00    +0.079 C 
ATOM     41  C   UNL     1      -2.406   7.751   2.903  0.00  0.00    +0.022 C 
ATOM     42  C   UNL     1      -1.549   8.509   0.789  0.00  0.00    +0.022 C 
ENDBRANCH  36  40
ENDBRANCH  26  37
ENDBRANCH  25  27
ENDBRANCH  23  25
ENDBRANCH   1  23
BRANCH   1  43
ATOM     43  C   UNL     1       3.629   7.530  -2.204  0.00  0.00    +0.051 C 
BRANCH  43  44
ATOM     44  C   UNL     1       4.025   6.698  -3.329  0.00  0.00    -0.020 A 
ATOM     45  C   UNL     1       4.645   7.356  -4.392  0.00  0.00    -0.004 A 
ATOM     46  C   UNL     1       4.701   6.700  -5.619  0.00  0.00    -0.000 A 
ATOM     47  C   UNL     1       4.763   5.313  -5.663  0.00  0.00    -0.000 A 
ATOM     48  C   UNL     1       4.356   4.649  -4.515  0.00  0.00    -0.000 A 
ATOM     49  C   UNL     1       4.241   5.351  -3.348  0.00  0.00    -0.004 A 
ENDBRANCH  43  44
ENDBRANCH   1  43
TORSDOF 13
ENDMDL
MODEL 5
REMARK VINA RESULT:      -8.2      1.920      5.252
REMARK  Name = 
REMARK  13 active torsions:
REMARK  status: ('A' for Active; 'I' for Inactive)
REMARK    1  A    between atoms: C_2  and  N_5
REMARK    2  A    between atoms: C_6  and  C_8
REMARK    3  A    between atoms: N_17  and  C_18
REMARK    4  A    between atoms: C_18  and  C_19
REMARK    5  A    between atoms: C_19  and  C_21
REMARK    6  A    between atoms: C_21  and  C_22
REMARK    7  A    between atoms: C_21  and  N_29
REMARK    8  A    between atoms: C_22  and  C_23
REMARK    9  A    between atoms: C_30  and  C_32
REMARK   10  A    between atoms: C_32  and  C_33
REMARK   11  A    between atoms: C_32  and  N_37
REMARK   12  A    between atoms: C_33  and  C_34
REMARK   13  A    between atoms: C_38  and  C_40
REMARK                            x       y       z     vdW  Elec       q    Type
REMARK                         _______ _______ _______ _____ _____    ______ ____
ROOT
ATOM      1  C   UNL     1       0.495   5.918  -5.610  0.00  0.00    +0.131 C 
ENDROOT
BRANCH   1   2
ATOM      2  N   UNL     1       1.839   6.617  -5.197  0.00  0.00    -0.203 NA
ATOM      3  C   UNL     1       2.242   6.126  -3.903  0.00  0.00    +0.262 C 
ATOM      4  O   UNL     1       1.494   5.402  -3.205  0.00  0.00    -0.271 OA
BRANCH   3   5
ATOM      5  C   UNL     1       3.172   7.164  -3.066  0.00  0.00    +0.182 C 
BRANCH   5   6
ATOM      6  N   UNL     1       2.422   6.854  -1.704  0.00  0.00    -0.192 NA
ATOM      7  C   UNL     1       2.612   7.855  -0.696  0.00  0.00    +0.283 C 
ATOM      8  O   UNL     1       3.819   8.214  -0.551  0.00  0.00    -0.267 OA
BRANCH   7   9
ATOM      9  C   UNL     1       1.854   7.620   0.540  0.00  0.00    +0.136 A 
ATOM     10  N   UNL     1       0.687   6.962   0.571  0.00  0.00    -0.241 NA
ATOM     11  C   UNL     1      -0.276   7.334   1.449  0.00  0.00    +0.081 A 
ATOM     12  C   UNL     1      -0.105   8.352   2.366  0.00  0.00    +0.018 A 
ATOM     13  C   UNL     1      -1.158   9.208   2.673  0.00  0.00    +0.001 A 
ATOM     14  C   UNL     1      -2.400   9.002   2.082  0.00  0.00    +0.000 A 
ATOM     15  C   UNL     1      -2.634   7.742   1.596  0.00  0.00    +0.002 A 
ATOM     16  C   UNL     1       1.211   8.738   2.588  0.00  0.00    +0.003 A 
ATOM     17  C   UNL     1      -1.583   6.885   1.295  0.00  0.00    +0.019 A 
ATOM     18  C   UNL     1       2.191   8.273   1.720  0.00  0.00    +0.024 A 
ENDBRANCH   7   9
ENDBRANCH   5   6
BRANCH   5  19
ATOM     19  C   UNL     1       4.345   6.046  -2.725  0.00  0.00    +0.120 C 
BRANCH  19  20
ATOM     20  C   UNL     1       5.136   5.941  -3.975  0.00  0.00    +0.263 C 
ATOM     21  O   UNL     1       5.315   6.928  -4.715  0.00  0.00    -0.272 OA
ATOM     22  N   UNL     1       5.057   4.674  -4.638  0.00  0.00    -0.088 NA
ENDBRANCH  19  20
ENDBRANCH   5  19
ENDBRANCH   3   5
ENDBRANCH   1   2
BRANCH   1  23
ATOM     23  C   UNL     1       0.506   6.446  -7.254  0.00  0.00    +0.188 C 
ATOM     24  O   UNL     1      -0.490   5.350  -7.592  0.00  0.00    -0.220 OA
BRANCH  23  25
ATOM     25  C   UNL     1       1.778   5.497  -7.704  0.00  0.00    +0.107 C 
BRANCH  25  27
ATOM     26  C   UNL     1       2.952   5.146  -9.805  0.00  0.00    +0.137 C 
ATOM     27  N   UNL     1       2.142   6.200  -8.938  0.00  0.00    -0.264 NA
ATOM     28  C   UNL     1       0.929   6.119  -9.761  0.00  0.00    +0.072 C 
ATOM     29  C   UNL     1       1.117   7.207 -10.946  0.00  0.00    +0.016 C 
ATOM     30  C   UNL     1       2.065   6.228 -11.987  0.00  0.00    +0.003 C 
ATOM     31  C   UNL     1       1.485   4.768 -11.565  0.00  0.00    +0.000 C 
ATOM     32  C   UNL     1       0.180   4.598 -12.276  0.00  0.00    +0.000 C 
ATOM     33  C   UNL     1      -0.738   5.528 -11.509  0.00  0.00    +0.000 C 
ATOM     34  C   UNL     1      -0.284   6.889 -11.704  0.00  0.00    +0.001 C 
ATOM     35  C   UNL     1       3.309   6.276 -10.951  0.00  0.00    +0.025 C 
BRANCH  26  37
ATOM     36  N   UNL     1       5.502   5.156  -9.927  0.00  0.00    -0.208 NA
ATOM     37  C   UNL     1       4.381   5.379  -9.066  0.00  0.00    +0.256 C 
ATOM     38  O   UNL     1       4.446   6.328  -8.279  0.00  0.00    -0.272 OA
BRANCH  36  40
ATOM     39  C   UNL     1       6.679   6.453  -9.862  0.00  0.00    +0.022 C 
ATOM     40  C   UNL     1       6.684   6.009  -9.999  0.00  0.00    +0.079 C 
ATOM     41  C   UNL     1       7.750   5.286  -9.181  0.00  0.00    +0.022 C 
ATOM     42  C   UNL     1       7.185   5.904 -11.434  0.00  0.00    +0.022 C 
ENDBRANCH  36  40
ENDBRANCH  26  37
ENDBRANCH  25  27
ENDBRANCH  23  25
ENDBRANCH   1  23
BRANCH   1  43
ATOM     43  C   UNL     1      -0.389   7.195  -5.096  0.00  0.00    +0.051 C 
BRANCH  43  44
ATOM     44  C   UNL     1      -1.482   6.738  -4.253  0.00  0.00    -0.020 A 
ATOM     45  C   UNL     1      -1.968   7.658  -3.324  0.00  0.00    -0.004 A 
ATOM     46  C   UNL     1      -2.730   7.173  -2.265  0.00  0.00    -0.000 A 
ATOM     47  C   UNL     1      -3.507   6.033  -2.433  0.00  0.00    -0.000 A 
ATOM     48  C   UNL     1      -3.168   5.218  -3.503  0.00  0.00    -0.000 A 
ATOM     49  C   UNL     1      -2.353   5.713  -4.482  0.00  0.00    -0.004 A 
ENDBRANCH  43  44
ENDBRANCH   1  43
TORSDOF 13
ENDMDL
MODEL 6
REMARK VINA RESULT:      -8.1      2.337      5.526
REMARK  Name = 
REMARK  13 active torsions:
REMARK  status: ('A' for Active; 'I' for Inactive)
REMARK    1  A    between atoms: C_2  and  N_5
REMARK    2  A    between atoms: C_6  and  C_8
REMARK    3  A    between atoms: N_17  and  C_18
REMARK    4  A    between atoms: C_18  and  C_19
REMARK    5  A    between atoms: C_19  and  C_21
REMARK    6  A    between atoms: C_21  and  C_22
REMARK    7  A    between atoms: C_21  and  N_29
REMARK    8  A    between atoms: C_22  and  C_23
REMARK    9  A    between atoms: C_30  and  C_32
REMARK   10  A    between atoms: C_32  and  C_33
REMARK   11  A    between atoms: C_32  and  N_37
REMARK   12  A    between atoms: C_33  and  C_34
REMARK   13  A    between atoms: C_38  and  C_40
REMARK                            x       y       z     vdW  Elec       q    Type
REMARK                         _______ _______ _______ _____ _____    ______ ____
ROOT
ATOM      1  C   UNL     1       3.265   5.282  -6.839  0.00  0.00    +0.131 C 
ENDROOT
BRANCH   1   2
ATOM      2  N   UNL     1       4.138   5.750  -5.621  0.00  0.00    -0.203 NA
ATOM      3  C   UNL     1       3.702   5.052  -4.438  0.00  0.00    +0.262 C 
ATOM      4  O   UNL     1       2.668   4.343  -4.428  0.00  0.00    -0.271 OA
BRANCH   3   5
ATOM      5  C   UNL     1       4.002   5.851  -3.054  0.00  0.00    +0.182 C 
BRANCH   5   6
ATOM      6  N   UNL     1       2.625   5.404  -2.410  0.00  0.00    -0.192 NA
ATOM      7  C   UNL     1       1.849   6.490  -1.887  0.00  0.00    +0.283 C 
ATOM      8  O   UNL     1       2.514   7.298  -1.173  0.00  0.00    -0.267 OA
BRANCH   7   9
ATOM      9  C   UNL     1       0.533   6.096  -1.364  0.00  0.00    +0.136 A 
ATOM     10  N   UNL     1      -0.296   5.267  -2.012  0.00  0.00    -0.241 NA
ATOM     11  C   UNL     1      -1.636   5.455  -1.937  0.00  0.00    +0.081 A 
ATOM     12  C   UNL     1      -2.214   6.453  -1.178  0.00  0.00    +0.018 A 
ATOM     13  C   UNL     1      -3.341   7.126  -1.639  0.00  0.00    +0.001 A 
ATOM     14  C   UNL     1      -3.910   6.754  -2.852  0.00  0.00    +0.000 A 
ATOM     15  C   UNL     1      -3.611   5.491  -3.295  0.00  0.00    +0.002 A 
ATOM     16  C   UNL     1      -1.386   7.028  -0.221  0.00  0.00    +0.003 A 
ATOM     17  C   UNL     1      -2.489   4.817  -2.830  0.00  0.00    +0.019 A 
ATOM     18  C   UNL     1      -0.025   6.749  -0.272  0.00  0.00    +0.024 A 
ENDBRANCH   7   9
ENDBRANCH   5   6
BRANCH   5  19
ATOM     19  C   UNL     1       4.796   4.587  -2.339  0.00  0.00    +0.120 C 
BRANCH  19  20
ATOM     20  C   UNL     1       4.310   4.585  -0.938  0.00  0.00    +0.263 C 
ATOM     21  O   UNL     1       4.744   5.398  -0.099  0.00  0.00    -0.272 OA
ATOM     22  N   UNL     1       3.943   3.299  -0.424  0.00  0.00    -0.088 NA
ENDBRANCH  19  20
ENDBRANCH   5  19
ENDBRANCH   3   5
ENDBRANCH   1   2
BRANCH   1  23
ATOM     23  C   UNL     1       4.388   5.745  -8.065  0.00  0.00    +0.188 C 
ATOM     24  O   UNL     1       3.466   6.889  -8.451  0.00  0.00    -0.220 OA
BRANCH  23  25
ATOM     25  C   UNL     1       3.744   4.768  -9.230  0.00  0.00    +0.107 C 
BRANCH  25  27
ATOM     26  C   UNL     1       3.743   5.401 -11.577  0.00  0.00    +0.137 C 
ATOM     27  N   UNL     1       3.241   5.810 -10.129  0.00  0.00    -0.264 NA
ATOM     28  C   UNL     1       1.848   5.421 -10.375  0.00  0.00    +0.072 C 
ATOM     29  C   UNL     1       1.124   6.721 -11.016  0.00  0.00    +0.016 C 
ATOM     30  C   UNL     1       1.633   6.473 -12.634  0.00  0.00    +0.003 C 
ATOM     31  C   UNL     1       1.744   4.850 -12.623  0.00  0.00    +0.000 C 
ATOM     32  C   UNL     1       0.354   4.320 -12.775  0.00  0.00    +0.000 C 
ATOM     33  C   UNL     1      -0.256   4.597 -11.415  0.00  0.00    +0.000 C 
ATOM     34  C   UNL     1      -0.330   6.031 -11.227  0.00  0.00    +0.001 C 
ATOM     35  C   UNL     1       3.169   6.799 -12.235  0.00  0.00    +0.025 C 
BRANCH  26  37
ATOM     36  N   UNL     1       6.173   5.483 -12.355  0.00  0.00    -0.208 NA
ATOM     37  C   UNL     1       5.234   6.032 -11.426  0.00  0.00    +0.256 C 
ATOM     38  O   UNL     1       5.298   7.244 -11.198  0.00  0.00    -0.272 OA
BRANCH  36  40
ATOM     39  C   UNL     1       7.163   6.722 -13.103  0.00  0.00    +0.022 C 
ATOM     40  C   UNL     1       7.153   6.257 -13.110  0.00  0.00    +0.079 C 
ATOM     41  C   UNL     1       8.514   5.762 -12.627  0.00  0.00    +0.022 C 
ATOM     42  C   UNL     1       7.064   5.752 -14.545  0.00  0.00    +0.022 C 
ENDBRANCH  36  40
ENDBRANCH  26  37
ENDBRANCH  25  27
ENDBRANCH  23  25
ENDBRANCH   1  23
BRANCH   1  43
ATOM     43  C   UNL     1       2.467   6.710  -6.884  0.00  0.00    +0.051 C 
BRANCH  43  44
ATOM     44  C   UNL     1       1.066   6.509  -6.553  0.00  0.00    -0.020 A 
ATOM     45  C   UNL     1       0.427   5.448  -7.195  0.00  0.00    -0.004 A 
ATOM     46  C   UNL     1      -0.964   5.439  -7.210  0.00  0.00    -0.000 A 
ATOM     47  C   UNL     1      -1.674   6.011  -6.161  0.00  0.00    -0.000 A 
ATOM     48  C   UNL     1      -0.974   6.909  -5.370  0.00  0.00    -0.000 A 
ATOM     49  C   UNL     1       0.391   6.935  -5.446  0.00  0.00    -0.004 A 
ENDBRANCH  43  44
ENDBRANCH   1  43
TORSDOF 13
ENDMDL
MODEL 7
REMARK VINA RESULT:      -8.1      3.344     10.532
REMARK  Name = 
REMARK  13 active torsions:
REMARK  status: ('A' for Active; 'I' for Inactive)
REMARK    1  A    between atoms: C_2  and  N_5
REMARK    2  A    between atoms: C_6  and  C_8
REMARK    3  A    between atoms: N_17  and  C_18
REMARK    4  A    between atoms: C_18  and  C_19
REMARK    5  A    between atoms: C_19  and  C_21
REMARK    6  A    between atoms: C_21  and  C_22
REMARK    7  A    between atoms: C_21  and  N_29
REMARK    8  A    between atoms: C_22  and  C_23
REMARK    9  A    between atoms: C_30  and  C_32
REMARK   10  A    between atoms: C_32  and  C_33
REMARK   11  A    between atoms: C_32  and  N_37
REMARK   12  A    between atoms: C_33  and  C_34
REMARK   13  A    between atoms: C_38  and  C_40
REMARK                            x       y       z     vdW  Elec       q    Type
REMARK                         _______ _______ _______ _____ _____    ______ ____
ROOT
ATOM      1  C   UNL     1       2.429   6.003 -10.045  0.00  0.00    +0.131 C 
ENDROOT
BRANCH   1   2
ATOM      2  N   UNL     1       1.631   6.391 -11.341  0.00  0.00    -0.203 NA
ATOM      3  C   UNL     1       0.649   5.370 -11.608  0.00  0.00    +0.262 C 
ATOM      4  O   UNL     1       0.624   4.290 -10.971  0.00  0.00    -0.271 OA
BRANCH   3   5
ATOM      5  C   UNL     1       0.228   5.256 -13.174  0.00  0.00    +0.182 C 
BRANCH   5   6
ATOM      6  N   UNL     1       1.018   6.576 -13.559  0.00  0.00    -0.192 NA
ATOM      7  C   UNL     1       0.554   7.199 -14.763  0.00  0.00    +0.283 C 
ATOM      8  O   UNL     1       0.393   6.394 -15.728  0.00  0.00    -0.267 OA
BRANCH   7   9
ATOM      9  C   UNL     1       1.223   8.468 -15.083  0.00  0.00    +0.136 A 
ATOM     10  N   UNL     1       0.834   9.649 -14.584  0.00  0.00    -0.241 NA
ATOM     11  C   UNL     1       0.932  10.769 -15.341  0.00  0.00    +0.081 A 
ATOM     12  C   UNL     1       1.462  10.770 -16.617  0.00  0.00    +0.018 A 
ATOM     13  C   UNL     1       0.912  11.579 -17.607  0.00  0.00    +0.001 A 
ATOM     14  C   UNL     1      -0.146  12.423 -17.290  0.00  0.00    +0.000 A 
ATOM     15  C   UNL     1      -0.291  12.734 -15.963  0.00  0.00    +0.002 A 
ATOM     16  C   UNL     1       2.210   9.648 -16.951  0.00  0.00    +0.003 A 
ATOM     17  C   UNL     1       0.261  11.929 -14.975  0.00  0.00    +0.019 A 
ATOM     18  C   UNL     1       2.156   8.543 -16.110  0.00  0.00    +0.024 A 
ENDBRANCH   7   9
ENDBRANCH   5   6
BRANCH   5  19
ATOM     19  C   UNL     1       1.520   4.310 -13.591  0.00  0.00    +0.120 C 
BRANCH  19  20
ATOM     20  C   UNL     1       0.915   3.094 -14.188  0.00  0.00    +0.263 C 
ATOM     21  O   UNL     1       1.613   2.112 -14.508  0.00  0.00    -0.272 OA
ATOM     22  N   UNL     1      -0.238   3.327 -15.005  0.00  0.00    -0.088 NA
ENDBRANCH  19  20
ENDBRANCH   5  19
ENDBRANCH   3   5
ENDBRANCH   1   2
BRANCH   1  23
ATOM     23  C   UNL     1       1.326   6.715  -8.924  0.00  0.00    +0.188 C 
ATOM     24  O   UNL     1       2.476   7.503  -8.322  0.00  0.00    -0.220 OA
BRANCH  23  25
ATOM     25  C   UNL     1       1.481   5.526  -7.791  0.00  0.00    +0.107 C 
BRANCH  25  27
ATOM     26  C   UNL     1       1.074   5.609  -5.395  0.00  0.00    +0.137 C 
ATOM     27  N   UNL     1       1.725   6.375  -6.622  0.00  0.00    -0.264 NA
ATOM     28  C   UNL     1       3.105   6.058  -6.237  0.00  0.00    +0.072 C 
ATOM     29  C   UNL     1       3.572   7.235  -5.227  0.00  0.00    +0.016 C 
ATOM     30  C   UNL     1       2.870   6.585  -3.803  0.00  0.00    +0.003 C 
ATOM     31  C   UNL     1       2.955   5.003  -4.174  0.00  0.00    +0.000 C 
ATOM     32  C   UNL     1       4.361   4.571  -3.910  0.00  0.00    +0.000 C 
ATOM     33  C   UNL     1       5.122   5.199  -5.062  0.00  0.00    +0.000 C 
ATOM     34  C   UNL     1       5.053   6.639  -4.929  0.00  0.00    +0.001 C 
ATOM     35  C   UNL     1       1.380   6.864  -4.372  0.00  0.00    +0.025 C 
BRANCH  26  37
ATOM     36  N   UNL     1      -1.388   5.602  -4.716  0.00  0.00    -0.208 NA
ATOM     37  C   UNL     1      -0.444   6.131  -5.653  0.00  0.00    +0.256 C 
ATOM     38  O   UNL     1      -0.570   7.313  -5.985  0.00  0.00    -0.272 OA
BRANCH  36  40
ATOM     39  C   UNL     1      -2.696   6.688  -4.293  0.00  0.00    +0.022 C 
ATOM     40  C   UNL     1      -2.442   6.373  -4.066  0.00  0.00    +0.079 C 
ATOM     41  C   UNL     1      -3.401   5.334  -3.491  0.00  0.00    +0.022 C 
ATOM     42  C   UNL     1      -1.798   7.000  -2.835  0.00  0.00    +0.022 C 
ENDBRANCH  36  40
ENDBRANCH  26  37
ENDBRANCH  25  27
ENDBRANCH  23  25
ENDBRANCH   1  23
BRANCH   1  43
ATOM     43  C   UNL     1       3.354   7.348 -10.148  0.00  0.00    +0.051 C 
BRANCH  43  44
ATOM     44  C   UNL     1       4.761   6.983 -10.201  0.00  0.00    -0.020 A 
ATOM     45  C   UNL     1       5.110   5.787  -9.573  0.00  0.00    -0.004 A 
ATOM     46  C   UNL     1       6.452   5.579  -9.269  0.00  0.00    -0.000 A 
ATOM     47  C   UNL     1       7.441   6.140 -10.068  0.00  0.00    -0.000 A 
ATOM     48  C   UNL     1       7.046   7.198 -10.873  0.00  0.00    -0.000 A 
ATOM     49  C   UNL     1       5.711   7.410 -11.082  0.00  0.00    -0.004 A 
ENDBRANCH  43  44
ENDBRANCH   1  43
TORSDOF 13
ENDMDL
MODEL 8
REMARK VINA RESULT:      -7.9      2.381     10.916
REMARK  Name = 
REMARK  13 active torsions:
REMARK  status: ('A' for Active; 'I' for Inactive)
REMARK    1  A    between atoms: C_2  and  N_5
REMARK    2  A    between atoms: C_6  and  C_8
REMARK    3  A    between atoms: N_17  and  C_18
REMARK    4  A    between atoms: C_18  and  C_19
REMARK    5  A    between atoms: C_19  and  C_21
REMARK    6  A    between atoms: C_21  and  C_22
REMARK    7  A    between atoms: C_21  and  N_29
REMARK    8  A    between atoms: C_22  and  C_23
REMARK    9  A    between atoms: C_30  and  C_32
REMARK   10  A    between atoms: C_32  and  C_33
REMARK   11  A    between atoms: C_32  and  N_37
REMARK   12  A    between atoms: C_33  and  C_34
REMARK   13  A    between atoms: C_38  and  C_40
REMARK                            x       y       z     vdW  Elec       q    Type
REMARK                         _______ _______ _______ _____ _____    ______ ____
ROOT
ATOM      1  C   UNL     1       1.515   6.427  -3.509  0.00  0.00    +0.131 C 
ENDROOT
BRANCH   1   2
ATOM      2  N   UNL     1       2.656   5.615  -4.219  0.00  0.00    -0.203 NA
ATOM      3  C   UNL     1       2.856   6.151  -5.542  0.00  0.00    +0.262 C 
ATOM      4  O   UNL     1       2.082   7.003  -6.038  0.00  0.00    -0.271 OA
BRANCH   3   5
ATOM      5  C   UNL     1       3.469   5.079  -6.600  0.00  0.00    +0.182 C 
BRANCH   5   6
ATOM      6  N   UNL     1       2.497   5.555  -7.759  0.00  0.00    -0.192 NA
ATOM      7  C   UNL     1       1.796   4.484  -8.404  0.00  0.00    +0.283 C 
ATOM      8  O   UNL     1       2.535   3.505  -8.720  0.00  0.00    -0.267 OA
BRANCH   7   9
ATOM      9  C   UNL     1       0.830   4.921  -9.422  0.00  0.00    +0.136 A 
ATOM     10  N   UNL     1       0.695   4.319 -10.611  0.00  0.00    -0.241 NA
ATOM     11  C   UNL     1       0.395   5.052 -11.710  0.00  0.00    +0.081 A 
ATOM     12  C   UNL     1       0.175   6.415 -11.668  0.00  0.00    +0.018 A 
ATOM     13  C   UNL     1       0.622   7.233 -12.701  0.00  0.00    +0.001 A 
ATOM     14  C   UNL     1       1.253   6.662 -13.800  0.00  0.00    +0.000 A 
ATOM     15  C   UNL     1       1.005   5.330 -14.012  0.00  0.00    +0.002 A 
ATOM     16  C   UNL     1      -0.075   6.938 -10.406  0.00  0.00    +0.003 A 
ATOM     17  C   UNL     1       0.554   4.514 -12.982  0.00  0.00    +0.019 A 
ATOM     18  C   UNL     1       0.162   6.133  -9.298  0.00  0.00    +0.024 A 
ENDBRANCH   7   9
ENDBRANCH   5   6
BRANCH   5  19
ATOM     19  C   UNL     1       4.668   6.090  -7.133  0.00  0.00    +0.120 C 
BRANCH  19  20
ATOM     20  C   UNL     1       5.216   5.416  -8.336  0.00  0.00    +0.263 C 
ATOM     21  O   UNL     1       6.148   4.593  -8.250  0.00  0.00    -0.272 OA
ATOM     22  N   UNL     1       5.186   6.197  -9.536  0.00  0.00    -0.088 NA
ENDBRANCH  19  20
ENDBRANCH   5  19
ENDBRANCH   3   5
ENDBRANCH   1   2
BRANCH   1  23
ATOM     23  C   UNL     1       1.914   5.944  -1.900  0.00  0.00    +0.188 C 
ATOM     24  O   UNL     1       0.440   6.011  -1.536  0.00  0.00    -0.220 OA
BRANCH  23  25
ATOM     25  C   UNL     1       2.171   7.477  -1.346  0.00  0.00    +0.107 C 
BRANCH  25  27
ATOM     26  C   UNL     1       2.591   8.470   0.833  0.00  0.00    +0.137 C 
ATOM     27  N   UNL     1       1.953   7.227   0.081  0.00  0.00    -0.264 NA
ATOM     28  C   UNL     1       0.567   7.656   0.306  0.00  0.00    +0.072 C 
ATOM     29  C   UNL     1       0.132   7.038   1.739  0.00  0.00    +0.016 C 
ATOM     30  C   UNL     1       0.825   8.264   2.719  0.00  0.00    +0.003 C 
ATOM     31  C   UNL     1       0.702   9.517   1.688  0.00  0.00    +0.000 C 
ATOM     32  C   UNL     1      -0.713   9.995   1.753  0.00  0.00    +0.000 C 
ATOM     33  C   UNL     1      -1.464   8.908   1.009  0.00  0.00    +0.000 C 
ATOM     34  C   UNL     1      -1.361   7.677   1.764  0.00  0.00    +0.001 C 
ATOM     35  C   UNL     1       2.319   7.790   2.310  0.00  0.00    +0.025 C 
BRANCH  26  37
ATOM     36  N   UNL     1       5.043   8.788   1.470  0.00  0.00    -0.208 NA
ATOM     37  C   UNL     1       4.120   7.916   0.811  0.00  0.00    +0.256 C 
ATOM     38  O   UNL     1       4.267   6.701   0.972  0.00  0.00    -0.272 OA
BRANCH  36  40
ATOM     39  C   UNL     1       6.373   7.990   2.287  0.00  0.00    +0.022 C 
ATOM     40  C   UNL     1       6.100   8.355   2.378  0.00  0.00    +0.079 C 
ATOM     41  C   UNL     1       7.004   9.573   2.550  0.00  0.00    +0.022 C 
ATOM     42  C   UNL     1       5.436   8.193   3.740  0.00  0.00    +0.022 C 
ENDBRANCH  36  40
ENDBRANCH  26  37
ENDBRANCH  25  27
ENDBRANCH  23  25
ENDBRANCH   1  23
BRANCH   1  43
ATOM     43  C   UNL     1       0.443   5.210  -3.721  0.00  0.00    +0.051 C 
BRANCH  43  44
ATOM     44  C   UNL     1      -0.634   5.641  -4.598  0.00  0.00    -0.020 A 
ATOM     45  C   UNL     1      -1.094   6.945  -4.413  0.00  0.00    -0.004 A 
ATOM     46  C   UNL     1      -2.336   7.278  -4.944  0.00  0.00    -0.000 A 
ATOM     47  C   UNL     1      -2.792   6.647  -6.095  0.00  0.00    -0.000 A 
ATOM     48  C   UNL     1      -2.177   5.445  -6.414  0.00  0.00    -0.000 A 
ATOM     49  C   UNL     1      -0.994   5.125  -5.809  0.00  0.00    -0.004 A 
ENDBRANCH  43  44
ENDBRANCH   1  43
TORSDOF 13
ENDMDL
MODEL 9
REMARK VINA RESULT:      -7.6      2.418     10.284
REMARK  Name = 
REMARK  13 active torsions:
REMARK  status: ('A' for Active; 'I' for Inactive)
REMARK    1  A    between atoms: C_2  and  N_5
REMARK    2  A    between atoms: C_6  and  C_8
REMARK    3  A    between atoms: N_17  and  C_18
REMARK    4  A    between atoms: C_18  and  C_19
REMARK    5  A    between atoms: C_19  and  C_21
REMARK    6  A    between atoms: C_21  and  C_22
REMARK    7  A    between atoms: C_21  and  N_29
REMARK    8  A    between atoms: C_22  and  C_23
REMARK    9  A    between atoms: C_30  and  C_32
REMARK   10  A    between atoms: C_32  and  C_33
REMARK   11  A    between atoms: C_32  and  N_37
REMARK   12  A    between atoms: C_33  and  C_34
REMARK   13  A    between atoms: C_38  and  C_40
REMARK                            x       y       z     vdW  Elec       q    Type
REMARK                         _______ _______ _______ _____ _____    ______ ____
ROOT
ATOM      1  C   UNL     1       1.136   6.595  -3.721  0.00  0.00    +0.131 C 
ENDROOT
BRANCH   1   2
ATOM      2  N   UNL     1       2.309   5.760  -4.349  0.00  0.00    -0.203 NA
ATOM      3  C   UNL     1       2.595   6.274  -5.665  0.00  0.00    +0.262 C 
ATOM      4  O   UNL     1       1.861   7.126  -6.220  0.00  0.00    -0.271 OA
BRANCH   3   5
ATOM      5  C   UNL     1       3.259   5.179  -6.668  0.00  0.00    +0.182 C 
BRANCH   5   6
ATOM      6  N   UNL     1       2.341   5.625  -7.881  0.00  0.00    -0.192 NA
ATOM      7  C   UNL     1       1.662   4.538  -8.524  0.00  0.00    +0.283 C 
ATOM      8  O   UNL     1       2.408   3.546  -8.778  0.00  0.00    -0.267 OA
BRANCH   7   9
ATOM      9  C   UNL     1       0.744   4.948  -9.596  0.00  0.00    +0.136 A 
ATOM     10  N   UNL     1       0.666   4.320 -10.776  0.00  0.00    -0.241 NA
ATOM     11  C   UNL     1       0.417   5.027 -11.904  0.00  0.00    +0.081 A 
ATOM     12  C   UNL     1       0.192   6.390 -11.903  0.00  0.00    +0.018 A 
ATOM     13  C   UNL     1       0.686   7.186 -12.932  0.00  0.00    +0.001 A 
ATOM     14  C   UNL     1       1.368   6.592 -13.988  0.00  0.00    +0.000 A 
ATOM     15  C   UNL     1       1.134   5.255 -14.180  0.00  0.00    +0.002 A 
ATOM     16  C   UNL     1      -0.118   6.940 -10.666  0.00  0.00    +0.003 A 
ATOM     17  C   UNL     1       0.637   4.461 -13.155  0.00  0.00    +0.019 A 
ATOM     18  C   UNL     1       0.068   6.161  -9.531  0.00  0.00    +0.024 A 
ENDBRANCH   7   9
ENDBRANCH   5   6
BRANCH   5  19
ATOM     19  C   UNL     1       4.479   6.181  -7.168  0.00  0.00    +0.120 C 
BRANCH  19  20
ATOM     20  C   UNL     1       5.055   5.503  -8.355  0.00  0.00    +0.263 C 
ATOM     21  O   UNL     1       5.956   4.650  -8.242  0.00  0.00    -0.272 OA
ATOM     22  N   UNL     1       5.099   6.298  -9.546  0.00  0.00    -0.088 NA
ENDBRANCH  19  20
ENDBRANCH   5  19
ENDBRANCH   3   5
ENDBRANCH   1   2
BRANCH   1  23
ATOM     23  C   UNL     1       1.475   6.189  -2.078  0.00  0.00    +0.188 C 
ATOM     24  O   UNL     1       0.094   6.689  -1.691  0.00  0.00    -0.220 OA
BRANCH  23  25
ATOM     25  C   UNL     1       2.161   7.643  -1.706  0.00  0.00    +0.107 C 
BRANCH  25  27
ATOM     26  C   UNL     1       3.903   8.081  -0.068  0.00  0.00    +0.137 C 
ATOM     27  N   UNL     1       2.509   7.364  -0.310  0.00  0.00    -0.264 NA
ATOM     28  C   UNL     1       1.737   8.354   0.450  0.00  0.00    +0.072 C 
ATOM     29  C   UNL     1       1.751   7.850   1.990  0.00  0.00    +0.016 C 
ATOM     30  C   UNL     1       3.281   8.502   2.413  0.00  0.00    +0.003 C 
ATOM     31  C   UNL     1       3.305   9.777   1.402  0.00  0.00    +0.000 C 
ATOM     32  C   UNL     1       2.462  10.842   2.028  0.00  0.00    +0.000 C 
ATOM     33  C   UNL     1       1.056  10.313   1.824  0.00  0.00    +0.000 C 
ATOM     34  C   UNL     1       0.904   9.097   2.594  0.00  0.00    +0.001 C 
ATOM     35  C   UNL     1       4.034   7.443   1.446  0.00  0.00    +0.025 C 
BRANCH  26  37
ATOM     36  N   UNL     1       4.428   5.589  -0.251  0.00  0.00    -0.208 NA
ATOM     37  C   UNL     1       4.817   6.892  -0.696  0.00  0.00    +0.256 C 
ATOM     38  O   UNL     1       5.145   7.017  -1.880  0.00  0.00    -0.272 OA
BRANCH  36  40
ATOM     39  C   UNL     1       4.390   4.429  -1.564  0.00  0.00    +0.022 C 
ATOM     40  C   UNL     1       4.317   4.412  -1.106  0.00  0.00    +0.079 C 
ATOM     41  C   UNL     1       5.296   3.398  -0.521  0.00  0.00    +0.022 C 
ATOM     42  C   UNL     1       2.946   3.814  -0.811  0.00  0.00    +0.022 C 
ENDBRANCH  36  40
ENDBRANCH  26  37
ENDBRANCH  25  27
ENDBRANCH  23  25
ENDBRANCH   1  23
BRANCH   1  43
ATOM     43  C   UNL     1       0.081   5.360  -3.918  0.00  0.00    +0.051 C 
BRANCH  43  44
ATOM     44  C   UNL     1      -0.975   5.749  -4.840  0.00  0.00    -0.020 A 
ATOM     45  C   UNL     1      -1.524   7.016  -4.647  0.00  0.00    -0.004 A 
ATOM     46  C   UNL     1      -2.756   7.288  -5.234  0.00  0.00    -0.000 A 
ATOM     47  C   UNL     1      -3.113   6.661  -6.422  0.00  0.00    -0.000 A 
ATOM     48  C   UNL     1      -2.409   5.509  -6.738  0.00  0.00    -0.000 A 
ATOM     49  C   UNL     1      -1.240   5.245  -6.079  0.00  0.00    -0.004 A 
ENDBRANCH  43  44
ENDBRANCH   1  43
TORSDOF 13
ENDMDL
