MODEL 1
REMARK VINA RESULT:     -11.2      0.000      0.000
REMARK  Name = 
REMARK  4 active torsions:
REMARK  status: ('A' for Active; 'I' for Inactive)
REMARK    1  A    between atoms: C_20  and  C_21
REMARK    2  A    between atoms: N_23  and  C_24
REMARK    3  A    between atoms: C_26  and  C_27
REMARK    4  A    between atoms: C_33  and  C_34
REMARK                            x       y       z     vdW  Elec       q    Type
REMARK                         _______ _______ _______ _____ _____    ______ ____
ROOT
ATOM      1  C   UNL     1       1.537   5.543  -6.293  0.00  0.00    +0.000 C 
ATOM      2  C   UNL     1       0.195   5.690  -5.641  0.00  0.00    +0.008 C 
ATOM      3  C   UNL     1       0.130   5.395  -7.110  0.00  0.00    +0.079 C 
ATOM      4  C   UNL     1      -1.315   5.332  -7.507  0.00  0.00    +0.009 C 
ATOM      5  C   UNL     1      -2.143   5.588  -6.283  0.00  0.00    +0.001 C 
ATOM      6  C   UNL     1      -1.211   5.810  -5.130  0.00  0.00    +0.000 C 
ATOM      7  C   UNL     1      -1.459   6.104  -3.680  0.00  0.00    +0.000 C 
ATOM      8  C   UNL     1      -2.864   6.224  -3.169  0.00  0.00    +0.002 C 
ATOM      9  C   UNL     1      -3.113   6.519  -1.720  0.00  0.00    +0.022 C 
ATOM     10  C   UNL     1      -1.956   6.694  -0.781  0.00  0.00    +0.099 C 
ATOM     11  C   UNL     1      -0.551   6.575  -1.292  0.00  0.00    +0.037 C 
ATOM     12  C   UNL     1       0.854   6.455  -1.803  0.00  0.00    +0.006 C 
ATOM     13  C   UNL     1       0.606   6.750  -0.353  0.00  0.00    -0.020 C 
ATOM     14  C   UNL     1       0.358   7.045   1.096  0.00  0.00    +0.055 C 
ATOM     15  C   UNL     1      -1.047   7.164   1.608  0.00  0.00    +0.265 C 
ATOM     16  O   UNL     1      -1.295   7.459   3.057  0.00  0.00    -0.268 OA
ATOM     17  N   UNL     1      -2.204   6.989   0.669  0.00  0.00    -0.203 NA
ATOM     18  C   UNL     1      -0.302   6.280  -2.742  0.00  0.00    +0.005 C 
ATOM     19  C   UNL     1       1.103   6.160  -3.253  0.00  0.00    +0.000 C 
ATOM     20  C   UNL     1       1.352   5.865  -4.702  0.00  0.00    +0.000 C 
ENDROOT
BRANCH   3  21
ATOM     21  C   UNL     1       1.304   5.197  -8.022  0.00  0.00    +0.245 C 
ATOM     22  N   UNL     1       1.730   6.299  -8.946  0.00  0.00    -0.179 NA
ATOM     23  O   UNL     1       2.052   3.897  -8.010  0.00  0.00    -0.273 OA
BRANCH  22  24
ATOM     24  C   UNL     1       2.904   6.101  -9.859  0.00  0.00    +0.077 A 
ATOM     25  C   UNL     1       2.685   5.878 -11.325  0.00  0.00    +0.087 A 
ATOM     26  C   UNL     1       3.859   5.680 -12.238  0.00  0.00    +0.005 A 
ATOM     27  C   UNL     1       5.252   5.706 -11.683  0.00  0.00    +0.004 A 
ATOM     28  C   UNL     1       5.472   5.929 -10.216  0.00  0.00    +0.073 A 
ATOM     29  C   UNL     1       4.298   6.127  -9.303  0.00  0.00    +0.020 A 
BRANCH  25  30
ATOM     30  C   UNL     1       1.292   5.852 -11.881  0.00  0.00    +0.420 C 
ATOM     31  F   UNL     1       1.072   4.503 -11.264  0.00  0.00    -0.166 F 
ATOM     32  F   UNL     1       1.512   7.202 -12.497  0.00  0.00    -0.166 F 
ATOM     33  F   UNL     1      -0.102   5.827 -12.436  0.00  0.00    -0.166 F 
ENDBRANCH  25  30
BRANCH  28  34
ATOM     34  C   UNL     1       6.865   5.955  -9.661  0.00  0.00    +0.419 C 
ATOM     35  F   UNL     1       7.254   6.980 -10.684  0.00  0.00    -0.166 F 
ATOM     36  F   UNL     1       6.476   4.930  -8.637  0.00  0.00    -0.166 F 
ATOM     37  F   UNL     1       8.259   5.981  -9.106  0.00  0.00    -0.166 F 
ENDBRANCH  28  34
ENDBRANCH  22  24
ENDBRANCH   3  21
TORSDOF 4
ENDMDL
MODEL 2
REMARK VINA RESULT:     -11.0      2.204      2.950
REMARK  Name = 
REMARK  4 active torsions:
REMARK  status: ('A' for Active; 'I' for Inactive)
REMARK    1  A    between atoms: C_20  and  C_21
REMARK    2  A    between atoms: N_23  and  C_24
REMARK    3  A    between atoms: C_26  and  C_27
REMARK    4  A    between atoms: C_33  and  C_34
REMARK                            x       y       z     vdW  Elec       q    Type
REMARK                         _______ _______ _______ _____ _____    ______ ____
ROOT
ATOM      1  C   UNL     1       3.177   5.414  -6.772  0.00  0.00    +0.000 C 
ATOM      2  C   UNL     1       2.224   5.565  -5.625  0.00  0.00    +0.008 C 
ATOM      3  C   UNL     1       1.568   5.170  -6.914  0.00  0.00    +0.079 C 
ATOM      4  C   UNL     1       0.095   5.038  -6.664  0.00  0.00    +0.009 C 
ATOM      5  C   UNL     1      -0.160   5.352  -5.220  0.00  0.00    +0.001 C 
ATOM      6  C   UNL     1       1.155   5.678  -4.577  0.00  0.00    +0.000 C 
ATOM      7  C   UNL     1       1.518   6.063  -3.174  0.00  0.00    +0.000 C 
ATOM      8  C   UNL     1       0.450   6.175  -2.127  0.00  0.00    +0.002 C 
ATOM      9  C   UNL     1       0.814   6.560  -0.723  0.00  0.00    +0.022 C 
ATOM     10  C   UNL     1       2.245   6.833  -0.366  0.00  0.00    +0.099 C 
ATOM     11  C   UNL     1       3.313   6.720  -1.414  0.00  0.00    +0.037 C 
ATOM     12  C   UNL     1       4.381   6.608  -2.461  0.00  0.00    +0.006 C 
ATOM     13  C   UNL     1       4.744   6.993  -1.057  0.00  0.00    -0.020 C 
ATOM     14  C   UNL     1       5.108   7.377   0.346  0.00  0.00    +0.055 C 
ATOM     15  C   UNL     1       4.040   7.490   1.394  0.00  0.00    +0.265 C 
ATOM     16  O   UNL     1       4.403   7.875   2.796  0.00  0.00    -0.268 OA
ATOM     17  N   UNL     1       2.609   7.218   1.037  0.00  0.00    -0.203 NA
ATOM     18  C   UNL     1       2.950   6.335  -2.817  0.00  0.00    +0.005 C 
ATOM     19  C   UNL     1       4.018   6.223  -3.864  0.00  0.00    +0.000 C 
ATOM     20  C   UNL     1       3.655   5.838  -5.268  0.00  0.00    +0.000 C 
ENDROOT
BRANCH   3  21
ATOM     21  C   UNL     1       2.263   4.945  -8.224  0.00  0.00    +0.245 C 
ATOM     22  N   UNL     1       2.543   6.104  -9.133  0.00  0.00    -0.179 NA
ATOM     23  O   UNL     1       2.678   3.561  -8.625  0.00  0.00    -0.273 OA
BRANCH  22  24
ATOM     24  C   UNL     1       3.239   5.880 -10.443  0.00  0.00    +0.077 A 
ATOM     25  C   UNL     1       2.440   5.777 -11.708  0.00  0.00    +0.087 A 
ATOM     26  C   UNL     1       3.135   5.552 -13.019  0.00  0.00    +0.005 A 
ATOM     27  C   UNL     1       4.629   5.431 -13.063  0.00  0.00    +0.004 A 
ATOM     28  C   UNL     1       5.428   5.534 -11.798  0.00  0.00    +0.073 A 
ATOM     29  C   UNL     1       4.733   5.759 -10.487  0.00  0.00    +0.020 A 
BRANCH  25  30
ATOM     30  C   UNL     1       0.945   5.898 -11.664  0.00  0.00    +0.420 C 
ATOM     31  F   UNL     1       1.049   7.325 -12.116  0.00  0.00    -0.166 F 
ATOM     32  F   UNL     1       0.843   4.472 -11.212  0.00  0.00    -0.166 F 
ATOM     33  F   UNL     1      -0.549   6.020 -11.620  0.00  0.00    -0.166 F 
ENDBRANCH  25  30
BRANCH  28  34
ATOM     34  C   UNL     1       6.923   5.413 -11.842  0.00  0.00    +0.419 C 
ATOM     35  F   UNL     1       6.994   5.754 -10.383  0.00  0.00    -0.166 F 
ATOM     36  F   UNL     1       6.852   5.071 -13.301  0.00  0.00    -0.166 F 
ATOM     37  F   UNL     1       8.417   5.292 -11.885  0.00  0.00    -0.166 F 
ENDBRANCH  28  34
ENDBRANCH  22  24
ENDBRANCH   3  21
TORSDOF 4
ENDMDL
MODEL 3
REMARK VINA RESULT:     -11.0      2.281      4.343
REMARK  Name = 
REMARK  4 active torsions:
REMARK  status: ('A' for Active; 'I' for Inactive)
REMARK    1  A    between atoms: C_20  and  C_21
REMARK    2  A    between atoms: N_23  and  C_24
REMARK    3  A    between atoms: C_26  and  C_27
REMARK    4  A    between atoms: C_33  and  C_34
REMARK                            x       y       z     vdW  Elec       q    Type
REMARK                         _______ _______ _______ _____ _____    ______ ____
ROOT
ATOM      1  C   UNL     1       2.020   5.579  -7.717  0.00  0.00    +0.000 C 
ATOM      2  C   UNL     1       1.203   5.685  -6.464  0.00  0.00    +0.008 C 
ATOM      3  C   UNL     1       0.391   5.446  -7.702  0.00  0.00    +0.079 C 
ATOM      4  C   UNL     1      -1.054   5.381  -7.304  0.00  0.00    +0.009 C 
ATOM      5  C   UNL     1      -1.136   5.581  -5.821  0.00  0.00    +0.001 C 
ATOM      6  C   UNL     1       0.258   5.769  -5.301  0.00  0.00    +0.000 C 
ATOM      7  C   UNL     1       0.791   6.005  -3.918  0.00  0.00    +0.000 C 
ATOM      8  C   UNL     1      -0.153   6.088  -2.755  0.00  0.00    +0.002 C 
ATOM      9  C   UNL     1       0.380   6.325  -1.373  0.00  0.00    +0.022 C 
ATOM     10  C   UNL     1       1.856   6.478  -1.153  0.00  0.00    +0.099 C 
ATOM     11  C   UNL     1       2.799   6.394  -2.316  0.00  0.00    +0.037 C 
ATOM     12  C   UNL     1       3.743   6.311  -3.479  0.00  0.00    +0.006 C 
ATOM     13  C   UNL     1       4.275   6.548  -2.097  0.00  0.00    -0.020 C 
ATOM     14  C   UNL     1       4.807   6.784  -0.715  0.00  0.00    +0.055 C 
ATOM     15  C   UNL     1       3.864   6.867   0.449  0.00  0.00    +0.265 C 
ATOM     16  O   UNL     1       4.396   7.103   1.830  0.00  0.00    -0.268 OA
ATOM     17  N   UNL     1       2.388   6.714   0.229  0.00  0.00    -0.203 NA
ATOM     18  C   UNL     1       2.267   6.158  -3.699  0.00  0.00    +0.005 C 
ATOM     19  C   UNL     1       3.210   6.075  -4.862  0.00  0.00    +0.000 C 
ATOM     20  C   UNL     1       2.679   5.839  -6.244  0.00  0.00    +0.000 C 
ENDROOT
BRANCH   3  21
ATOM     21  C   UNL     1       0.930   5.297  -9.094  0.00  0.00    +0.245 C 
ATOM     22  N   UNL     1       1.403   6.504  -9.848  0.00  0.00    -0.179 NA
ATOM     23  O   UNL     1       0.995   3.941  -9.731  0.00  0.00    -0.273 OA
BRANCH  22  24
ATOM     24  C   UNL     1       1.942   6.355 -11.241  0.00  0.00    +0.077 A 
ATOM     25  C   UNL     1       3.407   6.122 -11.456  0.00  0.00    +0.087 A 
ATOM     26  C   UNL     1       3.946   5.973 -12.848  0.00  0.00    +0.005 A 
ATOM     27  C   UNL     1       3.019   6.058 -14.024  0.00  0.00    +0.004 A 
ATOM     28  C   UNL     1       1.553   6.291 -13.808  0.00  0.00    +0.073 A 
ATOM     29  C   UNL     1       1.014   6.439 -12.416  0.00  0.00    +0.020 A 
BRANCH  25  30
ATOM     30  C   UNL     1       4.335   6.037 -10.281  0.00  0.00    +0.420 C 
ATOM     31  F   UNL     1       4.068   4.565 -10.177  0.00  0.00    -0.166 F 
ATOM     32  F   UNL     1       4.602   7.510 -10.385  0.00  0.00    -0.166 F 
ATOM     33  F   UNL     1       5.263   5.953  -9.105  0.00  0.00    -0.166 F 
ENDBRANCH  25  30
BRANCH  28  34
ATOM     34  C   UNL     1       0.625   6.375 -14.984  0.00  0.00    +0.419 C 
ATOM     35  F   UNL     1       0.320   4.913 -14.849  0.00  0.00    -0.166 F 
ATOM     36  F   UNL     1       0.930   7.838 -15.120  0.00  0.00    -0.166 F 
ATOM     37  F   UNL     1      -0.303   6.459 -16.160  0.00  0.00    -0.166 F 
ENDBRANCH  28  34
ENDBRANCH  22  24
ENDBRANCH   3  21
TORSDOF 4
ENDMDL
MODEL 4
REMARK VINA RESULT:     -10.8      4.222     10.437
REMARK  Name = 
REMARK  4 active torsions:
REMARK  status: ('A' for Active; 'I' for Inactive)
REMARK    1  A    between atoms: C_20  and  C_21
REMARK    2  A    between atoms: N_23  and  C_24
REMARK    3  A    between atoms: C_26  and  C_27
REMARK    4  A    between atoms: C_33  and  C_34
REMARK                            x       y       z     vdW  Elec       q    Type
REMARK                         _______ _______ _______ _____ _____    ______ ____
ROOT
ATOM      1  C   UNL     1       2.736   5.314  -7.632  0.00  0.00    +0.000 C 
ATOM      2  C   UNL     1       2.266   5.472  -9.047  0.00  0.00    +0.008 C 
ATOM      3  C   UNL     1       1.156   5.327  -8.050  0.00  0.00    +0.079 C 
ATOM      4  C   UNL     1      -0.146   5.384  -8.792  0.00  0.00    +0.009 C 
ATOM      5  C   UNL     1       0.160   5.565 -10.249  0.00  0.00    +0.001 C 
ATOM      6  C   UNL     1       1.650   5.620 -10.407  0.00  0.00    +0.000 C 
ATOM      7  C   UNL     1       2.526   5.784 -11.614  0.00  0.00    +0.000 C 
ATOM      8  C   UNL     1       1.910   5.932 -12.973  0.00  0.00    +0.002 C 
ATOM      9  C   UNL     1       2.787   6.096 -14.180  0.00  0.00    +0.022 C 
ATOM     10  C   UNL     1       4.279   6.114 -14.026  0.00  0.00    +0.099 C 
ATOM     11  C   UNL     1       4.894   5.966 -12.667  0.00  0.00    +0.037 C 
ATOM     12  C   UNL     1       5.510   5.819 -11.307  0.00  0.00    +0.006 C 
ATOM     13  C   UNL     1       6.386   5.983 -12.514  0.00  0.00    -0.020 C 
ATOM     14  C   UNL     1       7.262   6.148 -13.719  0.00  0.00    +0.055 C 
ATOM     15  C   UNL     1       6.647   6.296 -15.080  0.00  0.00    +0.265 C 
ATOM     16  O   UNL     1       7.523   6.460 -16.285  0.00  0.00    -0.268 OA
ATOM     17  N   UNL     1       5.155   6.278 -15.233  0.00  0.00    -0.203 NA
ATOM     18  C   UNL     1       4.018   5.801 -11.460  0.00  0.00    +0.005 C 
ATOM     19  C   UNL     1       4.634   5.654 -10.101  0.00  0.00    +0.000 C 
ATOM     20  C   UNL     1       3.758   5.489  -8.894  0.00  0.00    +0.000 C 
ENDROOT
BRANCH   3  21
ATOM     21  C   UNL     1       1.319   5.154  -6.568  0.00  0.00    +0.245 C 
ATOM     22  N   UNL     1       1.348   6.355  -5.672  0.00  0.00    -0.179 NA
ATOM     23  O   UNL     1       1.452   3.779  -5.984  0.00  0.00    -0.273 OA
BRANCH  22  24
ATOM     24  C   UNL     1       1.511   6.182  -4.190  0.00  0.00    +0.077 A 
ATOM     25  C   UNL     1       2.883   6.107  -3.591  0.00  0.00    +0.087 A 
ATOM     26  C   UNL     1       3.046   5.934  -2.109  0.00  0.00    +0.005 A 
ATOM     27  C   UNL     1       1.836   5.837  -1.229  0.00  0.00    +0.004 A 
ATOM     28  C   UNL     1       0.463   5.913  -1.828  0.00  0.00    +0.073 A 
ATOM     29  C   UNL     1       0.300   6.085  -3.310  0.00  0.00    +0.020 A 
BRANCH  25  30
ATOM     30  C   UNL     1       4.094   6.204  -4.471  0.00  0.00    +0.420 C 
ATOM     31  F   UNL     1       4.180   4.707  -4.516  0.00  0.00    -0.166 F 
ATOM     32  F   UNL     1       4.006   7.701  -4.426  0.00  0.00    -0.166 F 
ATOM     33  F   UNL     1       5.304   6.301  -5.352  0.00  0.00    -0.166 F 
ENDBRANCH  25  30
BRANCH  28  34
ATOM     34  C   UNL     1      -0.747   5.815  -0.948  0.00  0.00    +0.419 C 
ATOM     35  F   UNL     1      -1.538   5.262  -2.096  0.00  0.00    -0.166 F 
ATOM     36  F   UNL     1       0.044   6.369   0.201  0.00  0.00    -0.166 F 
ATOM     37  F   UNL     1      -1.958   5.718  -0.068  0.00  0.00    -0.166 F 
ENDBRANCH  28  34
ENDBRANCH  22  24
ENDBRANCH   3  21
TORSDOF 4
ENDMDL
MODEL 5
REMARK VINA RESULT:     -10.7      4.282     10.676
REMARK  Name = 
REMARK  4 active torsions:
REMARK  status: ('A' for Active; 'I' for Inactive)
REMARK    1  A    between atoms: C_20  and  C_21
REMARK    2  A    between atoms: N_23  and  C_24
REMARK    3  A    between atoms: C_26  and  C_27
REMARK    4  A    between atoms: C_33  and  C_34
REMARK                            x       y       z     vdW  Elec       q    Type
REMARK                         _______ _______ _______ _____ _____    ______ ____
ROOT
ATOM      1  C   UNL     1       1.201   5.646  -7.718  0.00  0.00    +0.000 C 
ATOM      2  C   UNL     1       2.239   5.584  -8.798  0.00  0.00    +0.008 C 
ATOM      3  C   UNL     1       2.751   5.213  -7.438  0.00  0.00    +0.079 C 
ATOM      4  C   UNL     1       4.207   4.877  -7.566  0.00  0.00    +0.009 C 
ATOM      5  C   UNL     1       4.596   5.040  -9.005  0.00  0.00    +0.001 C 
ATOM      6  C   UNL     1       3.380   5.477  -9.767  0.00  0.00    +0.000 C 
ATOM      7  C   UNL     1       3.164   5.792 -11.217  0.00  0.00    +0.000 C 
ATOM      8  C   UNL     1       4.304   5.685 -12.186  0.00  0.00    +0.002 C 
ATOM      9  C   UNL     1       4.088   6.000 -13.637  0.00  0.00    +0.022 C 
ATOM     10  C   UNL     1       2.731   6.422 -14.119  0.00  0.00    +0.099 C 
ATOM     11  C   UNL     1       1.591   6.529 -13.150  0.00  0.00    +0.037 C 
ATOM     12  C   UNL     1       0.451   6.636 -12.181  0.00  0.00    +0.006 C 
ATOM     13  C   UNL     1       0.235   6.951 -13.632  0.00  0.00    -0.020 C 
ATOM     14  C   UNL     1       0.019   7.265 -15.082  0.00  0.00    +0.055 C 
ATOM     15  C   UNL     1       1.159   7.158 -16.052  0.00  0.00    +0.265 C 
ATOM     16  O   UNL     1       0.942   7.473 -17.501  0.00  0.00    -0.268 OA
ATOM     17  N   UNL     1       2.515   6.736 -15.570  0.00  0.00    -0.203 NA
ATOM     18  C   UNL     1       1.808   6.214 -11.699  0.00  0.00    +0.005 C 
ATOM     19  C   UNL     1       0.668   6.321 -10.731  0.00  0.00    +0.000 C 
ATOM     20  C   UNL     1       0.883   6.006  -9.280  0.00  0.00    +0.000 C 
ENDROOT
BRANCH   3  21
ATOM     21  C   UNL     1       1.948   5.183  -6.172  0.00  0.00    +0.245 C 
ATOM     22  N   UNL     1       1.935   6.376  -5.263  0.00  0.00    -0.179 NA
ATOM     23  O   UNL     1       1.156   3.960  -5.815  0.00  0.00    -0.273 OA
BRANCH  22  24
ATOM     24  C   UNL     1       1.131   6.346  -3.997  0.00  0.00    +0.077 A 
ATOM     25  C   UNL     1       1.826   6.335  -2.668  0.00  0.00    +0.087 A 
ATOM     26  C   UNL     1       1.022   6.305  -1.401  0.00  0.00    +0.005 A 
ATOM     27  C   UNL     1      -0.476   6.287  -1.465  0.00  0.00    +0.004 A 
ATOM     28  C   UNL     1      -1.171   6.298  -2.794  0.00  0.00    +0.073 A 
ATOM     29  C   UNL     1      -0.367   6.328  -4.060  0.00  0.00    +0.020 A 
BRANCH  25  30
ATOM     30  C   UNL     1       3.325   6.353  -2.604  0.00  0.00    +0.420 C 
ATOM     31  F   UNL     1       3.307   7.852  -2.639  0.00  0.00    -0.166 F 
ATOM     32  F   UNL     1       3.341   4.853  -2.569  0.00  0.00    -0.166 F 
ATOM     33  F   UNL     1       4.823   6.371  -2.540  0.00  0.00    -0.166 F 
ENDBRANCH  25  30
BRANCH  28  34
ATOM     34  C   UNL     1      -2.670   6.280  -2.857  0.00  0.00    +0.419 C 
ATOM     35  F   UNL     1      -2.642   4.798  -3.085  0.00  0.00    -0.166 F 
ATOM     36  F   UNL     1      -2.697   7.763  -2.630  0.00  0.00    -0.166 F 
ATOM     37  F   UNL     1      -4.168   6.261  -2.921  0.00  0.00    -0.166 F 
ENDBRANCH  28  34
ENDBRANCH  22  24
ENDBRANCH   3  21
TORSDOF 4
ENDMDL
MODEL 6
REMARK VINA RESULT:     -10.7      4.085     11.389
REMARK  Name = 
REMARK  4 active torsions:
REMARK  status: ('A' for Active; 'I' for Inactive)
REMARK    1  A    between atoms: C_20  and  C_21
REMARK    2  A    between atoms: N_23  and  C_24
REMARK    3  A    between atoms: C_26  and  C_27
REMARK    4  A    between atoms: C_33  and  C_34
REMARK                            x       y       z     vdW  Elec       q    Type
REMARK                         _______ _______ _______ _____ _____    ______ ____
ROOT
ATOM      1  C   UNL     1       3.297   5.390  -9.425  0.00  0.00    +0.000 C 
ATOM      2  C   UNL     1       4.666   5.509 -10.025  0.00  0.00    +0.008 C 
ATOM      3  C   UNL     1       4.668   5.203  -8.557  0.00  0.00    +0.079 C 
ATOM      4  C   UNL     1       6.095   5.103  -8.106  0.00  0.00    +0.009 C 
ATOM      5  C   UNL     1       6.975   5.347  -9.295  0.00  0.00    +0.001 C 
ATOM      6  C   UNL     1       6.093   5.597 -10.481  0.00  0.00    +0.000 C 
ATOM      7  C   UNL     1       6.403   5.895 -11.918  0.00  0.00    +0.000 C 
ATOM      8  C   UNL     1       7.829   5.984 -12.375  0.00  0.00    +0.002 C 
ATOM      9  C   UNL     1       8.139   6.281 -13.812  0.00  0.00    +0.022 C 
ATOM     10  C   UNL     1       7.024   6.490 -14.793  0.00  0.00    +0.099 C 
ATOM     11  C   UNL     1       5.598   6.402 -14.336  0.00  0.00    +0.037 C 
ATOM     12  C   UNL     1       4.172   6.313 -13.880  0.00  0.00    +0.006 C 
ATOM     13  C   UNL     1       4.482   6.610 -15.317  0.00  0.00    -0.020 C 
ATOM     14  C   UNL     1       4.792   6.908 -16.753  0.00  0.00    +0.055 C 
ATOM     15  C   UNL     1       6.219   6.997 -17.211  0.00  0.00    +0.265 C 
ATOM     16  O   UNL     1       6.528   7.294 -18.647  0.00  0.00    -0.268 OA
ATOM     17  N   UNL     1       7.334   6.788 -16.230  0.00  0.00    -0.203 NA
ATOM     18  C   UNL     1       5.288   6.104 -12.899  0.00  0.00    +0.005 C 
ATOM     19  C   UNL     1       3.862   6.015 -12.443  0.00  0.00    +0.000 C 
ATOM     20  C   UNL     1       3.550   5.717 -11.006  0.00  0.00    +0.000 C 
ENDROOT
BRANCH   3  21
ATOM     21  C   UNL     1       3.456   5.028  -7.691  0.00  0.00    +0.245 C 
ATOM     22  N   UNL     1       3.050   6.114  -6.740  0.00  0.00    -0.179 NA
ATOM     23  O   UNL     1       2.650   3.766  -7.777  0.00  0.00    -0.273 OA
BRANCH  22  24
ATOM     24  C   UNL     1       1.837   5.939  -5.874  0.00  0.00    +0.077 A 
ATOM     25  C   UNL     1       1.996   5.656  -4.410  0.00  0.00    +0.087 A 
ATOM     26  C   UNL     1       0.783   5.481  -3.544  0.00  0.00    +0.005 A 
ATOM     27  C   UNL     1      -0.587   5.590  -4.143  0.00  0.00    +0.004 A 
ATOM     28  C   UNL     1      -0.746   5.873  -5.608  0.00  0.00    +0.073 A 
ATOM     29  C   UNL     1       0.466   6.048  -6.474  0.00  0.00    +0.020 A 
BRANCH  25  30
ATOM     30  C   UNL     1       3.367   5.547  -3.811  0.00  0.00    +0.420 C 
ATOM     31  F   UNL     1       3.523   4.184  -4.419  0.00  0.00    -0.166 F 
ATOM     32  F   UNL     1       3.209   6.909  -3.203  0.00  0.00    -0.166 F 
ATOM     33  F   UNL     1       4.738   5.438  -3.212  0.00  0.00    -0.166 F 
ENDBRANCH  25  30
BRANCH  28  34
ATOM     34  C   UNL     1      -2.117   5.982  -6.207  0.00  0.00    +0.419 C 
ATOM     35  F   UNL     1      -1.823   4.807  -7.092  0.00  0.00    -0.166 F 
ATOM     36  F   UNL     1      -2.411   7.156  -5.321  0.00  0.00    -0.166 F 
ATOM     37  F   UNL     1      -3.488   6.090  -6.807  0.00  0.00    -0.166 F 
ENDBRANCH  28  34
ENDBRANCH  22  24
ENDBRANCH   3  21
TORSDOF 4
ENDMDL
MODEL 7
REMARK VINA RESULT:     -10.6      1.968      3.488
REMARK  Name = 
REMARK  4 active torsions:
REMARK  status: ('A' for Active; 'I' for Inactive)
REMARK    1  A    between atoms: C_20  and  C_21
REMARK    2  A    between atoms: N_23  and  C_24
REMARK    3  A    between atoms: C_26  and  C_27
REMARK    4  A    between atoms: C_33  and  C_34
REMARK                            x       y       z     vdW  Elec       q    Type
REMARK                         _______ _______ _______ _____ _____    ______ ____
ROOT
ATOM      1  C   UNL     1       2.168   5.330  -7.222  0.00  0.00    +0.000 C 
ATOM      2  C   UNL     1       2.657   5.635  -5.838  0.00  0.00    +0.008 C 
ATOM      3  C   UNL     1       3.750   5.519  -6.858  0.00  0.00    +0.079 C 
ATOM      4  C   UNL     1       5.059   5.751  -6.164  0.00  0.00    +0.009 C 
ATOM      5  C   UNL     1       4.776   6.011  -4.715  0.00  0.00    +0.001 C 
ATOM      6  C   UNL     1       3.292   5.940  -4.513  0.00  0.00    +0.000 C 
ATOM      7  C   UNL     1       2.436   6.112  -3.293  0.00  0.00    +0.000 C 
ATOM      8  C   UNL     1       3.070   6.416  -1.968  0.00  0.00    +0.002 C 
ATOM      9  C   UNL     1       2.213   6.589  -0.749  0.00  0.00    +0.022 C 
ATOM     10  C   UNL     1       0.723   6.457  -0.854  0.00  0.00    +0.099 C 
ATOM     11  C   UNL     1       0.089   6.153  -2.179  0.00  0.00    +0.037 C 
ATOM     12  C   UNL     1      -0.545   5.849  -3.503  0.00  0.00    +0.006 C 
ATOM     13  C   UNL     1      -1.402   6.021  -2.284  0.00  0.00    -0.020 C 
ATOM     14  C   UNL     1      -2.258   6.194  -1.065  0.00  0.00    +0.055 C 
ATOM     15  C   UNL     1      -1.624   6.498   0.260  0.00  0.00    +0.265 C 
ATOM     16  O   UNL     1      -2.480   6.671   1.479  0.00  0.00    -0.268 OA
ATOM     17  N   UNL     1      -0.134   6.630   0.366  0.00  0.00    -0.203 NA
ATOM     18  C   UNL     1       0.945   5.981  -3.398  0.00  0.00    +0.005 C 
ATOM     19  C   UNL     1       0.311   5.676  -4.723  0.00  0.00    +0.000 C 
ATOM     20  C   UNL     1       1.167   5.504  -5.943  0.00  0.00    +0.000 C 
ENDROOT
BRANCH   3  21
ATOM     21  C   UNL     1       3.566   5.222  -8.317  0.00  0.00    +0.245 C 
ATOM     22  N   UNL     1       3.427   6.346  -9.299  0.00  0.00    -0.179 NA
ATOM     23  O   UNL     1       3.521   3.800  -8.793  0.00  0.00    -0.273 OA
BRANCH  22  24
ATOM     24  C   UNL     1       3.242   6.050 -10.758  0.00  0.00    +0.077 A 
ATOM     25  C   UNL     1       1.874   5.754 -11.297  0.00  0.00    +0.087 A 
ATOM     26  C   UNL     1       1.690   5.458 -12.756  0.00  0.00    +0.005 A 
ATOM     27  C   UNL     1       2.875   5.456 -13.676  0.00  0.00    +0.004 A 
ATOM     28  C   UNL     1       4.243   5.752 -13.137  0.00  0.00    +0.073 A 
ATOM     29  C   UNL     1       4.427   6.048 -11.678  0.00  0.00    +0.020 A 
BRANCH  25  30
ATOM     30  C   UNL     1       0.689   5.756 -10.377  0.00  0.00    +0.420 C 
ATOM     31  F   UNL     1       0.594   7.247 -10.503  0.00  0.00    -0.166 F 
ATOM     32  F   UNL     1       0.785   4.264 -10.251  0.00  0.00    -0.166 F 
ATOM     33  F   UNL     1      -0.496   5.757  -9.457  0.00  0.00    -0.166 F 
ENDBRANCH  25  30
BRANCH  28  34
ATOM     34  C   UNL     1       5.428   5.750 -14.057  0.00  0.00    +0.419 C 
ATOM     35  F   UNL     1       4.631   6.500 -15.084  0.00  0.00    -0.166 F 
ATOM     36  F   UNL     1       6.224   5.001 -13.030  0.00  0.00    -0.166 F 
ATOM     37  F   UNL     1       6.612   5.750 -14.978  0.00  0.00    -0.166 F 
ENDBRANCH  28  34
ENDBRANCH  22  24
ENDBRANCH   3  21
TORSDOF 4
ENDMDL
MODEL 8
REMARK VINA RESULT:     -10.6      4.120     10.020
REMARK  Name = 
REMARK  4 active torsions:
REMARK  status: ('A' for Active; 'I' for Inactive)
REMARK    1  A    between atoms: C_20  and  C_21
REMARK    2  A    between atoms: N_23  and  C_24
REMARK    3  A    between atoms: C_26  and  C_27
REMARK    4  A    between atoms: C_33  and  C_34
REMARK                            x       y       z     vdW  Elec       q    Type
REMARK                         _______ _______ _______ _____ _____    ______ ____
ROOT
ATOM      1  C   UNL     1       2.398   5.401  -7.531  0.00  0.00    +0.000 C 
ATOM      2  C   UNL     1       2.030   5.522  -8.980  0.00  0.00    +0.008 C 
ATOM      3  C   UNL     1       0.854   5.358  -8.064  0.00  0.00    +0.079 C 
ATOM      4  C   UNL     1      -0.391   5.364  -8.900  0.00  0.00    +0.009 C 
ATOM      5  C   UNL     1       0.015   5.531 -10.334  0.00  0.00    +0.001 C 
ATOM      6  C   UNL     1       1.511   5.629 -10.384  0.00  0.00    +0.000 C 
ATOM      7  C   UNL     1       2.468   5.801 -11.526  0.00  0.00    +0.000 C 
ATOM      8  C   UNL     1       1.950   5.909 -12.929  0.00  0.00    +0.002 C 
ATOM      9  C   UNL     1       2.908   6.081 -14.071  0.00  0.00    +0.022 C 
ATOM     10  C   UNL     1       4.383   6.147 -13.809  0.00  0.00    +0.099 C 
ATOM     11  C   UNL     1       4.901   6.039 -12.406  0.00  0.00    +0.037 C 
ATOM     12  C   UNL     1       5.420   5.932 -11.002  0.00  0.00    +0.006 C 
ATOM     13  C   UNL     1       6.377   6.105 -12.144  0.00  0.00    -0.020 C 
ATOM     14  C   UNL     1       7.334   6.277 -13.285  0.00  0.00    +0.055 C 
ATOM     15  C   UNL     1       6.817   6.385 -14.690  0.00  0.00    +0.265 C 
ATOM     16  O   UNL     1       7.774   6.557 -15.831  0.00  0.00    -0.268 OA
ATOM     17  N   UNL     1       5.341   6.319 -14.951  0.00  0.00    -0.203 NA
ATOM     18  C   UNL     1       3.944   5.867 -11.264  0.00  0.00    +0.005 C 
ATOM     19  C   UNL     1       4.462   5.760  -9.860  0.00  0.00    +0.000 C 
ATOM     20  C   UNL     1       3.505   5.587  -8.718  0.00  0.00    +0.000 C 
ENDROOT
BRANCH   3  21
ATOM     21  C   UNL     1       0.912   5.214  -6.572  0.00  0.00    +0.245 C 
ATOM     22  N   UNL     1       0.746   6.418  -5.694  0.00  0.00    -0.179 NA
ATOM     23  O   UNL     1       1.137   3.864  -5.957  0.00  0.00    -0.273 OA
BRANCH  22  24
ATOM     24  C   UNL     1       0.805   6.274  -4.202  0.00  0.00    +0.077 A 
ATOM     25  C   UNL     1      -0.446   6.414  -3.386  0.00  0.00    +0.087 A 
ATOM     26  C   UNL     1      -0.387   6.269  -1.893  0.00  0.00    +0.005 A 
ATOM     27  C   UNL     1       0.922   5.985  -1.219  0.00  0.00    +0.004 A 
ATOM     28  C   UNL     1       2.172   5.845  -2.035  0.00  0.00    +0.073 A 
ATOM     29  C   UNL     1       2.114   5.989  -3.527  0.00  0.00    +0.020 A 
BRANCH  25  30
ATOM     30  C   UNL     1      -1.755   6.698  -4.060  0.00  0.00    +0.420 C 
ATOM     31  F   UNL     1      -1.914   5.238  -4.365  0.00  0.00    -0.166 F 
ATOM     32  F   UNL     1      -1.595   8.158  -3.755  0.00  0.00    -0.166 F 
ATOM     33  F   UNL     1      -3.064   6.982  -4.735  0.00  0.00    -0.166 F 
ENDBRANCH  25  30
BRANCH  28  34
ATOM     34  C   UNL     1       3.481   5.560  -1.360  0.00  0.00    +0.419 C 
ATOM     35  F   UNL     1       3.071   6.420  -0.202  0.00  0.00    -0.166 F 
ATOM     36  F   UNL     1       3.892   4.701  -2.519  0.00  0.00    -0.166 F 
ATOM     37  F   UNL     1       4.790   5.277  -0.685  0.00  0.00    -0.166 F 
ENDBRANCH  28  34
ENDBRANCH  22  24
ENDBRANCH   3  21
TORSDOF 4
ENDMDL
MODEL 9
REMARK VINA RESULT:     -10.5      4.506     10.237
REMARK  Name = 
REMARK  4 active torsions:
REMARK  status: ('A' for Active; 'I' for Inactive)
REMARK    1  A    between atoms: C_20  and  C_21
REMARK    2  A    between atoms: N_23  and  C_24
REMARK    3  A    between atoms: C_26  and  C_27
REMARK    4  A    between atoms: C_33  and  C_34
REMARK                            x       y       z     vdW  Elec       q    Type
REMARK                         _______ _______ _______ _____ _____    ______ ____
ROOT
ATOM      1  C   UNL     1       1.800   6.741  -6.520  0.00  0.00    +0.000 C 
ATOM      2  C   UNL     1       1.427   6.250  -7.887  0.00  0.00    +0.008 C 
ATOM      3  C   UNL     1       0.342   6.089  -6.865  0.00  0.00    +0.079 C 
ATOM      4  C   UNL     1      -0.841   5.460  -7.539  0.00  0.00    +0.009 C 
ATOM      5  C   UNL     1      -0.488   5.233  -8.978  0.00  0.00    +0.001 C 
ATOM      6  C   UNL     1       0.913   5.721  -9.194  0.00  0.00    +0.000 C 
ATOM      7  C   UNL     1       1.789   5.753 -10.412  0.00  0.00    +0.000 C 
ATOM      8  C   UNL     1       1.276   5.224 -11.718  0.00  0.00    +0.002 C 
ATOM      9  C   UNL     1       2.152   5.255 -12.936  0.00  0.00    +0.022 C 
ATOM     10  C   UNL     1       3.540   5.815 -12.847  0.00  0.00    +0.099 C 
ATOM     11  C   UNL     1       4.053   6.344 -11.540  0.00  0.00    +0.037 C 
ATOM     12  C   UNL     1       4.566   6.873 -10.234  0.00  0.00    +0.006 C 
ATOM     13  C   UNL     1       5.442   6.905 -11.451  0.00  0.00    -0.020 C 
ATOM     14  C   UNL     1       6.317   6.936 -12.668  0.00  0.00    +0.055 C 
ATOM     15  C   UNL     1       5.805   6.407 -13.975  0.00  0.00    +0.265 C 
ATOM     16  O   UNL     1       6.680   6.439 -15.192  0.00  0.00    -0.268 OA
ATOM     17  N   UNL     1       4.416   5.847 -14.064  0.00  0.00    -0.203 NA
ATOM     18  C   UNL     1       3.177   6.313 -10.323  0.00  0.00    +0.005 C 
ATOM     19  C   UNL     1       3.690   6.842  -9.016  0.00  0.00    +0.000 C 
ATOM     20  C   UNL     1       2.815   6.811  -7.798  0.00  0.00    +0.000 C 
ENDROOT
BRANCH   3  21
ATOM     21  C   UNL     1       0.425   6.486  -5.420  0.00  0.00    +0.245 C 
ATOM     22  N   UNL     1       1.178   5.628  -4.448  0.00  0.00    -0.179 NA
ATOM     23  O   UNL     1      -0.245   7.742  -4.949  0.00  0.00    -0.273 OA
BRANCH  22  24
ATOM     24  C   UNL     1       1.262   6.025  -3.004  0.00  0.00    +0.077 A 
ATOM     25  C   UNL     1       2.576   6.447  -2.417  0.00  0.00    +0.087 A 
ATOM     26  C   UNL     1       2.659   6.844  -0.973  0.00  0.00    +0.005 A 
ATOM     27  C   UNL     1       1.428   6.820  -0.117  0.00  0.00    +0.004 A 
ATOM     28  C   UNL     1       0.114   6.398  -0.704  0.00  0.00    +0.073 A 
ATOM     29  C   UNL     1       0.030   6.001  -2.148  0.00  0.00    +0.020 A 
BRANCH  25  30
ATOM     30  C   UNL     1       3.807   6.471  -3.274  0.00  0.00    +0.420 C 
ATOM     31  F   UNL     1       4.179   5.105  -2.777  0.00  0.00    -0.166 F 
ATOM     32  F   UNL     1       3.435   7.837  -3.770  0.00  0.00    -0.166 F 
ATOM     33  F   UNL     1       5.038   6.495  -4.130  0.00  0.00    -0.166 F 
ENDBRANCH  25  30
BRANCH  28  34
ATOM     34  C   UNL     1      -1.117   6.374   0.153  0.00  0.00    +0.419 C 
ATOM     35  F   UNL     1      -0.303   6.808   1.336  0.00  0.00    -0.166 F 
ATOM     36  F   UNL     1      -1.932   5.941  -1.030  0.00  0.00    -0.166 F 
ATOM     37  F   UNL     1      -2.348   6.350   1.010  0.00  0.00    -0.166 F 
ENDBRANCH  28  34
ENDBRANCH  22  24
ENDBRANCH   3  21
TORSDOF 4
ENDMDL
