MODEL 1
REMARK VINA RESULT:      -8.9      0.000      0.000
REMARK  Name = 
REMARK  3 active torsions:
REMARK  status: ('A' for Active; 'I' for Inactive)
REMARK    1  A    between atoms: C_2  and  O_3
REMARK    2  A    between atoms: C_2  and  C_16
REMARK    3  A    between atoms: O_3  and  C_4
REMARK                            x       y       z     vdW  Elec       q    Type
REMARK                         _______ _______ _______ _____ _____    ______ ____
ROOT
ATOM      1  O   UNL     1       3.393   6.781  -9.720  0.00  0.00    -0.449 OA
ENDROOT
BRANCH   1   2
ATOM      2  C   UNL     1       2.815   6.327  -8.547  0.00  0.00    +0.172 C 
ATOM      3  C   UNL     1       2.215   7.473  -7.879  0.00  0.00    +0.060 C 
ATOM      4  C   UNL     1       1.512   6.963  -6.453  0.00  0.00    +0.062 C 
ATOM      5  N   UNL     1       1.415   5.443  -6.802  0.00  0.00    -0.269 NA
ATOM      6  C   UNL     1       2.737   4.620  -6.932  0.00  0.00    +0.062 C 
ATOM      7  C   UNL     1       3.250   4.718  -5.341  0.00  0.00    +0.024 C 
ATOM      8  C   UNL     1       2.626   5.834  -4.686  0.00  0.00    +0.062 C 
ATOM      9  C   UNL     1       1.164   5.554  -4.513  0.00  0.00    +0.166 C 
ATOM     10  O   UNL     1       0.509   6.493  -4.072  0.00  0.00    -0.295 OA
ATOM     11  C   UNL     1       0.651   4.848  -5.740  0.00  0.00    +0.137 C 
ATOM     12  C   UNL     1       2.941   6.959  -5.578  0.00  0.00    +0.024 C 
ATOM     13  C   UNL     1       3.752   5.826  -7.501  0.00  0.00    +0.060 C 
ENDBRANCH   1   2
BRANCH   1  15
ATOM     14  O   UNL     1       2.103   5.743 -11.202  0.00  0.00    -0.245 OA
ATOM     15  C   UNL     1       3.273   6.046 -10.904  0.00  0.00    +0.343 C 
BRANCH  15  16
ATOM     16  C   UNL     1       4.364   5.919 -11.871  0.00  0.00    +0.096 A 
ATOM     17  C   UNL     1       5.688   6.185 -11.668  0.00  0.00    +0.025 A 
ATOM     18  C   UNL     1       6.390   5.359 -12.524  0.00  0.00    +0.082 A 
ATOM     19  C   UNL     1       7.740   5.159 -12.270  0.00  0.00    +0.019 A 
ATOM     20  C   UNL     1       8.332   5.889 -11.244  0.00  0.00    +0.002 A 
ATOM     21  C   UNL     1       7.671   7.003 -10.739  0.00  0.00    +0.000 A 
ATOM     22  N   UNL     1       5.519   4.952 -13.474  0.00  0.00    -0.244 NA
ATOM     23  C   UNL     1       6.312   7.148 -10.909  0.00  0.00    +0.002 A 
ATOM     24  C   UNL     1       4.263   5.311 -13.117  0.00  0.00    +0.105 A 
ENDBRANCH  15  16
ENDBRANCH   1  15
TORSDOF 3
ENDMDL
MODEL 2
REMARK VINA RESULT:      -8.9      1.904      2.303
REMARK  Name = 
REMARK  3 active torsions:
REMARK  status: ('A' for Active; 'I' for Inactive)
REMARK    1  A    between atoms: C_2  and  O_3
REMARK    2  A    between atoms: C_2  and  C_16
REMARK    3  A    between atoms: O_3  and  C_4
REMARK                            x       y       z     vdW  Elec       q    Type
REMARK                         _______ _______ _______ _____ _____    ______ ____
ROOT
ATOM      1  O   UNL     1       2.392   5.526  -8.044  0.00  0.00    -0.449 OA
ENDROOT
BRANCH   1   2
ATOM      2  C   UNL     1       2.647   5.601  -6.686  0.00  0.00    +0.172 C 
ATOM      3  C   UNL     1       2.433   6.980  -6.272  0.00  0.00    +0.060 C 
ATOM      4  C   UNL     1       2.738   7.109  -4.636  0.00  0.00    +0.062 C 
ATOM      5  N   UNL     1       2.609   5.593  -4.281  0.00  0.00    -0.269 NA
ATOM      6  C   UNL     1       3.687   4.603  -4.828  0.00  0.00    +0.062 C 
ATOM      7  C   UNL     1       5.012   5.186  -3.986  0.00  0.00    +0.024 C 
ATOM      8  C   UNL     1       4.774   6.536  -3.557  0.00  0.00    +0.062 C 
ATOM      9  C   UNL     1       3.718   6.539  -2.495  0.00  0.00    +0.166 C 
ATOM     10  O   UNL     1       3.348   7.655  -2.141  0.00  0.00    -0.295 OA
ATOM     11  C   UNL     1       2.664   5.524  -2.846  0.00  0.00    +0.137 C 
ATOM     12  C   UNL     1       4.401   7.217  -4.805  0.00  0.00    +0.024 C 
ATOM     13  C   UNL     1       4.060   5.377  -6.268  0.00  0.00    +0.060 C 
ENDBRANCH   1   2
BRANCH   1  15
ATOM     14  O   UNL     1       3.165   3.593  -8.821  0.00  0.00    -0.245 OA
ATOM     15  C   UNL     1       3.258   4.832  -8.895  0.00  0.00    +0.343 C 
BRANCH  15  16
ATOM     16  C   UNL     1       3.974   5.479  -9.995  0.00  0.00    +0.096 A 
ATOM     17  C   UNL     1       5.325   5.624 -10.135  0.00  0.00    +0.025 A 
ATOM     18  C   UNL     1       5.578   5.661 -11.492  0.00  0.00    +0.082 A 
ATOM     19  C   UNL     1       6.881   5.436 -11.916  0.00  0.00    +0.019 A 
ATOM     20  C   UNL     1       7.873   5.302 -10.950  0.00  0.00    +0.002 A 
ATOM     21  C   UNL     1       7.611   5.716  -9.648  0.00  0.00    +0.000 A 
ATOM     22  N   UNL     1       4.407   5.959 -12.098  0.00  0.00    -0.244 NA
ATOM     23  C   UNL     1       6.314   5.843  -9.202  0.00  0.00    +0.002 A 
ATOM     24  C   UNL     1       3.402   5.887 -11.194  0.00  0.00    +0.105 A 
ENDBRANCH  15  16
ENDBRANCH   1  15
TORSDOF 3
ENDMDL
MODEL 3
REMARK VINA RESULT:      -8.7      2.003      7.252
REMARK  Name = 
REMARK  3 active torsions:
REMARK  status: ('A' for Active; 'I' for Inactive)
REMARK    1  A    between atoms: C_2  and  O_3
REMARK    2  A    between atoms: C_2  and  C_16
REMARK    3  A    between atoms: O_3  and  C_4
REMARK                            x       y       z     vdW  Elec       q    Type
REMARK                         _______ _______ _______ _____ _____    ______ ____
ROOT
ATOM      1  O   UNL     1       3.664   6.001  -8.843  0.00  0.00    -0.449 OA
ENDROOT
BRANCH   1   2
ATOM      2  C   UNL     1       4.631   5.913  -9.830  0.00  0.00    +0.172 C 
ATOM      3  C   UNL     1       5.920   5.756  -9.171  0.00  0.00    +0.060 C 
ATOM      4  C   UNL     1       7.114   5.653 -10.333  0.00  0.00    +0.062 C 
ATOM      5  N   UNL     1       6.197   5.271 -11.539  0.00  0.00    -0.269 NA
ATOM      6  C   UNL     1       5.186   6.335 -12.076  0.00  0.00    +0.062 C 
ATOM      7  C   UNL     1       6.286   7.462 -12.643  0.00  0.00    +0.024 C 
ATOM      8  C   UNL     1       7.561   7.275 -12.008  0.00  0.00    +0.062 C 
ATOM      9  C   UNL     1       8.170   5.993 -12.487  0.00  0.00    +0.166 C 
ATOM     10  O   UNL     1       9.209   5.673 -11.917  0.00  0.00    -0.295 OA
ATOM     11  C   UNL     1       7.089   4.955 -12.622  0.00  0.00    +0.137 C 
ATOM     12  C   UNL     1       7.225   7.306 -10.578  0.00  0.00    +0.024 C 
ATOM     13  C   UNL     1       4.856   7.142 -10.643  0.00  0.00    +0.060 C 
ENDBRANCH   1   2
BRANCH   1  15
ATOM     14  O   UNL     1       3.334   3.803  -8.869  0.00  0.00    -0.245 OA
ATOM     15  C   UNL     1       3.186   4.848  -8.210  0.00  0.00    +0.343 C 
BRANCH  15  16
ATOM     16  C   UNL     1       2.841   4.812  -6.788  0.00  0.00    +0.096 A 
ATOM     17  C   UNL     1       3.380   5.565  -5.784  0.00  0.00    +0.025 A 
ATOM     18  C   UNL     1       2.396   5.701  -4.824  0.00  0.00    +0.082 A 
ATOM     19  C   UNL     1       2.545   6.708  -3.881  0.00  0.00    +0.019 A 
ATOM     20  C   UNL     1       3.726   7.443  -3.885  0.00  0.00    +0.002 A 
ATOM     21  C   UNL     1       4.825   6.955  -4.581  0.00  0.00    +0.000 A 
ATOM     22  N   UNL     1       1.490   4.724  -5.055  0.00  0.00    -0.244 NA
ATOM     23  C   UNL     1       4.661   6.026  -5.585  0.00  0.00    +0.002 A 
ATOM     24  C   UNL     1       1.757   4.135  -6.244  0.00  0.00    +0.105 A 
ENDBRANCH  15  16
ENDBRANCH   1  15
TORSDOF 3
ENDMDL
MODEL 4
REMARK VINA RESULT:      -8.6      2.112      7.217
REMARK  Name = 
REMARK  3 active torsions:
REMARK  status: ('A' for Active; 'I' for Inactive)
REMARK    1  A    between atoms: C_2  and  O_3
REMARK    2  A    between atoms: C_2  and  C_16
REMARK    3  A    between atoms: O_3  and  C_4
REMARK                            x       y       z     vdW  Elec       q    Type
REMARK                         _______ _______ _______ _____ _____    ______ ____
ROOT
ATOM      1  O   UNL     1       2.788   6.331  -8.529  0.00  0.00    -0.449 OA
ENDROOT
BRANCH   1   2
ATOM      2  C   UNL     1       3.825   6.557  -9.417  0.00  0.00    +0.172 C 
ATOM      3  C   UNL     1       3.288   6.424 -10.764  0.00  0.00    +0.060 C 
ATOM      4  C   UNL     1       4.516   6.684 -11.865  0.00  0.00    +0.062 C 
ATOM      5  N   UNL     1       5.498   7.433 -10.907  0.00  0.00    -0.269 NA
ATOM      6  C   UNL     1       6.153   6.633  -9.736  0.00  0.00    +0.062 C 
ATOM      7  C   UNL     1       7.077   5.572 -10.644  0.00  0.00    +0.024 C 
ATOM      8  C   UNL     1       6.555   5.475 -11.978  0.00  0.00    +0.062 C 
ATOM      9  C   UNL     1       6.789   6.768 -12.698  0.00  0.00    +0.166 C 
ATOM     10  O   UNL     1       6.274   6.839 -13.810  0.00  0.00    -0.295 OA
ATOM     11  C   UNL     1       6.567   7.909 -11.742  0.00  0.00    +0.137 C 
ATOM     12  C   UNL     1       5.143   5.135 -11.756  0.00  0.00    +0.024 C 
ATOM     13  C   UNL     1       4.917   5.543  -9.427  0.00  0.00    +0.060 C 
ENDBRANCH   1   2
BRANCH   1  15
ATOM     14  O   UNL     1       2.103   8.348  -7.896  0.00  0.00    -0.245 OA
ATOM     15  C   UNL     1       2.517   7.242  -7.502  0.00  0.00    +0.343 C 
BRANCH  15  16
ATOM     16  C   UNL     1       2.417   6.846  -6.098  0.00  0.00    +0.096 A 
ATOM     17  C   UNL     1       3.388   6.926  -5.141  0.00  0.00    +0.025 A 
ATOM     18  C   UNL     1       2.738   7.087  -3.933  0.00  0.00    +0.082 A 
ATOM     19  C   UNL     1       3.477   7.557  -2.856  0.00  0.00    +0.019 A 
ATOM     20  C   UNL     1       4.847   7.727  -3.023  0.00  0.00    +0.002 A 
ATOM     21  C   UNL     1       5.477   7.128  -4.108  0.00  0.00    +0.000 A 
ATOM     22  N   UNL     1       1.460   6.687  -4.123  0.00  0.00    -0.244 NA
ATOM     23  C   UNL     1       4.752   6.752  -5.218  0.00  0.00    +0.002 A 
ATOM     24  C   UNL     1       1.240   6.498  -5.446  0.00  0.00    +0.105 A 
ENDBRANCH  15  16
ENDBRANCH   1  15
TORSDOF 3
ENDMDL
MODEL 5
REMARK VINA RESULT:      -8.5      3.051      8.140
REMARK  Name = 
REMARK  3 active torsions:
REMARK  status: ('A' for Active; 'I' for Inactive)
REMARK    1  A    between atoms: C_2  and  O_3
REMARK    2  A    between atoms: C_2  and  C_16
REMARK    3  A    between atoms: O_3  and  C_4
REMARK                            x       y       z     vdW  Elec       q    Type
REMARK                         _______ _______ _______ _____ _____    ______ ____
ROOT
ATOM      1  O   UNL     1       2.531   5.142  -4.237  0.00  0.00    -0.449 OA
ENDROOT
BRANCH   1   2
ATOM      2  C   UNL     1       2.414   5.439  -5.584  0.00  0.00    +0.172 C 
ATOM      3  C   UNL     1       1.517   4.458  -6.176  0.00  0.00    +0.060 C 
ATOM      4  C   UNL     1       1.357   4.783  -7.806  0.00  0.00    +0.062 C 
ATOM      5  N   UNL     1       1.847   6.266  -7.770  0.00  0.00    -0.269 NA
ATOM      6  C   UNL     1       3.346   6.550  -7.435  0.00  0.00    +0.062 C 
ATOM      7  C   UNL     1       4.042   5.842  -8.784  0.00  0.00    +0.024 C 
ATOM      8  C   UNL     1       3.134   4.901  -9.375  0.00  0.00    +0.062 C 
ATOM      9  C   UNL     1       1.981   5.638  -9.984  0.00  0.00    +0.166 C 
ATOM     10  O   UNL     1       1.081   4.923 -10.414  0.00  0.00    -0.295 OA
ATOM     11  C   UNL     1       1.605   6.787  -9.088  0.00  0.00    +0.137 C 
ATOM     12  C   UNL     1       2.784   4.026  -8.247  0.00  0.00    +0.024 C 
ATOM     13  C   UNL     1       3.643   5.258  -6.407  0.00  0.00    +0.060 C 
ENDBRANCH   1   2
BRANCH   1  15
ATOM     14  O   UNL     1       2.765   7.010  -3.057  0.00  0.00    -0.245 OA
ATOM     15  C   UNL     1       2.038   6.023  -3.267  0.00  0.00    +0.343 C 
BRANCH  15  16
ATOM     16  C   UNL     1       0.660   5.971  -2.778  0.00  0.00    +0.096 A 
ATOM     17  C   UNL     1      -0.483   6.194  -3.491  0.00  0.00    +0.025 A 
ATOM     18  C   UNL     1      -1.474   5.443  -2.891  0.00  0.00    +0.082 A 
ATOM     19  C   UNL     1      -2.632   5.197  -3.617  0.00  0.00    +0.019 A 
ATOM     20  C   UNL     1      -2.775   5.814  -4.854  0.00  0.00    +0.002 A 
ATOM     21  C   UNL     1      -1.950   6.886  -5.176  0.00  0.00    +0.000 A 
ATOM     22  N   UNL     1      -1.036   5.144  -1.647  0.00  0.00    -0.244 NA
ATOM     23  C   UNL     1      -0.753   7.069  -4.519  0.00  0.00    +0.002 A 
ATOM     24  C   UNL     1       0.269   5.488  -1.535  0.00  0.00    +0.105 A 
ENDBRANCH  15  16
ENDBRANCH   1  15
TORSDOF 3
ENDMDL
MODEL 6
REMARK VINA RESULT:      -8.4      2.191      7.621
REMARK  Name = 
REMARK  3 active torsions:
REMARK  status: ('A' for Active; 'I' for Inactive)
REMARK    1  A    between atoms: C_2  and  O_3
REMARK    2  A    between atoms: C_2  and  C_16
REMARK    3  A    between atoms: O_3  and  C_4
REMARK                            x       y       z     vdW  Elec       q    Type
REMARK                         _______ _______ _______ _____ _____    ______ ____
ROOT
ATOM      1  O   UNL     1       4.677   5.222  -8.050  0.00  0.00    -0.449 OA
ENDROOT
BRANCH   1   2
ATOM      2  C   UNL     1       5.326   5.366  -9.264  0.00  0.00    +0.172 C 
ATOM      3  C   UNL     1       6.755   5.424  -8.995  0.00  0.00    +0.060 C 
ATOM      4  C   UNL     1       7.572   5.605 -10.441  0.00  0.00    +0.062 C 
ATOM      5  N   UNL     1       6.429   5.115 -11.387  0.00  0.00    -0.269 NA
ATOM      6  C   UNL     1       5.144   5.993 -11.523  0.00  0.00    +0.062 C 
ATOM      7  C   UNL     1       5.833   7.334 -12.251  0.00  0.00    +0.024 C 
ATOM      8  C   UNL     1       7.247   7.361 -12.005  0.00  0.00    +0.062 C 
ATOM      9  C   UNL     1       7.903   6.242 -12.754  0.00  0.00    +0.166 C 
ATOM     10  O   UNL     1       9.099   6.097 -12.520  0.00  0.00    -0.295 OA
ATOM     11  C   UNL     1       7.018   5.026 -12.695  0.00  0.00    +0.137 C 
ATOM     12  C   UNL     1       7.329   7.259 -10.541  0.00  0.00    +0.024 C 
ATOM     13  C   UNL     1       5.102   6.653  -9.982  0.00  0.00    +0.060 C 
ENDBRANCH   1   2
BRANCH   1  15
ATOM     14  O   UNL     1       2.856   4.031  -8.502  0.00  0.00    -0.245 OA
ATOM     15  C   UNL     1       3.285   5.084  -7.997  0.00  0.00    +0.343 C 
BRANCH  15  16
ATOM     16  C   UNL     1       2.438   5.926  -7.153  0.00  0.00    +0.096 A 
ATOM     17  C   UNL     1       1.080   5.869  -7.020  0.00  0.00    +0.025 A 
ATOM     18  C   UNL     1       0.791   6.316  -5.746  0.00  0.00    +0.082 A 
ATOM     19  C   UNL     1      -0.461   6.020  -5.223  0.00  0.00    +0.019 A 
ATOM     20  C   UNL     1      -1.388   5.395  -6.050  0.00  0.00    +0.002 A 
ATOM     21  C   UNL     1      -1.172   5.386  -7.424  0.00  0.00    +0.000 A 
ATOM     22  N   UNL     1       1.875   7.002  -5.319  0.00  0.00    -0.244 NA
ATOM     23  C   UNL     1       0.092   5.583  -7.935  0.00  0.00    +0.002 A 
ATOM     24  C   UNL     1       2.899   6.808  -6.183  0.00  0.00    +0.105 A 
ENDBRANCH  15  16
ENDBRANCH   1  15
TORSDOF 3
ENDMDL
MODEL 7
REMARK VINA RESULT:      -8.4      3.099      8.424
REMARK  Name = 
REMARK  3 active torsions:
REMARK  status: ('A' for Active; 'I' for Inactive)
REMARK    1  A    between atoms: C_2  and  O_3
REMARK    2  A    between atoms: C_2  and  C_16
REMARK    3  A    between atoms: O_3  and  C_4
REMARK                            x       y       z     vdW  Elec       q    Type
REMARK                         _______ _______ _______ _____ _____    ______ ____
ROOT
ATOM      1  O   UNL     1      -0.164   6.907  -5.483  0.00  0.00    -0.449 OA
ENDROOT
BRANCH   1   2
ATOM      2  C   UNL     1       0.601   6.448  -6.542  0.00  0.00    +0.172 C 
ATOM      3  C   UNL     1       1.322   5.269  -6.085  0.00  0.00    +0.060 C 
ATOM      4  C   UNL     1       2.262   4.690  -7.338  0.00  0.00    +0.062 C 
ATOM      5  N   UNL     1       1.511   5.403  -8.508  0.00  0.00    -0.269 NA
ATOM      6  C   UNL     1       1.595   6.960  -8.610  0.00  0.00    +0.062 C 
ATOM      7  C   UNL     1       3.233   7.102  -8.929  0.00  0.00    +0.024 C 
ATOM      8  C   UNL     1       3.926   5.919  -8.503  0.00  0.00    +0.062 C 
ATOM      9  C   UNL     1       3.546   4.774  -9.391  0.00  0.00    +0.166 C 
ATOM     10  O   UNL     1       3.988   3.684  -9.042  0.00  0.00    -0.295 OA
ATOM     11  C   UNL     1       2.079   4.871  -9.716  0.00  0.00    +0.137 C 
ATOM     12  C   UNL     1       3.511   5.780  -7.099  0.00  0.00    +0.024 C 
ATOM     13  C   UNL     1       1.718   7.333  -6.980  0.00  0.00    +0.060 C 
ENDBRANCH   1   2
BRANCH   1  15
ATOM     14  O   UNL     1      -2.103   6.045  -6.145  0.00  0.00    -0.245 OA
ATOM     15  C   UNL     1      -1.380   6.292  -5.163  0.00  0.00    +0.343 C 
BRANCH  15  16
ATOM     16  C   UNL     1      -1.646   5.700  -3.851  0.00  0.00    +0.096 A 
ATOM     17  C   UNL     1      -0.863   5.771  -2.734  0.00  0.00    +0.025 A 
ATOM     18  C   UNL     1      -1.716   5.686  -1.651  0.00  0.00    +0.082 A 
ATOM     19  C   UNL     1      -1.237   6.095  -0.414  0.00  0.00    +0.019 A 
ATOM     20  C   UNL     1       0.103   6.455  -0.314  0.00  0.00    +0.002 A 
ATOM     21  C   UNL     1       0.979   6.092  -1.330  0.00  0.00    +0.000 A 
ATOM     22  N   UNL     1      -2.874   5.158  -2.109  0.00  0.00    -0.244 NA
ATOM     23  C   UNL     1       0.505   5.781  -2.586  0.00  0.00    +0.002 A 
ATOM     24  C   UNL     1      -2.849   5.124  -3.462  0.00  0.00    +0.105 A 
ENDBRANCH  15  16
ENDBRANCH   1  15
TORSDOF 3
ENDMDL
MODEL 8
REMARK VINA RESULT:      -8.4      2.807      6.469
REMARK  Name = 
REMARK  3 active torsions:
REMARK  status: ('A' for Active; 'I' for Inactive)
REMARK    1  A    between atoms: C_2  and  O_3
REMARK    2  A    between atoms: C_2  and  C_16
REMARK    3  A    between atoms: O_3  and  C_4
REMARK                            x       y       z     vdW  Elec       q    Type
REMARK                         _______ _______ _______ _____ _____    ______ ____
ROOT
ATOM      1  O   UNL     1       3.377   5.869  -8.900  0.00  0.00    -0.449 OA
ENDROOT
BRANCH   1   2
ATOM      2  C   UNL     1       4.375   5.843  -9.859  0.00  0.00    +0.172 C 
ATOM      3  C   UNL     1       5.624   5.515  -9.185  0.00  0.00    +0.060 C 
ATOM      4  C   UNL     1       6.855   5.480 -10.313  0.00  0.00    +0.062 C 
ATOM      5  N   UNL     1       5.965   5.319 -11.587  0.00  0.00    -0.269 NA
ATOM      6  C   UNL     1       5.046   6.510 -12.011  0.00  0.00    +0.062 C 
ATOM      7  C   UNL     1       6.239   7.622 -12.391  0.00  0.00    +0.024 C 
ATOM      8  C   UNL     1       7.472   7.268 -11.746  0.00  0.00    +0.062 C 
ATOM      9  C   UNL     1       8.017   6.019 -12.369  0.00  0.00    +0.166 C 
ATOM     10  O   UNL     1       9.009   5.558 -11.813  0.00  0.00    -0.295 OA
ATOM     11  C   UNL     1       6.877   5.084 -12.672  0.00  0.00    +0.137 C 
ATOM     12  C   UNL     1       7.081   7.139 -10.335  0.00  0.00    +0.024 C 
ATOM     13  C   UNL     1       4.712   7.147 -10.497  0.00  0.00    +0.060 C 
ENDBRANCH   1   2
BRANCH   1  15
ATOM     14  O   UNL     1       2.058   7.656  -8.824  0.00  0.00    -0.245 OA
ATOM     15  C   UNL     1       2.141   6.465  -9.175  0.00  0.00    +0.343 C 
BRANCH  15  16
ATOM     16  C   UNL     1       1.154   5.862 -10.071  0.00  0.00    +0.096 A 
ATOM     17  C   UNL     1       1.092   5.972 -11.432  0.00  0.00    +0.025 A 
ATOM     18  C   UNL     1       0.497   4.814 -11.892  0.00  0.00    +0.082 A 
ATOM     19  C   UNL     1       0.640   4.503 -13.238  0.00  0.00    +0.019 A 
ATOM     20  C   UNL     1       1.270   5.427 -14.063  0.00  0.00    +0.002 A 
ATOM     21  C   UNL     1       1.435   6.733 -13.616  0.00  0.00    +0.000 A 
ATOM     22  N   UNL     1      -0.142   4.259 -10.838  0.00  0.00    -0.244 NA
ATOM     23  C   UNL     1       1.390   7.023 -12.269  0.00  0.00    +0.002 A 
ATOM     24  C   UNL     1       0.217   4.904  -9.704  0.00  0.00    +0.105 A 
ENDBRANCH  15  16
ENDBRANCH   1  15
TORSDOF 3
ENDMDL
MODEL 9
REMARK VINA RESULT:      -8.2      1.996      3.573
REMARK  Name = 
REMARK  3 active torsions:
REMARK  status: ('A' for Active; 'I' for Inactive)
REMARK    1  A    between atoms: C_2  and  O_3
REMARK    2  A    between atoms: C_2  and  C_16
REMARK    3  A    between atoms: O_3  and  C_4
REMARK                            x       y       z     vdW  Elec       q    Type
REMARK                         _______ _______ _______ _____ _____    ______ ____
ROOT
ATOM      1  O   UNL     1       3.827   6.757  -9.368  0.00  0.00    -0.449 OA
ENDROOT
BRANCH   1   2
ATOM      2  C   UNL     1       3.176   6.305  -8.233  0.00  0.00    +0.172 C 
ATOM      3  C   UNL     1       2.486   7.441  -7.639  0.00  0.00    +0.060 C 
ATOM      4  C   UNL     1       1.693   6.933  -6.259  0.00  0.00    +0.062 C 
ATOM      5  N   UNL     1       1.677   5.404  -6.581  0.00  0.00    -0.269 NA
ATOM      6  C   UNL     1       3.034   4.628  -6.590  0.00  0.00    +0.062 C 
ATOM      7  C   UNL     1       3.418   4.778  -4.967  0.00  0.00    +0.024 C 
ATOM      8  C   UNL     1       2.706   5.882  -4.388  0.00  0.00    +0.062 C 
ATOM      9  C   UNL     1       1.246   5.551  -4.321  0.00  0.00    +0.166 C 
ATOM     10  O   UNL     1       0.526   6.473  -3.952  0.00  0.00    -0.295 OA
ATOM     11  C   UNL     1       0.855   4.802  -5.567  0.00  0.00    +0.137 C 
ATOM     12  C   UNL     1       3.049   7.000  -5.278  0.00  0.00    +0.024 C 
ATOM     13  C   UNL     1       4.047   5.860  -7.107  0.00  0.00    +0.060 C 
ENDBRANCH   1   2
BRANCH   1  15
ATOM     14  O   UNL     1       4.825   5.001 -10.294  0.00  0.00    -0.245 OA
ATOM     15  C   UNL     1       4.000   5.916 -10.472  0.00  0.00    +0.343 C 
BRANCH  15  16
ATOM     16  C   UNL     1       3.079   5.902 -11.610  0.00  0.00    +0.096 A 
ATOM     17  C   UNL     1       1.760   6.257 -11.614  0.00  0.00    +0.025 A 
ATOM     18  C   UNL     1       1.482   6.715 -12.887  0.00  0.00    +0.082 A 
ATOM     19  C   UNL     1       0.331   7.472 -13.067  0.00  0.00    +0.019 A 
ATOM     20  C   UNL     1      -0.529   7.627 -11.985  0.00  0.00    +0.002 A 
ATOM     21  C   UNL     1      -0.401   6.779 -10.891  0.00  0.00    +0.000 A 
ATOM     22  N   UNL     1       2.461   6.247 -13.692  0.00  0.00    -0.244 NA
ATOM     23  C   UNL     1       0.778   6.105 -10.662  0.00  0.00    +0.002 A 
ATOM     24  C   UNL     1       3.447   5.710 -12.935  0.00  0.00    +0.105 A 
ENDBRANCH  15  16
ENDBRANCH   1  15
TORSDOF 3
ENDMDL
