MODEL 1
REMARK VINA RESULT:      -9.4      0.000      0.000
REMARK  Name = 
REMARK  10 active torsions:
REMARK  status: ('A' for Active; 'I' for Inactive)
REMARK    1  A    between atoms: C_2  and  C_4
REMARK    2  A    between atoms: C_2  and  C_7
REMARK    3  A    between atoms: C_10  and  C_11
REMARK    4  A    between atoms: C_11  and  C_13
REMARK    5  A    between atoms: C_13  and  C_14
REMARK    6  A    between atoms: C_14  and  C_15
REMARK    7  A    between atoms: C_15  and  N_16
REMARK    8  A    between atoms: C_19  and  C_20
REMARK    9  A    between atoms: C_20  and  C_22
REMARK   10  A    between atoms: C_20  and  C_28
REMARK                            x       y       z     vdW  Elec       q    Type
REMARK                         _______ _______ _______ _____ _____    ______ ____
ROOT
ATOM      1  N   UNL     1      -0.750   5.955  -0.958  0.00  0.00    -0.273 NA
ATOM      2  C   UNL     1      -0.093   5.254  -2.059  0.00  0.00    +0.072 C 
ATOM      3  C   UNL     1       1.402   5.329  -1.927  0.00  0.00    +0.020 C 
ATOM      4  C   UNL     1       1.894   6.691  -1.527  0.00  0.00    +0.039 C 
ATOM      5  C   UNL     1       1.239   7.213  -0.278  0.00  0.00    +0.020 C 
ATOM      6  C   UNL     1       0.183   6.203   0.141  0.00  0.00    +0.072 C 
ENDROOT
BRANCH   4   7
ATOM      7  C   UNL     1       3.385   6.606  -1.285  0.00  0.00    +0.164 C 
ATOM      8  O   UNL     1       3.588   5.501  -0.454  0.00  0.00    -0.217 OA
BRANCH   7   9
ATOM      9  C   UNL     1       3.869   7.795  -0.555  0.00  0.00    +0.009 A 
ATOM     10  C   UNL     1       3.595   9.092  -0.942  0.00  0.00    -0.002 A 
ATOM     11  C   UNL     1       3.563  10.073   0.031  0.00  0.00    -0.000 A 
ATOM     12  C   UNL     1       4.037   9.848   1.298  0.00  0.00    -0.000 A 
ATOM     13  C   UNL     1       4.672   8.645   1.555  0.00  0.00    -0.000 A 
ATOM     14  C   UNL     1       4.411   7.582   0.704  0.00  0.00    -0.002 A 
ENDBRANCH   7   9
BRANCH   7  15
ATOM     15  C   UNL     1       4.141   6.374  -2.554  0.00  0.00    +0.009 A 
ATOM     16  C   UNL     1       4.185   7.372  -3.519  0.00  0.00    -0.002 A 
ATOM     17  C   UNL     1       4.308   7.040  -4.861  0.00  0.00    -0.000 A 
ATOM     18  C   UNL     1       4.394   5.712  -5.260  0.00  0.00    -0.000 A 
ATOM     19  C   UNL     1       4.461   4.730  -4.310  0.00  0.00    -0.000 A 
ATOM     20  C   UNL     1       4.449   5.100  -2.990  0.00  0.00    -0.002 A 
ENDBRANCH   7  15
ENDBRANCH   4   7
BRANCH   1  21
ATOM     21  C   UNL     1      -1.053   7.281  -1.469  0.00  0.00    +0.072 C 
BRANCH  21  22
ATOM     22  C   UNL     1      -2.071   7.271  -2.489  0.00  0.00    +0.020 C 
BRANCH  22  23
ATOM     23  C   UNL     1      -1.824   7.987  -3.766  0.00  0.00    +0.039 C 
BRANCH  23  24
ATOM     24  C   UNL     1      -2.644   7.122  -4.914  0.00  0.00    +0.174 C 
ATOM     25  O   UNL     1      -3.117   6.095  -3.893  0.00  0.00    -0.218 OA
BRANCH  24  29
ATOM     26  C   UNL     1       0.694   5.961  -7.247  0.00  0.00    -0.013 A 
ATOM     27  C   UNL     1      -0.563   5.427  -7.459  0.00  0.00    -0.004 A 
ATOM     28  C   UNL     1      -1.544   5.494  -6.475  0.00  0.00    -0.002 A 
ATOM     29  C   UNL     1      -1.346   6.225  -5.306  0.00  0.00    +0.008 A 
ATOM     30  C   UNL     1      -0.160   6.938  -5.265  0.00  0.00    -0.002 A 
ATOM     31  C   UNL     1       0.924   6.479  -5.991  0.00  0.00    -0.004 A 
BRANCH  26  33
ATOM     32  C   UNL     1       1.213   6.437  -9.090  0.00  0.00    +0.016 C 
ATOM     33  C   UNL     1       1.609   6.346  -8.370  0.00  0.00    +0.113 C 
ATOM     34  C   UNL     1       2.289   7.645  -7.946  0.00  0.00    +0.016 C 
BRANCH  33  35
ATOM     35  C   UNL     1       2.669   5.304  -8.546  0.00  0.00    +0.368 C 
ATOM     36  O   UNL     1       2.244   4.132  -9.183  0.00  0.00    -0.245 OA
ATOM     37  O   UNL     1       3.814   5.725  -8.881  0.00  0.00    -0.245 OA
ENDBRANCH  33  35
ENDBRANCH  26  33
ENDBRANCH  24  29
ENDBRANCH  23  24
ENDBRANCH  22  23
ENDBRANCH  21  22
ENDBRANCH   1  21
TORSDOF 10
ENDMDL
MODEL 2
REMARK VINA RESULT:      -9.1      2.696      8.214
REMARK  Name = 
REMARK  10 active torsions:
REMARK  status: ('A' for Active; 'I' for Inactive)
REMARK    1  A    between atoms: C_2  and  C_4
REMARK    2  A    between atoms: C_2  and  C_7
REMARK    3  A    between atoms: C_10  and  C_11
REMARK    4  A    between atoms: C_11  and  C_13
REMARK    5  A    between atoms: C_13  and  C_14
REMARK    6  A    between atoms: C_14  and  C_15
REMARK    7  A    between atoms: C_15  and  N_16
REMARK    8  A    between atoms: C_19  and  C_20
REMARK    9  A    between atoms: C_20  and  C_22
REMARK   10  A    between atoms: C_20  and  C_28
REMARK                            x       y       z     vdW  Elec       q    Type
REMARK                         _______ _______ _______ _____ _____    ______ ____
ROOT
ATOM      1  N   UNL     1       2.617   6.751  -6.046  0.00  0.00    -0.273 NA
ATOM      2  C   UNL     1       2.104   7.639  -7.087  0.00  0.00    +0.072 C 
ATOM      3  C   UNL     1       2.285   7.030  -8.449  0.00  0.00    +0.020 C 
ATOM      4  C   UNL     1       3.627   6.380  -8.634  0.00  0.00    +0.039 C 
ATOM      5  C   UNL     1       3.946   5.367  -7.569  0.00  0.00    +0.020 C 
ATOM      6  C   UNL     1       2.811   5.395  -6.557  0.00  0.00    +0.072 C 
ENDROOT
BRANCH   4   7
ATOM      7  C   UNL     1       3.636   5.681  -9.976  0.00  0.00    +0.164 C 
ATOM      8  O   UNL     1       3.961   4.346  -9.724  0.00  0.00    -0.217 OA
BRANCH   7   9
ATOM      9  C   UNL     1       4.693   6.230 -10.849  0.00  0.00    +0.009 A 
ATOM     10  C   UNL     1       5.215   7.501 -10.709  0.00  0.00    -0.002 A 
ATOM     11  C   UNL     1       6.513   7.726 -11.128  0.00  0.00    -0.000 A 
ATOM     12  C   UNL     1       7.191   6.814 -11.895  0.00  0.00    -0.000 A 
ATOM     13  C   UNL     1       6.503   5.705 -12.355  0.00  0.00    -0.000 A 
ATOM     14  C   UNL     1       5.349   5.334 -11.679  0.00  0.00    -0.002 A 
ENDBRANCH   7   9
BRANCH   7  15
ATOM     15  C   UNL     1       2.290   5.714 -10.627  0.00  0.00    +0.009 A 
ATOM     16  C   UNL     1       1.279   4.886 -10.157  0.00  0.00    -0.002 A 
ATOM     17  C   UNL     1       0.294   4.427 -11.020  0.00  0.00    -0.000 A 
ATOM     18  C   UNL     1       0.298   4.791 -12.361  0.00  0.00    -0.000 A 
ATOM     19  C   UNL     1       1.226   5.692 -12.807  0.00  0.00    -0.000 A 
ATOM     20  C   UNL     1       2.115   6.212 -11.904  0.00  0.00    -0.002 A 
ENDBRANCH   7  15
ENDBRANCH   4   7
BRANCH   1  21
ATOM     21  C   UNL     1       3.964   7.219  -5.767  0.00  0.00    +0.072 C 
BRANCH  21  22
ATOM     22  C   UNL     1       4.332   7.081  -4.381  0.00  0.00    +0.020 C 
BRANCH  22  23
ATOM     23  C   UNL     1       3.295   7.268  -3.335  0.00  0.00    +0.039 C 
BRANCH  23  24
ATOM     24  C   UNL     1       3.791   6.334  -2.061  0.00  0.00    +0.174 C 
ATOM     25  O   UNL     1       4.243   5.208  -2.982  0.00  0.00    -0.218 OA
BRANCH  24  29
ATOM     26  C   UNL     1      -0.432   6.113  -2.300  0.00  0.00    -0.013 A 
ATOM     27  C   UNL     1       0.208   6.642  -1.194  0.00  0.00    -0.004 A 
ATOM     28  C   UNL     1       1.547   6.359  -0.939  0.00  0.00    -0.002 A 
ATOM     29  C   UNL     1       2.325   5.660  -1.858  0.00  0.00    +0.008 A 
ATOM     30  C   UNL     1       1.688   5.373  -3.054  0.00  0.00    -0.002 A 
ATOM     31  C   UNL     1       0.312   5.242  -3.066  0.00  0.00    -0.004 A 
BRANCH  26  33
ATOM     32  C   UNL     1      -1.909   7.408  -2.490  0.00  0.00    +0.016 C 
ATOM     33  C   UNL     1      -1.669   6.724  -2.886  0.00  0.00    +0.113 C 
ATOM     34  C   UNL     1      -1.351   7.017  -4.350  0.00  0.00    +0.016 C 
BRANCH  33  35
ATOM     35  C   UNL     1      -2.795   5.738  -2.844  0.00  0.00    +0.368 C 
ATOM     36  O   UNL     1      -3.152   5.197  -4.085  0.00  0.00    -0.245 OA
ATOM     37  O   UNL     1      -2.787   4.925  -1.874  0.00  0.00    -0.245 OA
ENDBRANCH  33  35
ENDBRANCH  26  33
ENDBRANCH  24  29
ENDBRANCH  23  24
ENDBRANCH  22  23
ENDBRANCH  21  22
ENDBRANCH   1  21
TORSDOF 10
ENDMDL
MODEL 3
REMARK VINA RESULT:      -9.0      3.073      6.350
REMARK  Name = 
REMARK  10 active torsions:
REMARK  status: ('A' for Active; 'I' for Inactive)
REMARK    1  A    between atoms: C_2  and  C_4
REMARK    2  A    between atoms: C_2  and  C_7
REMARK    3  A    between atoms: C_10  and  C_11
REMARK    4  A    between atoms: C_11  and  C_13
REMARK    5  A    between atoms: C_13  and  C_14
REMARK    6  A    between atoms: C_14  and  C_15
REMARK    7  A    between atoms: C_15  and  N_16
REMARK    8  A    between atoms: C_19  and  C_20
REMARK    9  A    between atoms: C_20  and  C_22
REMARK   10  A    between atoms: C_20  and  C_28
REMARK                            x       y       z     vdW  Elec       q    Type
REMARK                         _______ _______ _______ _____ _____    ______ ____
ROOT
ATOM      1  N   UNL     1       3.513   5.671  -3.279  0.00  0.00    -0.273 NA
ATOM      2  C   UNL     1       3.471   5.916  -1.839  0.00  0.00    +0.072 C 
ATOM      3  C   UNL     1       2.073   5.761  -1.309  0.00  0.00    +0.020 C 
ATOM      4  C   UNL     1       1.032   6.390  -2.191  0.00  0.00    +0.039 C 
ATOM      5  C   UNL     1       1.100   5.915  -3.617  0.00  0.00    +0.020 C 
ATOM      6  C   UNL     1       2.302   4.991  -3.735  0.00  0.00    +0.072 C 
ENDROOT
BRANCH   4   7
ATOM      7  C   UNL     1      -0.333   6.045  -1.637  0.00  0.00    +0.164 C 
ATOM      8  O   UNL     1      -0.353   4.657  -1.473  0.00  0.00    -0.217 OA
BRANCH   7   9
ATOM      9  C   UNL     1      -1.396   6.386  -2.603  0.00  0.00    +0.009 A 
ATOM     10  C   UNL     1      -1.618   7.665  -3.074  0.00  0.00    -0.002 A 
ATOM     11  C   UNL     1      -2.182   7.814  -4.328  0.00  0.00    -0.000 A 
ATOM     12  C   UNL     1      -2.751   6.757  -4.992  0.00  0.00    -0.000 A 
ATOM     13  C   UNL     1      -2.864   5.550  -4.325  0.00  0.00    -0.000 A 
ATOM     14  C   UNL     1      -2.028   5.329  -3.240  0.00  0.00    -0.002 A 
ENDBRANCH   7   9
BRANCH   7  15
ATOM     15  C   UNL     1      -0.562   6.671  -0.299  0.00  0.00    +0.009 A 
ATOM     16  C   UNL     1      -1.789   6.513   0.332  0.00  0.00    -0.002 A 
ATOM     17  C   UNL     1      -2.264   7.495   1.192  0.00  0.00    -0.000 A 
ATOM     18  C   UNL     1      -1.522   8.643   1.439  0.00  0.00    -0.000 A 
ATOM     19  C   UNL     1      -0.265   8.756   0.907  0.00  0.00    -0.000 A 
ATOM     20  C   UNL     1       0.218   7.718   0.154  0.00  0.00    -0.002 A 
ENDBRANCH   7  15
ENDBRANCH   4   7
BRANCH   1  21
ATOM     21  C   UNL     1       3.435   6.984  -3.897  0.00  0.00    +0.072 C 
BRANCH  21  22
ATOM     22  C   UNL     1       4.325   7.130  -5.021  0.00  0.00    +0.020 C 
BRANCH  22  23
ATOM     23  C   UNL     1       4.261   6.142  -6.129  0.00  0.00    +0.039 C 
BRANCH  23  24
ATOM     24  C   UNL     1       3.264   6.824  -7.260  0.00  0.00    +0.174 C 
ATOM     25  O   UNL     1       2.181   5.778  -7.026  0.00  0.00    -0.218 OA
BRANCH  24  29
ATOM     26  C   UNL     1       5.843   6.116 -10.542  0.00  0.00    -0.013 A 
ATOM     27  C   UNL     1       4.584   6.660 -10.711  0.00  0.00    -0.004 A 
ATOM     28  C   UNL     1       3.609   6.526  -9.727  0.00  0.00    -0.002 A 
ATOM     29  C   UNL     1       3.908   5.972  -8.485  0.00  0.00    +0.008 A 
ATOM     30  C   UNL     1       5.246   5.672  -8.294  0.00  0.00    -0.002 A 
ATOM     31  C   UNL     1       6.032   5.379  -9.393  0.00  0.00    -0.004 A 
BRANCH  26  33
ATOM     32  C   UNL     1       6.843   7.071 -11.950  0.00  0.00    +0.016 C 
ATOM     33  C   UNL     1       7.043   6.604 -11.298  0.00  0.00    +0.113 C 
ATOM     34  C   UNL     1       7.892   7.385 -10.299  0.00  0.00    +0.016 C 
BRANCH  33  35
ATOM     35  C   UNL     1       7.849   5.440 -11.783  0.00  0.00    +0.368 C 
ATOM     36  O   UNL     1       7.254   4.695 -12.808  0.00  0.00    -0.245 OA
ATOM     37  O   UNL     1       9.094   5.635 -11.901  0.00  0.00    -0.245 OA
ENDBRANCH  33  35
ENDBRANCH  26  33
ENDBRANCH  24  29
ENDBRANCH  23  24
ENDBRANCH  22  23
ENDBRANCH  21  22
ENDBRANCH   1  21
TORSDOF 10
ENDMDL
MODEL 4
REMARK VINA RESULT:      -9.0      3.822      7.063
REMARK  Name = 
REMARK  10 active torsions:
REMARK  status: ('A' for Active; 'I' for Inactive)
REMARK    1  A    between atoms: C_2  and  C_4
REMARK    2  A    between atoms: C_2  and  C_7
REMARK    3  A    between atoms: C_10  and  C_11
REMARK    4  A    between atoms: C_11  and  C_13
REMARK    5  A    between atoms: C_13  and  C_14
REMARK    6  A    between atoms: C_14  and  C_15
REMARK    7  A    between atoms: C_15  and  N_16
REMARK    8  A    between atoms: C_19  and  C_20
REMARK    9  A    between atoms: C_20  and  C_22
REMARK   10  A    between atoms: C_20  and  C_28
REMARK                            x       y       z     vdW  Elec       q    Type
REMARK                         _______ _______ _______ _____ _____    ______ ____
ROOT
ATOM      1  N   UNL     1       1.647   6.132  -9.506  0.00  0.00    -0.273 NA
ATOM      2  C   UNL     1       2.200   7.209  -8.688  0.00  0.00    +0.072 C 
ATOM      3  C   UNL     1       2.148   6.855  -7.228  0.00  0.00    +0.020 C 
ATOM      4  C   UNL     1       0.851   6.215  -6.820  0.00  0.00    +0.039 C 
ATOM      5  C   UNL     1       0.495   5.016  -7.655  0.00  0.00    +0.020 C 
ATOM      6  C   UNL     1       1.548   4.888  -8.744  0.00  0.00    +0.072 C 
ENDROOT
BRANCH   4   7
ATOM      7  C   UNL     1       0.972   5.774  -5.378  0.00  0.00    +0.164 C 
ATOM      8  O   UNL     1       0.779   4.390  -5.371  0.00  0.00    -0.217 OA
BRANCH   7   9
ATOM      9  C   UNL     1      -0.100   6.368  -4.554  0.00  0.00    +0.009 A 
ATOM     10  C   UNL     1      -0.759   7.536  -4.884  0.00  0.00    -0.002 A 
ATOM     11  C   UNL     1      -2.055   7.707  -4.435  0.00  0.00    -0.000 A 
ATOM     12  C   UNL     1      -2.601   6.889  -3.480  0.00  0.00    -0.000 A 
ATOM     13  C   UNL     1      -1.781   5.952  -2.874  0.00  0.00    -0.000 A 
ATOM     14  C   UNL     1      -0.624   5.578  -3.541  0.00  0.00    -0.002 A 
ENDBRANCH   7   9
BRANCH   7  15
ATOM     15  C   UNL     1       2.332   6.054  -4.824  0.00  0.00    +0.009 A 
ATOM     16  C   UNL     1       3.296   5.054  -4.833  0.00  0.00    -0.002 A 
ATOM     17  C   UNL     1       4.281   5.026  -3.855  0.00  0.00    -0.000 A 
ATOM     18  C   UNL     1       4.324   5.994  -2.860  0.00  0.00    -0.000 A 
ATOM     19  C   UNL     1       3.445   7.043  -2.908  0.00  0.00    -0.000 A 
ATOM     20  C   UNL     1       2.557   7.100  -3.951  0.00  0.00    -0.002 A 
ENDBRANCH   7  15
ENDBRANCH   4   7
BRANCH   1  21
ATOM     21  C   UNL     1       0.265   6.505  -9.754  0.00  0.00    +0.072 C 
BRANCH  21  22
ATOM     22  C   UNL     1      -0.092   6.446 -11.149  0.00  0.00    +0.020 C 
BRANCH  22  23
ATOM     23  C   UNL     1       0.585   5.460 -12.029  0.00  0.00    +0.039 C 
BRANCH  23  24
ATOM     24  C   UNL     1       1.261   6.356 -13.245  0.00  0.00    +0.174 C 
ATOM     25  O   UNL     1       0.735   5.412 -14.318  0.00  0.00    -0.218 OA
BRANCH  24  29
ATOM     26  C   UNL     1       5.474   6.000 -13.003  0.00  0.00    -0.013 A 
ATOM     27  C   UNL     1       4.816   6.049 -14.219  0.00  0.00    -0.004 A 
ATOM     28  C   UNL     1       3.456   5.768 -14.307  0.00  0.00    -0.002 A 
ATOM     29  C   UNL     1       2.683   5.572 -13.166  0.00  0.00    +0.008 A 
ATOM     30  C   UNL     1       3.352   5.780 -11.972  0.00  0.00    -0.002 A 
ATOM     31  C   UNL     1       4.720   5.583 -11.928  0.00  0.00    -0.004 A 
BRANCH  26  33
ATOM     32  C   UNL     1       7.019   7.160 -13.406  0.00  0.00    +0.016 C 
ATOM     33  C   UNL     1       6.762   6.725 -12.752  0.00  0.00    +0.113 C 
ATOM     34  C   UNL     1       6.517   7.633 -11.549  0.00  0.00    +0.016 C 
BRANCH  33  35
ATOM     35  C   UNL     1       7.834   5.748 -12.385  0.00  0.00    +0.368 C 
ATOM     36  O   UNL     1       8.156   5.709 -11.023  0.00  0.00    -0.245 OA
ATOM     37  O   UNL     1       7.790   4.627 -12.969  0.00  0.00    -0.245 OA
ENDBRANCH  33  35
ENDBRANCH  26  33
ENDBRANCH  24  29
ENDBRANCH  23  24
ENDBRANCH  22  23
ENDBRANCH  21  22
ENDBRANCH   1  21
TORSDOF 10
ENDMDL
MODEL 5
REMARK VINA RESULT:      -8.9      2.869      8.003
REMARK  Name = 
REMARK  10 active torsions:
REMARK  status: ('A' for Active; 'I' for Inactive)
REMARK    1  A    between atoms: C_2  and  C_4
REMARK    2  A    between atoms: C_2  and  C_7
REMARK    3  A    between atoms: C_10  and  C_11
REMARK    4  A    between atoms: C_11  and  C_13
REMARK    5  A    between atoms: C_13  and  C_14
REMARK    6  A    between atoms: C_14  and  C_15
REMARK    7  A    between atoms: C_15  and  N_16
REMARK    8  A    between atoms: C_19  and  C_20
REMARK    9  A    between atoms: C_20  and  C_22
REMARK   10  A    between atoms: C_20  and  C_28
REMARK                            x       y       z     vdW  Elec       q    Type
REMARK                         _______ _______ _______ _____ _____    ______ ____
ROOT
ATOM      1  N   UNL     1       2.848   5.204  -5.411  0.00  0.00    -0.273 NA
ATOM      2  C   UNL     1       2.121   4.205  -6.192  0.00  0.00    +0.072 C 
ATOM      3  C   UNL     1       2.536   4.246  -7.636  0.00  0.00    +0.020 C 
ATOM      4  C   UNL     1       2.670   5.642  -8.174  0.00  0.00    +0.039 C 
ATOM      5  C   UNL     1       3.583   6.508  -7.350  0.00  0.00    +0.020 C 
ATOM      6  C   UNL     1       4.016   5.695  -6.140  0.00  0.00    +0.072 C 
ENDROOT
BRANCH   4   7
ATOM      7  C   UNL     1       3.230   5.559  -9.577  0.00  0.00    +0.164 C 
ATOM      8  O   UNL     1       3.358   4.199  -9.871  0.00  0.00    -0.217 OA
BRANCH   7   9
ATOM      9  C   UNL     1       4.582   6.148  -9.642  0.00  0.00    +0.009 A 
ATOM     10  C   UNL     1       5.707   5.536  -9.125  0.00  0.00    -0.002 A 
ATOM     11  C   UNL     1       6.931   5.821  -9.699  0.00  0.00    -0.000 A 
ATOM     12  C   UNL     1       7.091   6.864 -10.575  0.00  0.00    -0.000 A 
ATOM     13  C   UNL     1       6.019   7.715 -10.782  0.00  0.00    -0.000 A 
ATOM     14  C   UNL     1       4.751   7.244 -10.475  0.00  0.00    -0.002 A 
ENDBRANCH   7   9
BRANCH   7  15
ATOM     15  C   UNL     1       2.300   6.163 -10.581  0.00  0.00    +0.009 A 
ATOM     16  C   UNL     1       1.093   6.705 -10.160  0.00  0.00    -0.002 A 
ATOM     17  C   UNL     1      -0.005   6.706 -11.009  0.00  0.00    -0.000 A 
ATOM     18  C   UNL     1       0.084   6.173 -12.288  0.00  0.00    -0.000 A 
ATOM     19  C   UNL     1       1.297   5.736 -12.749  0.00  0.00    -0.000 A 
ATOM     20  C   UNL     1       2.385   5.853 -11.925  0.00  0.00    -0.002 A 
ENDBRANCH   7  15
ENDBRANCH   4   7
BRANCH   1  21
ATOM     21  C   UNL     1       1.966   6.357  -5.341  0.00  0.00    +0.072 C 
BRANCH  21  22
ATOM     22  C   UNL     1       0.670   6.040  -4.794  0.00  0.00    +0.020 C 
BRANCH  22  23
ATOM     23  C   UNL     1      -0.527   6.750  -5.312  0.00  0.00    +0.039 C 
BRANCH  23  24
ATOM     24  C   UNL     1      -1.725   5.608  -5.350  0.00  0.00    +0.174 C 
ATOM     25  O   UNL     1      -2.572   6.438  -6.306  0.00  0.00    -0.218 OA
BRANCH  24  29
ATOM     26  C   UNL     1      -2.129   6.768  -1.297  0.00  0.00    -0.013 A 
ATOM     27  C   UNL     1      -2.482   5.503  -1.731  0.00  0.00    -0.004 A 
ATOM     28  C   UNL     1      -2.727   5.252  -3.078  0.00  0.00    -0.002 A 
ATOM     29  C   UNL     1      -2.484   6.220  -4.049  0.00  0.00    +0.008 A 
ATOM     30  C   UNL     1      -1.898   7.380  -3.574  0.00  0.00    -0.002 A 
ATOM     31  C   UNL     1      -2.117   7.753  -2.260  0.00  0.00    -0.004 A 
BRANCH  26  33
ATOM     32  C   UNL     1      -1.638   6.481   0.593  0.00  0.00    +0.016 C 
ATOM     33  C   UNL     1      -1.410   7.006  -0.004  0.00  0.00    +0.113 C 
ATOM     34  C   UNL     1       0.081   6.878  -0.310  0.00  0.00    +0.016 C 
BRANCH  33  35
ATOM     35  C   UNL     1      -1.667   8.401   0.474  0.00  0.00    +0.368 C 
ATOM     36  O   UNL     1      -2.613   8.508   1.501  0.00  0.00    -0.245 OA
ATOM     37  O   UNL     1      -0.652   9.148   0.585  0.00  0.00    -0.245 OA
ENDBRANCH  33  35
ENDBRANCH  26  33
ENDBRANCH  24  29
ENDBRANCH  23  24
ENDBRANCH  22  23
ENDBRANCH  21  22
ENDBRANCH   1  21
TORSDOF 10
ENDMDL
MODEL 6
REMARK VINA RESULT:      -8.6      1.787      6.450
REMARK  Name = 
REMARK  10 active torsions:
REMARK  status: ('A' for Active; 'I' for Inactive)
REMARK    1  A    between atoms: C_2  and  C_4
REMARK    2  A    between atoms: C_2  and  C_7
REMARK    3  A    between atoms: C_10  and  C_11
REMARK    4  A    between atoms: C_11  and  C_13
REMARK    5  A    between atoms: C_13  and  C_14
REMARK    6  A    between atoms: C_14  and  C_15
REMARK    7  A    between atoms: C_15  and  N_16
REMARK    8  A    between atoms: C_19  and  C_20
REMARK    9  A    between atoms: C_20  and  C_22
REMARK   10  A    between atoms: C_20  and  C_28
REMARK                            x       y       z     vdW  Elec       q    Type
REMARK                         _______ _______ _______ _____ _____    ______ ____
ROOT
ATOM      1  N   UNL     1      -2.764   6.987  -4.790  0.00  0.00    -0.273 NA
ATOM      2  C   UNL     1      -1.647   7.878  -4.481  0.00  0.00    +0.072 C 
ATOM      3  C   UNL     1      -0.374   7.376  -5.102  0.00  0.00    +0.020 C 
ATOM      4  C   UNL     1      -0.190   5.892  -4.958  0.00  0.00    +0.039 C 
ATOM      5  C   UNL     1      -1.361   5.099  -5.470  0.00  0.00    +0.020 C 
ATOM      6  C   UNL     1      -2.434   6.089  -5.896  0.00  0.00    +0.072 C 
ENDROOT
BRANCH   4   7
ATOM      7  C   UNL     1       1.040   5.487  -5.741  0.00  0.00    +0.164 C 
ATOM      8  O   UNL     1       0.878   4.137  -6.062  0.00  0.00    -0.217 OA
BRANCH   7   9
ATOM      9  C   UNL     1       2.254   5.594  -4.908  0.00  0.00    +0.009 A 
ATOM     10  C   UNL     1       3.369   4.796  -5.077  0.00  0.00    -0.002 A 
ATOM     11  C   UNL     1       4.600   5.301  -4.702  0.00  0.00    -0.000 A 
ATOM     12  C   UNL     1       4.712   6.441  -3.948  0.00  0.00    -0.000 A 
ATOM     13  C   UNL     1       3.553   7.016  -3.455  0.00  0.00    -0.000 A 
ATOM     14  C   UNL     1       2.359   6.709  -4.090  0.00  0.00    -0.002 A 
ENDBRANCH   7   9
BRANCH   7  15
ATOM     15  C   UNL     1       1.161   6.254  -7.019  0.00  0.00    +0.009 A 
ATOM     16  C   UNL     1       0.554   5.769  -8.171  0.00  0.00    -0.002 A 
ATOM     17  C   UNL     1       1.097   6.050  -9.417  0.00  0.00    -0.000 A 
ATOM     18  C   UNL     1       2.247   6.820  -9.534  0.00  0.00    -0.000 A 
ATOM     19  C   UNL     1       2.788   7.391  -8.414  0.00  0.00    -0.000 A 
ATOM     20  C   UNL     1       2.162   7.185  -7.213  0.00  0.00    -0.002 A 
ENDBRANCH   7  15
ENDBRANCH   4   7
BRANCH   1  21
ATOM     21  C   UNL     1      -2.884   6.104  -3.642  0.00  0.00    +0.072 C 
BRANCH  21  22
ATOM     22  C   UNL     1      -2.807   6.805  -2.384  0.00  0.00    +0.020 C 
BRANCH  22  23
ATOM     23  C   UNL     1      -1.985   6.235  -1.287  0.00  0.00    +0.039 C 
BRANCH  23  24
ATOM     24  C   UNL     1      -2.092   7.331  -0.052  0.00  0.00    +0.174 C 
ATOM     25  O   UNL     1      -1.460   8.434  -0.892  0.00  0.00    -0.218 OA
BRANCH  24  29
ATOM     26  C   UNL     1       2.079   7.627   0.619  0.00  0.00    -0.013 A 
ATOM     27  C   UNL     1       1.560   6.861  -0.408  0.00  0.00    -0.004 A 
ATOM     28  C   UNL     1       0.231   6.446  -0.390  0.00  0.00    -0.002 A 
ATOM     29  C   UNL     1      -0.656   6.906   0.580  0.00  0.00    +0.008 A 
ATOM     30  C   UNL     1      -0.132   7.862   1.434  0.00  0.00    -0.002 A 
ATOM     31  C   UNL     1       1.229   7.873   1.675  0.00  0.00    -0.004 A 
BRANCH  26  33
ATOM     32  C   UNL     1       3.362   8.808  -0.305  0.00  0.00    +0.016 C 
ATOM     33  C   UNL     1       3.299   8.482   0.452  0.00  0.00    +0.113 C 
ATOM     34  C   UNL     1       3.209   9.573   1.517  0.00  0.00    +0.016 C 
BRANCH  33  35
ATOM     35  C   UNL     1       4.530   7.673   0.719  0.00  0.00    +0.368 C 
ATOM     36  O   UNL     1       4.466   6.859   1.857  0.00  0.00    -0.245 OA
ATOM     37  O   UNL     1       5.088   7.157  -0.292  0.00  0.00    -0.245 OA
ENDBRANCH  33  35
ENDBRANCH  26  33
ENDBRANCH  24  29
ENDBRANCH  23  24
ENDBRANCH  22  23
ENDBRANCH  21  22
ENDBRANCH   1  21
TORSDOF 10
ENDMDL
MODEL 7
REMARK VINA RESULT:      -8.6      2.189      7.949
REMARK  Name = 
REMARK  10 active torsions:
REMARK  status: ('A' for Active; 'I' for Inactive)
REMARK    1  A    between atoms: C_2  and  C_4
REMARK    2  A    between atoms: C_2  and  C_7
REMARK    3  A    between atoms: C_10  and  C_11
REMARK    4  A    between atoms: C_11  and  C_13
REMARK    5  A    between atoms: C_13  and  C_14
REMARK    6  A    between atoms: C_14  and  C_15
REMARK    7  A    between atoms: C_15  and  N_16
REMARK    8  A    between atoms: C_19  and  C_20
REMARK    9  A    between atoms: C_20  and  C_22
REMARK   10  A    between atoms: C_20  and  C_28
REMARK                            x       y       z     vdW  Elec       q    Type
REMARK                         _______ _______ _______ _____ _____    ______ ____
ROOT
ATOM      1  N   UNL     1       5.131   5.968  -4.945  0.00  0.00    -0.273 NA
ATOM      2  C   UNL     1       4.338   5.147  -4.032  0.00  0.00    +0.072 C 
ATOM      3  C   UNL     1       3.084   4.658  -4.702  0.00  0.00    +0.020 C 
ATOM      4  C   UNL     1       2.400   5.715  -5.522  0.00  0.00    +0.039 C 
ATOM      5  C   UNL     1       3.308   6.360  -6.533  0.00  0.00    +0.020 C 
ATOM      6  C   UNL     1       4.700   5.783  -6.330  0.00  0.00    +0.072 C 
ENDROOT
BRANCH   4   7
ATOM      7  C   UNL     1       1.244   5.073  -6.258  0.00  0.00    +0.164 C 
ATOM      8  O   UNL     1       1.385   3.693  -6.085  0.00  0.00    -0.217 OA
BRANCH   7   9
ATOM      9  C   UNL     1       1.328   5.341  -7.707  0.00  0.00    +0.009 A 
ATOM     10  C   UNL     1       1.760   4.410  -8.632  0.00  0.00    -0.002 A 
ATOM     11  C   UNL     1       1.283   4.502  -9.926  0.00  0.00    -0.000 A 
ATOM     12  C   UNL     1       0.615   5.615 -10.371  0.00  0.00    -0.000 A 
ATOM     13  C   UNL     1       0.534   6.709  -9.528  0.00  0.00    -0.000 A 
ATOM     14  C   UNL     1       0.712   6.494  -8.169  0.00  0.00    -0.002 A 
ENDBRANCH   7   9
BRANCH   7  15
ATOM     15  C   UNL     1      -0.075   5.479  -5.682  0.00  0.00    +0.009 A 
ATOM     16  C   UNL     1      -1.248   5.091  -6.315  0.00  0.00    -0.002 A 
ATOM     17  C   UNL     1      -2.385   5.883  -6.223  0.00  0.00    -0.000 A 
ATOM     18  C   UNL     1      -2.370   7.066  -5.496  0.00  0.00    -0.000 A 
ATOM     19  C   UNL     1      -1.252   7.399  -4.781  0.00  0.00    -0.000 A 
ATOM     20  C   UNL     1      -0.186   6.538  -4.803  0.00  0.00    -0.002 A 
ENDBRANCH   7  15
ENDBRANCH   4   7
BRANCH   1  21
ATOM     21  C   UNL     1       4.770   7.342  -4.643  0.00  0.00    +0.072 C 
BRANCH  21  22
ATOM     22  C   UNL     1       4.789   7.631  -3.231  0.00  0.00    +0.020 C 
BRANCH  22  23
ATOM     23  C   UNL     1       3.520   7.989  -2.548  0.00  0.00    +0.039 C 
BRANCH  23  24
ATOM     24  C   UNL     1       3.935   8.228  -0.963  0.00  0.00    +0.174 C 
ATOM     25  O   UNL     1       4.970   7.112  -1.000  0.00  0.00    -0.218 OA
BRANCH  24  29
ATOM     26  C   UNL     1      -0.023   6.885  -0.278  0.00  0.00    -0.013 A 
ATOM     27  C   UNL     1       0.640   7.691   0.629  0.00  0.00    -0.004 A 
ATOM     28  C   UNL     1       2.027   7.801   0.609  0.00  0.00    -0.002 A 
ATOM     29  C   UNL     1       2.782   7.224  -0.409  0.00  0.00    +0.008 A 
ATOM     30  C   UNL     1       2.038   6.640  -1.419  0.00  0.00    -0.002 A 
ATOM     31  C   UNL     1       0.777   6.153  -1.128  0.00  0.00    -0.004 A 
BRANCH  26  33
ATOM     32  C   UNL     1      -1.597   7.720  -1.126  0.00  0.00    +0.016 C 
ATOM     33  C   UNL     1      -1.469   7.076  -0.623  0.00  0.00    +0.113 C 
ATOM     34  C   UNL     1      -1.933   5.772  -1.268  0.00  0.00    +0.016 C 
BRANCH  33  35
ATOM     35  C   UNL     1      -2.268   7.288   0.624  0.00  0.00    +0.368 C 
ATOM     36  O   UNL     1      -2.066   6.330   1.625  0.00  0.00    -0.245 OA
ATOM     37  O   UNL     1      -2.370   8.484   1.024  0.00  0.00    -0.245 OA
ENDBRANCH  33  35
ENDBRANCH  26  33
ENDBRANCH  24  29
ENDBRANCH  23  24
ENDBRANCH  22  23
ENDBRANCH  21  22
ENDBRANCH   1  21
TORSDOF 10
ENDMDL
MODEL 8
REMARK VINA RESULT:      -8.6      2.195      7.697
REMARK  Name = 
REMARK  10 active torsions:
REMARK  status: ('A' for Active; 'I' for Inactive)
REMARK    1  A    between atoms: C_2  and  C_4
REMARK    2  A    between atoms: C_2  and  C_7
REMARK    3  A    between atoms: C_10  and  C_11
REMARK    4  A    between atoms: C_11  and  C_13
REMARK    5  A    between atoms: C_13  and  C_14
REMARK    6  A    between atoms: C_14  and  C_15
REMARK    7  A    between atoms: C_15  and  N_16
REMARK    8  A    between atoms: C_19  and  C_20
REMARK    9  A    between atoms: C_20  and  C_22
REMARK   10  A    between atoms: C_20  and  C_28
REMARK                            x       y       z     vdW  Elec       q    Type
REMARK                         _______ _______ _______ _____ _____    ______ ____
ROOT
ATOM      1  N   UNL     1       2.451   5.440  -4.690  0.00  0.00    -0.273 NA
ATOM      2  C   UNL     1       2.789   6.848  -4.886  0.00  0.00    +0.072 C 
ATOM      3  C   UNL     1       2.747   7.212  -6.344  0.00  0.00    +0.020 C 
ATOM      4  C   UNL     1       3.375   6.175  -7.232  0.00  0.00    +0.039 C 
ATOM      5  C   UNL     1       2.806   4.798  -7.026  0.00  0.00    +0.020 C 
ATOM      6  C   UNL     1       1.811   4.880  -5.879  0.00  0.00    +0.072 C 
ENDROOT
BRANCH   4   7
ATOM      7  C   UNL     1       3.143   6.578  -8.671  0.00  0.00    +0.164 C 
ATOM      8  O   UNL     1       2.941   7.960  -8.667  0.00  0.00    -0.217 OA
BRANCH   7   9
ATOM      9  C   UNL     1       1.911   5.959  -9.200  0.00  0.00    +0.009 A 
ATOM     10  C   UNL     1       0.726   6.646  -9.375  0.00  0.00    -0.002 A 
ATOM     11  C   UNL     1      -0.145   6.211 -10.357  0.00  0.00    -0.000 A 
ATOM     12  C   UNL     1       0.010   4.995 -10.971  0.00  0.00    -0.000 A 
ATOM     13  C   UNL     1       0.994   4.144 -10.498  0.00  0.00    -0.000 A 
ATOM     14  C   UNL     1       2.035   4.700  -9.770  0.00  0.00    -0.002 A 
ENDBRANCH   7   9
BRANCH   7  15
ATOM     15  C   UNL     1       4.335   6.288  -9.527  0.00  0.00    +0.009 A 
ATOM     16  C   UNL     1       5.380   5.531  -9.015  0.00  0.00    -0.002 A 
ATOM     17  C   UNL     1       6.677   5.734  -9.468  0.00  0.00    -0.000 A 
ATOM     18  C   UNL     1       6.949   6.689 -10.439  0.00  0.00    -0.000 A 
ATOM     19  C   UNL     1       5.912   7.362 -11.026  0.00  0.00    -0.000 A 
ATOM     20  C   UNL     1       4.634   7.057 -10.635  0.00  0.00    -0.002 A 
ENDBRANCH   7  15
ENDBRANCH   4   7
BRANCH   1  21
ATOM     21  C   UNL     1       3.723   4.743  -4.611  0.00  0.00    +0.072 C 
BRANCH  21  22
ATOM     22  C   UNL     1       4.494   5.110  -3.450  0.00  0.00    +0.020 C 
BRANCH  22  23
ATOM     23  C   UNL     1       3.986   4.754  -2.101  0.00  0.00    +0.039 C 
BRANCH  23  24
ATOM     24  C   UNL     1       3.779   6.199  -1.321  0.00  0.00    +0.174 C 
ATOM     25  O   UNL     1       4.509   5.705  -0.079  0.00  0.00    -0.218 OA
BRANCH  24  29
ATOM     26  C   UNL     1      -0.447   5.940  -1.220  0.00  0.00    -0.013 A 
ATOM     27  C   UNL     1       0.233   6.990  -0.630  0.00  0.00    -0.004 A 
ATOM     28  C   UNL     1       1.584   6.882  -0.317  0.00  0.00    -0.002 A 
ATOM     29  C   UNL     1       2.331   5.776  -0.715  0.00  0.00    +0.008 A 
ATOM     30  C   UNL     1       1.649   4.876  -1.514  0.00  0.00    -0.002 A 
ATOM     31  C   UNL     1       0.275   4.779  -1.394  0.00  0.00    -0.004 A 
BRANCH  26  33
ATOM     32  C   UNL     1      -2.192   5.457  -2.005  0.00  0.00    +0.016 C 
ATOM     33  C   UNL     1      -1.714   6.132  -1.997  0.00  0.00    +0.113 C 
ATOM     34  C   UNL     1      -2.438   7.313  -1.354  0.00  0.00    +0.016 C 
BRANCH  33  35
ATOM     35  C   UNL     1      -1.395   6.499  -3.412  0.00  0.00    +0.368 C 
ATOM     36  O   UNL     1      -1.716   5.521  -4.362  0.00  0.00    -0.245 OA
ATOM     37  O   UNL     1      -1.648   7.692  -3.749  0.00  0.00    -0.245 OA
ENDBRANCH  33  35
ENDBRANCH  26  33
ENDBRANCH  24  29
ENDBRANCH  23  24
ENDBRANCH  22  23
ENDBRANCH  21  22
ENDBRANCH   1  21
TORSDOF 10
ENDMDL
MODEL 9
REMARK VINA RESULT:      -8.6      1.626      5.372
REMARK  Name = 
REMARK  10 active torsions:
REMARK  status: ('A' for Active; 'I' for Inactive)
REMARK    1  A    between atoms: C_2  and  C_4
REMARK    2  A    between atoms: C_2  and  C_7
REMARK    3  A    between atoms: C_10  and  C_11
REMARK    4  A    between atoms: C_11  and  C_13
REMARK    5  A    between atoms: C_13  and  C_14
REMARK    6  A    between atoms: C_14  and  C_15
REMARK    7  A    between atoms: C_15  and  N_16
REMARK    8  A    between atoms: C_19  and  C_20
REMARK    9  A    between atoms: C_20  and  C_22
REMARK   10  A    between atoms: C_20  and  C_28
REMARK                            x       y       z     vdW  Elec       q    Type
REMARK                         _______ _______ _______ _____ _____    ______ ____
ROOT
ATOM      1  N   UNL     1       4.819   6.335  -4.328  0.00  0.00    -0.273 NA
ATOM      2  C   UNL     1       4.857   7.744  -3.942  0.00  0.00    +0.072 C 
ATOM      3  C   UNL     1       4.526   7.910  -2.485  0.00  0.00    +0.020 C 
ATOM      4  C   UNL     1       3.371   7.057  -2.040  0.00  0.00    +0.039 C 
ATOM      5  C   UNL     1       3.553   5.600  -2.365  0.00  0.00    +0.020 C 
ATOM      6  C   UNL     1       4.846   5.465  -3.154  0.00  0.00    +0.072 C 
ENDROOT
BRANCH   4   7
ATOM      7  C   UNL     1       3.228   7.198  -0.540  0.00  0.00    +0.164 C 
ATOM      8  O   UNL     1       3.989   6.173   0.027  0.00  0.00    -0.217 OA
BRANCH   7   9
ATOM      9  C   UNL     1       1.827   6.984  -0.122  0.00  0.00    +0.009 A 
ATOM     10  C   UNL     1       1.256   7.598   0.974  0.00  0.00    -0.002 A 
ATOM     11  C   UNL     1      -0.109   7.816   0.966  0.00  0.00    -0.000 A 
ATOM     12  C   UNL     1      -0.928   7.223   0.040  0.00  0.00    -0.000 A 
ATOM     13  C   UNL     1      -0.375   6.291  -0.821  0.00  0.00    -0.000 A 
ATOM     14  C   UNL     1       0.997   6.329  -1.020  0.00  0.00    -0.002 A 
ENDBRANCH   7   9
BRANCH   7  15
ATOM     15  C   UNL     1       3.772   8.502  -0.051  0.00  0.00    +0.009 A 
ATOM     16  C   UNL     1       4.546   8.534   1.101  0.00  0.00    -0.002 A 
ATOM     17  C   UNL     1       4.554   9.665   1.906  0.00  0.00    -0.000 A 
ATOM     18  C   UNL     1       3.797  10.780   1.572  0.00  0.00    -0.000 A 
ATOM     19  C   UNL     1       3.118  10.798   0.384  0.00  0.00    -0.000 A 
ATOM     20  C   UNL     1       3.221   9.707  -0.440  0.00  0.00    -0.002 A 
ENDBRANCH   7  15
ENDBRANCH   4   7
BRANCH   1  21
ATOM     21  C   UNL     1       3.498   6.124  -4.894  0.00  0.00    +0.072 C 
BRANCH  21  22
ATOM     22  C   UNL     1       3.295   6.839  -6.129  0.00  0.00    +0.020 C 
BRANCH  22  23
ATOM     23  C   UNL     1       1.973   6.764  -6.801  0.00  0.00    +0.039 C 
BRANCH  23  24
ATOM     24  C   UNL     1       1.929   5.266  -7.504  0.00  0.00    +0.174 C 
ATOM     25  O   UNL     1       1.138   5.781  -8.699  0.00  0.00    -0.218 OA
BRANCH  24  29
ATOM     26  C   UNL     1      -1.398   5.800  -4.939  0.00  0.00    -0.013 A 
ATOM     27  C   UNL     1      -0.185   5.332  -4.470  0.00  0.00    -0.004 A 
ATOM     28  C   UNL     1       0.757   4.788  -5.338  0.00  0.00    -0.002 A 
ATOM     29  C   UNL     1       0.575   4.829  -6.718  0.00  0.00    +0.008 A 
ATOM     30  C   UNL     1      -0.544   5.531  -7.132  0.00  0.00    -0.002 A 
ATOM     31  C   UNL     1      -1.633   5.617  -6.284  0.00  0.00    -0.004 A 
BRANCH  26  33
ATOM     32  C   UNL     1      -1.775   7.296  -3.708  0.00  0.00    +0.016 C 
ATOM     33  C   UNL     1      -2.228   6.795  -4.184  0.00  0.00    +0.113 C 
ATOM     34  C   UNL     1      -3.010   7.585  -5.230  0.00  0.00    +0.016 C 
BRANCH  33  35
ATOM     35  C   UNL     1      -3.212   6.080  -3.311  0.00  0.00    +0.368 C 
ATOM     36  O   UNL     1      -2.901   4.742  -3.043  0.00  0.00    -0.245 OA
ATOM     37  O   UNL     1      -3.674   6.741  -2.336  0.00  0.00    -0.245 OA
ENDBRANCH  33  35
ENDBRANCH  26  33
ENDBRANCH  24  29
ENDBRANCH  23  24
ENDBRANCH  22  23
ENDBRANCH  21  22
ENDBRANCH   1  21
TORSDOF 10
ENDMDL
