MODEL 1
REMARK VINA RESULT:      -7.2      0.000      0.000
REMARK  Name = 
REMARK  5 active torsions:
REMARK  status: ('A' for Active; 'I' for Inactive)
REMARK    1  A    between atoms: C_2  and  C_3
REMARK    2  A    between atoms: C_2  and  C_9
REMARK    3  A    between atoms: C_2  and  C_15
REMARK    4  A    between atoms: C_3  and  N_4
REMARK    5  A    between atoms: C_9  and  N_10
REMARK                            x       y       z     vdW  Elec       q    Type
REMARK                         _______ _______ _______ _____ _____    ______ ____
ROOT
ATOM      1  O   UNL     1       3.780   4.627  -9.991  0.00  0.00    -0.217 OA
ATOM      2  C   UNL     1       3.794   6.017  -9.917  0.00  0.00    +0.192 C 
ENDROOT
BRANCH   2   3
ATOM      3  C   UNL     1       5.199   6.532  -9.987  0.00  0.00    +0.036 A 
ATOM      4  C   UNL     1       6.204   5.692  -9.522  0.00  0.00    +0.141 A 
ATOM      5  F   UNL     1       5.973   5.079  -8.325  0.00  0.00    -0.204 F 
ATOM      6  C   UNL     1       7.509   5.794  -9.990  0.00  0.00    +0.059 A 
ATOM      7  C   UNL     1       7.737   6.503 -11.159  0.00  0.00    +0.142 A 
ATOM      8  F   UNL     1       8.618   6.073 -12.108  0.00  0.00    -0.204 F 
ATOM      9  C   UNL     1       6.858   7.551 -11.396  0.00  0.00    +0.030 A 
ATOM     10  C   UNL     1       5.560   7.506 -10.903  0.00  0.00    +0.003 A 
ENDBRANCH   2   3
BRANCH   2  11
ATOM     11  C   UNL     1       3.191   6.541  -8.632  0.00  0.00    +0.166 C 
BRANCH  11  12
ATOM     12  N   UNL     1       2.525   5.519  -7.867  0.00  0.00    -0.227 N 
ATOM     13  N   UNL     1       3.038   4.755  -6.904  0.00  0.00    -0.145 NA
ATOM     14  C   UNL     1       2.052   3.979  -6.391  0.00  0.00    +0.221 A 
ATOM     15  N   UNL     1       0.919   4.657  -6.689  0.00  0.00    -0.201 NA
ATOM     16  C   UNL     1       1.189   5.318  -7.836  0.00  0.00    +0.197 A 
ENDBRANCH  11  12
ENDBRANCH   2  11
BRANCH   2  17
ATOM     17  C   UNL     1       3.041   6.656 -11.053  0.00  0.00    +0.166 C 
BRANCH  17  18
ATOM     18  N   UNL     1       2.442   5.704 -11.951  0.00  0.00    -0.227 N 
ATOM     19  N   UNL     1       2.797   5.580 -13.224  0.00  0.00    -0.145 NA
ATOM     20  C   UNL     1       1.867   4.819 -13.835  0.00  0.00    +0.221 A 
ATOM     21  N   UNL     1       0.761   4.935 -13.102  0.00  0.00    -0.201 NA
ATOM     22  C   UNL     1       1.128   5.378 -11.891  0.00  0.00    +0.197 A 
ENDBRANCH  17  18
ENDBRANCH   2  17
TORSDOF 5
ENDMDL
MODEL 2
REMARK VINA RESULT:      -7.1      4.074      7.744
REMARK  Name = 
REMARK  5 active torsions:
REMARK  status: ('A' for Active; 'I' for Inactive)
REMARK    1  A    between atoms: C_2  and  C_3
REMARK    2  A    between atoms: C_2  and  C_9
REMARK    3  A    between atoms: C_2  and  C_15
REMARK    4  A    between atoms: C_3  and  N_4
REMARK    5  A    between atoms: C_9  and  N_10
REMARK                            x       y       z     vdW  Elec       q    Type
REMARK                         _______ _______ _______ _____ _____    ______ ____
ROOT
ATOM      1  O   UNL     1       2.331   4.371  -5.578  0.00  0.00    -0.217 OA
ATOM      2  C   UNL     1       1.573   5.305  -6.278  0.00  0.00    +0.192 C 
ENDROOT
BRANCH   2   3
ATOM      3  C   UNL     1       0.124   5.181  -5.919  0.00  0.00    +0.036 A 
ATOM      4  C   UNL     1      -0.233   5.495  -4.612  0.00  0.00    +0.141 A 
ATOM      5  F   UNL     1       0.555   4.971  -3.630  0.00  0.00    -0.204 F 
ATOM      6  C   UNL     1      -1.515   5.927  -4.294  0.00  0.00    +0.059 A 
ATOM      7  C   UNL     1      -2.336   6.367  -5.320  0.00  0.00    +0.142 A 
ATOM      8  F   UNL     1      -3.143   7.459  -5.186  0.00  0.00    -0.204 F 
ATOM      9  C   UNL     1      -2.121   5.762  -6.551  0.00  0.00    +0.030 A 
ATOM     10  C   UNL     1      -0.864   5.274  -6.885  0.00  0.00    +0.003 A 
ENDBRANCH   2   3
BRANCH   2  11
ATOM     11  C   UNL     1       1.675   5.136  -7.778  0.00  0.00    +0.166 C 
BRANCH  11  12
ATOM     12  N   UNL     1       2.959   5.528  -8.301  0.00  0.00    -0.227 N 
ATOM     13  N   UNL     1       4.091   4.826  -8.297  0.00  0.00    -0.145 NA
ATOM     14  C   UNL     1       5.043   5.529  -8.959  0.00  0.00    +0.221 A 
ATOM     15  N   UNL     1       4.334   6.356  -9.761  0.00  0.00    -0.201 NA
ATOM     16  C   UNL     1       3.179   6.594  -9.102  0.00  0.00    +0.197 A 
ENDBRANCH  11  12
ENDBRANCH   2  11
BRANCH   2  17
ATOM     17  C   UNL     1       1.978   6.720  -5.962  0.00  0.00    +0.166 C 
BRANCH  17  18
ATOM     18  N   UNL     1       3.042   6.810  -4.997  0.00  0.00    -0.227 N 
ATOM     19  N   UNL     1       2.863   7.238  -3.753  0.00  0.00    -0.145 NA
ATOM     20  C   UNL     1       4.080   7.462  -3.220  0.00  0.00    +0.221 A 
ATOM     21  N   UNL     1       4.898   7.669  -4.250  0.00  0.00    -0.201 NA
ATOM     22  C   UNL     1       4.305   7.161  -5.340  0.00  0.00    +0.197 A 
ENDBRANCH  17  18
ENDBRANCH   2  17
TORSDOF 5
ENDMDL
MODEL 3
REMARK VINA RESULT:      -7.1      4.326      8.034
REMARK  Name = 
REMARK  5 active torsions:
REMARK  status: ('A' for Active; 'I' for Inactive)
REMARK    1  A    between atoms: C_2  and  C_3
REMARK    2  A    between atoms: C_2  and  C_9
REMARK    3  A    between atoms: C_2  and  C_15
REMARK    4  A    between atoms: C_3  and  N_4
REMARK    5  A    between atoms: C_9  and  N_10
REMARK                            x       y       z     vdW  Elec       q    Type
REMARK                         _______ _______ _______ _____ _____    ______ ____
ROOT
ATOM      1  O   UNL     1       0.883   4.278  -5.909  0.00  0.00    -0.217 OA
ATOM      2  C   UNL     1       0.872   5.615  -6.298  0.00  0.00    +0.192 C 
ENDROOT
BRANCH   2   3
ATOM      3  C   UNL     1      -0.421   6.264  -5.909  0.00  0.00    +0.036 A 
ATOM      4  C   UNL     1      -1.573   5.494  -6.021  0.00  0.00    +0.141 A 
ATOM      5  F   UNL     1      -1.717   4.787  -7.178  0.00  0.00    -0.204 F 
ATOM      6  C   UNL     1      -2.694   5.749  -5.239  0.00  0.00    +0.059 A 
ATOM      7  C   UNL     1      -2.547   6.551  -4.117  0.00  0.00    +0.142 A 
ATOM      8  F   UNL     1      -3.172   6.268  -2.937  0.00  0.00    -0.204 F 
ATOM      9  C   UNL     1      -1.562   7.524  -4.210  0.00  0.00    +0.030 A 
ATOM     10  C   UNL     1      -0.450   7.324  -5.019  0.00  0.00    +0.003 A 
ENDBRANCH   2   3
BRANCH   2  11
ATOM     11  C   UNL     1       1.026   5.790  -7.793  0.00  0.00    +0.166 C 
BRANCH  11  12
ATOM     12  N   UNL     1       2.331   5.413  -8.271  0.00  0.00    -0.227 N 
ATOM     13  N   UNL     1       2.796   4.183  -8.487  0.00  0.00    -0.145 NA
ATOM     14  C   UNL     1       4.044   4.275  -9.011  0.00  0.00    +0.221 A 
ATOM     15  N   UNL     1       4.072   5.510  -9.562  0.00  0.00    -0.201 NA
ATOM     16  C   UNL     1       3.237   6.259  -8.809  0.00  0.00    +0.197 A 
ENDBRANCH  11  12
ENDBRANCH   2  11
BRANCH   2  17
ATOM     17  C   UNL     1       1.970   6.408  -5.643  0.00  0.00    +0.166 C 
BRANCH  17  18
ATOM     18  N   UNL     1       2.845   5.609  -4.825  0.00  0.00    -0.227 N 
ATOM     19  N   UNL     1       2.848   5.658  -3.498  0.00  0.00    -0.145 NA
ATOM     20  C   UNL     1       3.952   5.016  -3.069  0.00  0.00    +0.221 A 
ATOM     21  N   UNL     1       4.816   5.057  -4.082  0.00  0.00    -0.201 NA
ATOM     22  C   UNL     1       4.114   5.313  -5.195  0.00  0.00    +0.197 A 
ENDBRANCH  17  18
ENDBRANCH   2  17
TORSDOF 5
ENDMDL
MODEL 4
REMARK VINA RESULT:      -7.1      3.350      6.163
REMARK  Name = 
REMARK  5 active torsions:
REMARK  status: ('A' for Active; 'I' for Inactive)
REMARK    1  A    between atoms: C_2  and  C_3
REMARK    2  A    between atoms: C_2  and  C_9
REMARK    3  A    between atoms: C_2  and  C_15
REMARK    4  A    between atoms: C_3  and  N_4
REMARK    5  A    between atoms: C_9  and  N_10
REMARK                            x       y       z     vdW  Elec       q    Type
REMARK                         _______ _______ _______ _____ _____    ______ ____
ROOT
ATOM      1  O   UNL     1       1.534   6.969  -8.317  0.00  0.00    -0.217 OA
ATOM      2  C   UNL     1       0.948   5.712  -8.191  0.00  0.00    +0.192 C 
ENDROOT
BRANCH   2   3
ATOM      3  C   UNL     1       0.035   5.676  -7.003  0.00  0.00    +0.036 A 
ATOM      4  C   UNL     1       0.322   6.549  -5.959  0.00  0.00    +0.141 A 
ATOM      5  F   UNL     1       1.627   6.610  -5.565  0.00  0.00    -0.204 F 
ATOM      6  C   UNL     1      -0.669   6.993  -5.092  0.00  0.00    +0.059 A 
ATOM      7  C   UNL     1      -1.994   6.835  -5.468  0.00  0.00    +0.142 A 
ATOM      8  F   UNL     1      -2.931   7.802  -5.248  0.00  0.00    -0.204 F 
ATOM      9  C   UNL     1      -2.254   5.733  -6.272  0.00  0.00    +0.030 A 
ATOM     10  C   UNL     1      -1.271   5.231  -7.116  0.00  0.00    +0.003 A 
ENDBRANCH   2   3
BRANCH   2  11
ATOM     11  C   UNL     1       1.965   4.608  -8.003  0.00  0.00    +0.166 C 
BRANCH  11  12
ATOM     12  N   UNL     1       3.303   5.013  -8.351  0.00  0.00    -0.227 N 
ATOM     13  N   UNL     1       4.302   5.324  -7.526  0.00  0.00    -0.145 NA
ATOM     14  C   UNL     1       5.414   5.572  -8.262  0.00  0.00    +0.221 A 
ATOM     15  N   UNL     1       5.188   4.911  -9.421  0.00  0.00    -0.201 NA
ATOM     16  C   UNL     1       3.847   4.921  -9.585  0.00  0.00    +0.197 A 
ENDBRANCH  11  12
ENDBRANCH   2  11
BRANCH   2  17
ATOM     17  C   UNL     1       0.114   5.348  -9.389  0.00  0.00    +0.166 C 
BRANCH  17  18
ATOM     18  N   UNL     1       0.365   6.180 -10.537  0.00  0.00    -0.227 N 
ATOM     19  N   UNL     1      -0.501   7.077 -10.990  0.00  0.00    -0.145 NA
ATOM     20  C   UNL     1      -0.084   7.467 -12.211  0.00  0.00    +0.221 A 
ATOM     21  N   UNL     1       0.675   6.474 -12.672  0.00  0.00    -0.201 NA
ATOM     22  C   UNL     1       1.051   5.736 -11.618  0.00  0.00    +0.197 A 
ENDBRANCH  17  18
ENDBRANCH   2  17
TORSDOF 5
ENDMDL
MODEL 5
REMARK VINA RESULT:      -7.0      2.831      5.114
REMARK  Name = 
REMARK  5 active torsions:
REMARK  status: ('A' for Active; 'I' for Inactive)
REMARK    1  A    between atoms: C_2  and  C_3
REMARK    2  A    between atoms: C_2  and  C_9
REMARK    3  A    between atoms: C_2  and  C_15
REMARK    4  A    between atoms: C_3  and  N_4
REMARK    5  A    between atoms: C_9  and  N_10
REMARK                            x       y       z     vdW  Elec       q    Type
REMARK                         _______ _______ _______ _____ _____    ______ ____
ROOT
ATOM      1  O   UNL     1       2.999   7.088  -7.374  0.00  0.00    -0.217 OA
ATOM      2  C   UNL     1       3.664   5.869  -7.467  0.00  0.00    +0.192 C 
ENDROOT
BRANCH   2   3
ATOM      3  C   UNL     1       4.466   5.803  -8.731  0.00  0.00    +0.036 A 
ATOM      4  C   UNL     1       4.076   6.639  -9.771  0.00  0.00    +0.141 A 
ATOM      5  F   UNL     1       2.740   6.676 -10.047  0.00  0.00    -0.204 F 
ATOM      6  C   UNL     1       4.979   7.064 -10.738  0.00  0.00    +0.059 A 
ATOM      7  C   UNL     1       6.335   6.930 -10.478  0.00  0.00    +0.142 A 
ATOM      8  F   UNL     1       7.236   7.897 -10.813  0.00  0.00    -0.204 F 
ATOM      9  C   UNL     1       6.679   5.856  -9.667  0.00  0.00    +0.030 A 
ATOM     10  C   UNL     1       5.782   5.373  -8.723  0.00  0.00    +0.003 A 
ENDBRANCH   2   3
BRANCH   2  11
ATOM     11  C   UNL     1       2.720   4.687  -7.477  0.00  0.00    +0.166 C 
BRANCH  11  12
ATOM     12  N   UNL     1       1.360   5.052  -7.174  0.00  0.00    -0.227 N 
ATOM     13  N   UNL     1       0.384   5.347  -8.031  0.00  0.00    -0.145 NA
ATOM     14  C   UNL     1      -0.760   5.557  -7.333  0.00  0.00    +0.221 A 
ATOM     15  N   UNL     1      -0.559   4.887  -6.175  0.00  0.00    -0.201 NA
ATOM     16  C   UNL     1       0.774   4.929  -5.962  0.00  0.00    +0.197 A 
ENDBRANCH  11  12
ENDBRANCH   2  11
BRANCH   2  17
ATOM     17  C   UNL     1       4.628   5.657  -6.331  0.00  0.00    +0.166 C 
BRANCH  17  18
ATOM     18  N   UNL     1       4.285   6.394  -5.143  0.00  0.00    -0.227 N 
ATOM     19  N   UNL     1       4.971   7.447  -4.715  0.00  0.00    -0.145 NA
ATOM     20  C   UNL     1       4.565   7.715  -3.459  0.00  0.00    +0.221 A 
ATOM     21  N   UNL     1       4.068   6.575  -2.984  0.00  0.00    -0.201 NA
ATOM     22  C   UNL     1       3.785   5.793  -4.036  0.00  0.00    +0.197 A 
ENDBRANCH  17  18
ENDBRANCH   2  17
TORSDOF 5
ENDMDL
MODEL 6
REMARK VINA RESULT:      -7.0      4.040      6.866
REMARK  Name = 
REMARK  5 active torsions:
REMARK  status: ('A' for Active; 'I' for Inactive)
REMARK    1  A    between atoms: C_2  and  C_3
REMARK    2  A    between atoms: C_2  and  C_9
REMARK    3  A    between atoms: C_2  and  C_15
REMARK    4  A    between atoms: C_3  and  N_4
REMARK    5  A    between atoms: C_9  and  N_10
REMARK                            x       y       z     vdW  Elec       q    Type
REMARK                         _______ _______ _______ _____ _____    ______ ____
ROOT
ATOM      1  O   UNL     1       1.883   6.962  -6.091  0.00  0.00    -0.217 OA
ATOM      2  C   UNL     1       1.237   5.745  -6.295  0.00  0.00    +0.192 C 
ENDROOT
BRANCH   2   3
ATOM      3  C   UNL     1      -0.156   5.793  -5.747  0.00  0.00    +0.036 A 
ATOM      4  C   UNL     1      -0.402   6.698  -4.722  0.00  0.00    +0.141 A 
ATOM      5  F   UNL     1       0.515   6.730  -3.712  0.00  0.00    -0.204 F 
ATOM      6  C   UNL     1      -1.673   7.213  -4.498  0.00  0.00    +0.059 A 
ATOM      7  C   UNL     1      -2.622   7.086  -5.501  0.00  0.00    +0.142 A 
ATOM      8  F   UNL     1      -3.487   8.095  -5.813  0.00  0.00    -0.204 F 
ATOM      9  C   UNL     1      -2.489   5.961  -6.303  0.00  0.00    +0.030 A 
ATOM     10  C   UNL     1      -1.240   5.389  -6.510  0.00  0.00    +0.003 A 
ENDBRANCH   2   3
BRANCH   2  11
ATOM     11  C   UNL     1       1.942   4.589  -5.620  0.00  0.00    +0.166 C 
BRANCH  11  12
ATOM     12  N   UNL     1       3.046   5.008  -4.796  0.00  0.00    -0.227 N 
ATOM     13  N   UNL     1       3.045   5.234  -3.482  0.00  0.00    -0.145 NA
ATOM     14  C   UNL     1       4.308   5.535  -3.091  0.00  0.00    +0.221 A 
ATOM     15  N   UNL     1       5.084   4.981  -4.051  0.00  0.00    -0.201 NA
ATOM     16  C   UNL     1       4.342   5.020  -5.179  0.00  0.00    +0.197 A 
ENDBRANCH  11  12
ENDBRANCH   2  11
BRANCH   2  17
ATOM     17  C   UNL     1       1.118   5.401  -7.755  0.00  0.00    +0.166 C 
BRANCH  17  18
ATOM     18  N   UNL     1       2.337   5.601  -8.493  0.00  0.00    -0.227 N 
ATOM     19  N   UNL     1       2.526   6.617  -9.327  0.00  0.00    -0.145 NA
ATOM     20  C   UNL     1       3.634   6.353 -10.047  0.00  0.00    +0.221 A 
ATOM     21  N   UNL     1       3.781   5.030 -10.019  0.00  0.00    -0.201 NA
ATOM     22  C   UNL     1       3.067   4.569  -8.982  0.00  0.00    +0.197 A 
ENDBRANCH  17  18
ENDBRANCH   2  17
TORSDOF 5
ENDMDL
MODEL 7
REMARK VINA RESULT:      -6.8      1.408      3.956
REMARK  Name = 
REMARK  5 active torsions:
REMARK  status: ('A' for Active; 'I' for Inactive)
REMARK    1  A    between atoms: C_2  and  C_3
REMARK    2  A    between atoms: C_2  and  C_9
REMARK    3  A    between atoms: C_2  and  C_15
REMARK    4  A    between atoms: C_3  and  N_4
REMARK    5  A    between atoms: C_9  and  N_10
REMARK                            x       y       z     vdW  Elec       q    Type
REMARK                         _______ _______ _______ _____ _____    ______ ____
ROOT
ATOM      1  O   UNL     1       3.175   7.062  -9.087  0.00  0.00    -0.217 OA
ATOM      2  C   UNL     1       3.939   6.095  -9.736  0.00  0.00    +0.192 C 
ENDROOT
BRANCH   2   3
ATOM      3  C   UNL     1       5.303   6.629 -10.050  0.00  0.00    +0.036 A 
ATOM      4  C   UNL     1       6.385   5.799  -9.776  0.00  0.00    +0.141 A 
ATOM      5  F   UNL     1       6.376   5.178  -8.562  0.00  0.00    -0.204 F 
ATOM      6  C   UNL     1       7.585   5.921 -10.467  0.00  0.00    +0.059 A 
ATOM      7  C   UNL     1       7.594   6.639 -11.653  0.00  0.00    +0.142 A 
ATOM      8  F   UNL     1       8.297   6.225 -12.746  0.00  0.00    -0.204 F 
ATOM      9  C   UNL     1       6.674   7.677 -11.723  0.00  0.00    +0.030 A 
ATOM     10  C   UNL     1       5.485   7.612 -11.008  0.00  0.00    +0.003 A 
ENDBRANCH   2   3
BRANCH   2  11
ATOM     11  C   UNL     1       3.326   5.645 -11.044  0.00  0.00    +0.166 C 
BRANCH  11  12
ATOM     12  N   UNL     1       1.901   5.845 -11.094  0.00  0.00    -0.227 N 
ATOM     13  N   UNL     1       1.234   6.816 -11.718  0.00  0.00    -0.145 NA
ATOM     14  C   UNL     1      -0.096   6.589 -11.580  0.00  0.00    +0.221 A 
ATOM     15  N   UNL     1      -0.174   5.260 -11.341  0.00  0.00    -0.201 NA
ATOM     16  C   UNL     1       0.975   4.941 -10.706  0.00  0.00    +0.197 A 
ENDBRANCH  11  12
ENDBRANCH   2  11
BRANCH   2  17
ATOM     17  C   UNL     1       4.138   4.865  -8.893  0.00  0.00    +0.166 C 
BRANCH  17  18
ATOM     18  N   UNL     1       3.323   4.844  -7.707  0.00  0.00    -0.227 N 
ATOM     19  N   UNL     1       3.786   5.145  -6.499  0.00  0.00    -0.145 NA
ATOM     20  C   UNL     1       2.860   4.758  -5.600  0.00  0.00    +0.221 A 
ATOM     21  N   UNL     1       2.143   3.809  -6.198  0.00  0.00    -0.201 NA
ATOM     22  C   UNL     1       2.339   3.932  -7.519  0.00  0.00    +0.197 A 
ENDBRANCH  17  18
ENDBRANCH   2  17
TORSDOF 5
ENDMDL
MODEL 8
REMARK VINA RESULT:      -6.7      2.189      4.638
REMARK  Name = 
REMARK  5 active torsions:
REMARK  status: ('A' for Active; 'I' for Inactive)
REMARK    1  A    between atoms: C_2  and  C_3
REMARK    2  A    between atoms: C_2  and  C_9
REMARK    3  A    between atoms: C_2  and  C_15
REMARK    4  A    between atoms: C_3  and  N_4
REMARK    5  A    between atoms: C_9  and  N_10
REMARK                            x       y       z     vdW  Elec       q    Type
REMARK                         _______ _______ _______ _____ _____    ______ ____
ROOT
ATOM      1  O   UNL     1       3.196   7.325  -8.887  0.00  0.00    -0.217 OA
ATOM      2  C   UNL     1       3.611   6.002  -9.009  0.00  0.00    +0.192 C 
ENDROOT
BRANCH   2   3
ATOM      3  C   UNL     1       4.953   5.931  -9.671  0.00  0.00    +0.036 A 
ATOM      4  C   UNL     1       5.218   6.869 -10.664  0.00  0.00    +0.141 A 
ATOM      5  F   UNL     1       4.233   7.064 -11.587  0.00  0.00    -0.204 F 
ATOM      6  C   UNL     1       6.518   7.255 -10.968  0.00  0.00    +0.059 A 
ATOM      7  C   UNL     1       7.523   6.961 -10.059  0.00  0.00    +0.142 A 
ATOM      8  F   UNL     1       8.519   7.847  -9.768  0.00  0.00    -0.204 F 
ATOM      9  C   UNL     1       7.326   5.808  -9.311  0.00  0.00    +0.030 A 
ATOM     10  C   UNL     1       6.040   5.365  -9.028  0.00  0.00    +0.003 A 
ENDBRANCH   2   3
BRANCH   2  11
ATOM     11  C   UNL     1       2.662   5.165  -9.838  0.00  0.00    +0.166 C 
BRANCH  11  12
ATOM     12  N   UNL     1       1.503   5.899 -10.277  0.00  0.00    -0.227 N 
ATOM     13  N   UNL     1       1.318   6.506 -11.449  0.00  0.00    -0.145 NA
ATOM     14  C   UNL     1       0.059   7.012 -11.483  0.00  0.00    +0.221 A 
ATOM     15  N   UNL     1      -0.614   6.262 -10.581  0.00  0.00    -0.201 NA
ATOM     16  C   UNL     1       0.302   5.901  -9.657  0.00  0.00    +0.197 A 
ENDBRANCH  11  12
ENDBRANCH   2  11
BRANCH   2  17
ATOM     17  C   UNL     1       3.751   5.323  -7.674  0.00  0.00    +0.166 C 
BRANCH  17  18
ATOM     18  N   UNL     1       3.384   6.161  -6.562  0.00  0.00    -0.227 N 
ATOM     19  N   UNL     1       4.262   6.633  -5.685  0.00  0.00    -0.145 NA
ATOM     20  C   UNL     1       3.568   7.129  -4.642  0.00  0.00    +0.221 A 
ATOM     21  N   UNL     1       2.390   6.508  -4.656  0.00  0.00    -0.201 NA
ATOM     22  C   UNL     1       2.221   6.002  -5.886  0.00  0.00    +0.197 A 
ENDBRANCH  17  18
ENDBRANCH   2  17
TORSDOF 5
ENDMDL
MODEL 9
REMARK VINA RESULT:      -6.5      3.216      6.099
REMARK  Name = 
REMARK  5 active torsions:
REMARK  status: ('A' for Active; 'I' for Inactive)
REMARK    1  A    between atoms: C_2  and  C_3
REMARK    2  A    between atoms: C_2  and  C_9
REMARK    3  A    between atoms: C_2  and  C_15
REMARK    4  A    between atoms: C_3  and  N_4
REMARK    5  A    between atoms: C_9  and  N_10
REMARK                            x       y       z     vdW  Elec       q    Type
REMARK                         _______ _______ _______ _____ _____    ______ ____
ROOT
ATOM      1  O   UNL     1       1.763   6.508  -7.081  0.00  0.00    -0.217 OA
ATOM      2  C   UNL     1       2.045   5.195  -6.713  0.00  0.00    +0.192 C 
ENDROOT
BRANCH   2   3
ATOM      3  C   UNL     1       3.208   5.153  -5.769  0.00  0.00    +0.036 A 
ATOM      4  C   UNL     1       4.245   6.049  -6.005  0.00  0.00    +0.141 A 
ATOM      5  F   UNL     1       4.674   6.150  -7.296  0.00  0.00    -0.204 F 
ATOM      6  C   UNL     1       5.079   6.479  -4.979  0.00  0.00    +0.059 A 
ATOM      7  C   UNL     1       4.669   6.280  -3.669  0.00  0.00    +0.142 A 
ATOM      8  F   UNL     1       4.849   7.225  -2.701  0.00  0.00    -0.204 F 
ATOM      9  C   UNL     1       3.876   5.159  -3.460  0.00  0.00    +0.030 A 
ATOM     10  C   UNL     1       3.067   4.671  -4.479  0.00  0.00    +0.003 A 
ENDBRANCH   2   3
BRANCH   2  11
ATOM     11  C   UNL     1       2.398   4.319  -7.894  0.00  0.00    +0.166 C 
BRANCH  11  12
ATOM     12  N   UNL     1       2.121   4.946  -9.161  0.00  0.00    -0.227 N 
ATOM     13  N   UNL     1       2.992   5.495 -10.007  0.00  0.00    -0.145 NA
ATOM     14  C   UNL     1       2.325   5.900 -11.116  0.00  0.00    +0.221 A 
ATOM     15  N   UNL     1       1.210   5.134 -11.121  0.00  0.00    -0.201 NA
ATOM     16  C   UNL     1       0.945   4.878  -9.821  0.00  0.00    +0.197 A 
ENDBRANCH  11  12
ENDBRANCH   2  11
BRANCH   2  17
ATOM     17  C   UNL     1       0.889   4.541  -6.005  0.00  0.00    +0.166 C 
BRANCH  17  18
ATOM     18  N   UNL     1      -0.306   5.343  -5.995  0.00  0.00    -0.227 N 
ATOM     19  N   UNL     1      -0.850   5.826  -4.885  0.00  0.00    -0.145 NA
ATOM     20  C   UNL     1      -2.081   6.277  -5.197  0.00  0.00    +0.221 A 
ATOM     21  N   UNL     1      -2.445   5.616  -6.294  0.00  0.00    -0.201 NA
ATOM     22  C   UNL     1      -1.330   5.130  -6.857  0.00  0.00    +0.197 A 
ENDBRANCH  17  18
ENDBRANCH   2  17
TORSDOF 5
ENDMDL
