MODEL 1
REMARK VINA RESULT:      -8.5      0.000      0.000
REMARK  Name = 
REMARK  0 active torsions:
REMARK  status: ('A' for Active; 'I' for Inactive)
REMARK                            x       y       z     vdW  Elec       q    Type
REMARK                         _______ _______ _______ _____ _____    ______ ____
ROOT
ATOM      1  C   UNL     1       4.248   6.104  -5.596  0.00  0.00    +0.090 C 
ATOM      2  N   UNL     1       3.933   6.345  -5.949  0.00  0.00    -0.271 NA
ATOM      3  C   UNL     1       2.618   6.648  -5.486  0.00  0.00    +0.077 C 
ATOM      4  C   UNL     1       1.769   6.649  -6.875  0.00  0.00    +0.047 C 
ATOM      5  C   UNL     1       2.361   5.072  -7.189  0.00  0.00    +0.047 C 
ATOM      6  C   UNL     1       2.068   5.205  -8.759  0.00  0.00    +0.014 A 
ATOM      7  C   UNL     1       0.743   5.266  -9.187  0.00  0.00    +0.141 A 
ATOM      8  O   UNL     1      -0.432   5.228  -8.420  0.00  0.00    -0.454 OA
ATOM      9  C   UNL     1      -0.507   5.505  -7.045  0.00  0.00    +0.141 A 
ATOM     10  C   UNL     1      -1.798   5.395  -6.544  0.00  0.00    +0.038 A 
ATOM     11  C   UNL     1      -2.180   6.235  -5.505  0.00  0.00    +0.015 A 
ATOM     12  C   UNL     1      -1.311   7.190  -4.988  0.00  0.00    +0.058 A 
ATOM     13  C   UNL     1       0.041   7.005  -5.241  0.00  0.00    +0.010 A 
ATOM     14 CL   UNL     1      -1.949   8.709  -4.370  0.00  0.00    -0.082 Cl
ATOM     15  C   UNL     1       0.504   5.505 -10.537  0.00  0.00    +0.037 A 
ATOM     16  C   UNL     1       1.512   6.159 -11.238  0.00  0.00    +0.003 A 
ATOM     17  C   UNL     1       2.744   6.392 -10.641  0.00  0.00    -0.000 A 
ATOM     18  C   UNL     1       3.070   5.785  -9.432  0.00  0.00    -0.001 A 
ATOM     19  C   UNL     1       0.439   6.064  -6.186  0.00  0.00    +0.015 A 
ATOM     20  C   UNL     1       3.882   5.671  -7.202  0.00  0.00    +0.077 C 
ENDROOT
TORSDOF 0
ENDMDL
MODEL 2
REMARK VINA RESULT:      -8.4      3.405      6.203
REMARK  Name = 
REMARK  0 active torsions:
REMARK  status: ('A' for Active; 'I' for Inactive)
REMARK                            x       y       z     vdW  Elec       q    Type
REMARK                         _______ _______ _______ _____ _____    ______ ____
ROOT
ATOM      1  C   UNL     1       0.542   5.117 -11.473  0.00  0.00    +0.090 C 
ATOM      2  N   UNL     1       0.721   5.450 -11.100  0.00  0.00    -0.271 NA
ATOM      3  C   UNL     1       2.079   5.862 -11.254  0.00  0.00    +0.077 C 
ATOM      4  C   UNL     1       2.503   6.191  -9.716  0.00  0.00    +0.047 C 
ATOM      5  C   UNL     1       1.998   4.612  -9.284  0.00  0.00    +0.047 C 
ATOM      6  C   UNL     1       1.827   5.018  -7.744  0.00  0.00    +0.014 A 
ATOM      7  C   UNL     1       2.968   5.328  -7.005  0.00  0.00    +0.141 A 
ATOM      8  O   UNL     1       4.309   5.341  -7.421  0.00  0.00    -0.454 OA
ATOM      9  C   UNL     1       4.738   5.416  -8.757  0.00  0.00    +0.141 A 
ATOM     10  C   UNL     1       6.122   5.415  -8.877  0.00  0.00    +0.038 A 
ATOM     11  C   UNL     1       6.697   6.135  -9.917  0.00  0.00    +0.015 A 
ATOM     12  C   UNL     1       5.922   6.869 -10.807  0.00  0.00    +0.058 A 
ATOM     13  C   UNL     1       4.577   6.536 -10.884  0.00  0.00    +0.010 A 
ATOM     14 CL   UNL     1       6.560   8.353 -11.505  0.00  0.00    -0.082 Cl
ATOM     15  C   UNL     1       2.797   5.798  -5.706  0.00  0.00    +0.037 A 
ATOM     16  C   UNL     1       1.576   6.402  -5.423  0.00  0.00    +0.003 A 
ATOM     17  C   UNL     1       0.544   6.367  -6.350  0.00  0.00    -0.000 A 
ATOM     18  C   UNL     1       0.627   5.547  -7.471  0.00  0.00    -0.001 A 
ATOM     19  C   UNL     1       4.021   5.702  -9.919  0.00  0.00    +0.015 A 
ATOM     20  C   UNL     1       0.484   4.986  -9.775  0.00  0.00    +0.077 C 
ENDROOT
TORSDOF 0
ENDMDL
MODEL 3
REMARK VINA RESULT:      -8.3      2.489      5.005
REMARK  Name = 
REMARK  0 active torsions:
REMARK  status: ('A' for Active; 'I' for Inactive)
REMARK                            x       y       z     vdW  Elec       q    Type
REMARK                         _______ _______ _______ _____ _____    ______ ____
ROOT
ATOM      1  C   UNL     1      -1.452   5.676  -4.155  0.00  0.00    +0.090 C 
ATOM      2  N   UNL     1      -1.066   5.968  -4.373  0.00  0.00    -0.271 NA
ATOM      3  C   UNL     1      -0.947   5.861  -5.791  0.00  0.00    +0.077 C 
ATOM      4  C   UNL     1       0.628   6.205  -6.019  0.00  0.00    +0.047 C 
ATOM      5  C   UNL     1       1.017   4.964  -4.904  0.00  0.00    +0.047 C 
ATOM      6  C   UNL     1       2.465   5.587  -4.617  0.00  0.00    +0.014 A 
ATOM      7  C   UNL     1       3.414   5.568  -5.638  0.00  0.00    +0.141 A 
ATOM      8  O   UNL     1       3.292   5.064  -6.943  0.00  0.00    -0.454 OA
ATOM      9  C   UNL     1       2.076   4.823  -7.605  0.00  0.00    +0.141 A 
ATOM     10  C   UNL     1       2.253   4.327  -8.890  0.00  0.00    +0.038 A 
ATOM     11  C   UNL     1       1.326   4.671  -9.866  0.00  0.00    +0.015 A 
ATOM     12  C   UNL     1       0.258   5.516  -9.587  0.00  0.00    +0.058 A 
ATOM     13  C   UNL     1      -0.087   5.664  -8.251  0.00  0.00    +0.010 A 
ATOM     14 CL   UNL     1      -0.358   6.590 -10.838  0.00  0.00    -0.082 Cl
ATOM     15  C   UNL     1       4.623   6.221  -5.418  0.00  0.00    +0.037 A 
ATOM     16  C   UNL     1       4.612   7.240  -4.472  0.00  0.00    +0.003 A 
ATOM     17  C   UNL     1       3.489   7.455  -3.685  0.00  0.00    -0.000 A 
ATOM     18  C   UNL     1       2.452   6.528  -3.664  0.00  0.00    -0.001 A 
ATOM     19  C   UNL     1       0.776   5.198  -7.264  0.00  0.00    +0.015 A 
ATOM     20  C   UNL     1       0.198   5.778  -3.747  0.00  0.00    +0.077 C 
ENDROOT
TORSDOF 0
ENDMDL
MODEL 4
REMARK VINA RESULT:      -8.3      2.635      5.364
REMARK  Name = 
REMARK  0 active torsions:
REMARK  status: ('A' for Active; 'I' for Inactive)
REMARK                            x       y       z     vdW  Elec       q    Type
REMARK                         _______ _______ _______ _____ _____    ______ ____
ROOT
ATOM      1  C   UNL     1       0.808   5.400  -8.749  0.00  0.00    +0.090 C 
ATOM      2  N   UNL     1       0.709   5.746  -8.359  0.00  0.00    -0.271 NA
ATOM      3  C   UNL     1       1.800   5.994  -7.473  0.00  0.00    +0.077 C 
ATOM      4  C   UNL     1       1.026   6.423  -6.106  0.00  0.00    +0.047 C 
ATOM      5  C   UNL     1       0.145   4.956  -6.194  0.00  0.00    +0.047 C 
ATOM      6  C   UNL     1      -1.023   5.526  -5.256  0.00  0.00    +0.014 A 
ATOM      7  C   UNL     1      -0.736   5.783  -3.916  0.00  0.00    +0.141 A 
ATOM      8  O   UNL     1       0.475   5.612  -3.227  0.00  0.00    -0.454 OA
ATOM      9  C   UNL     1       1.740   5.510  -3.830  0.00  0.00    +0.141 A 
ATOM     10  C   UNL     1       2.764   5.350  -2.907  0.00  0.00    +0.038 A 
ATOM     11  C   UNL     1       4.008   5.900  -3.194  0.00  0.00    +0.015 A 
ATOM     12  C   UNL     1       4.229   6.623  -4.361  0.00  0.00    +0.058 A 
ATOM     13  C   UNL     1       3.324   6.430  -5.395  0.00  0.00    +0.010 A 
ATOM     14 CL   UNL     1       5.378   7.955  -4.359  0.00  0.00    -0.082 Cl
ATOM     15  C   UNL     1      -1.721   6.392  -3.143  0.00  0.00    +0.037 A 
ATOM     16  C   UNL     1      -2.666   7.147  -3.830  0.00  0.00    +0.003 A 
ATOM     17  C   UNL     1      -2.703   7.133  -5.217  0.00  0.00    -0.000 A 
ATOM     18  C   UNL     1      -1.957   6.204  -5.935  0.00  0.00    -0.001 A 
ATOM     19  C   UNL     1       2.131   5.757  -5.146  0.00  0.00    +0.015 A 
ATOM     20  C   UNL     1      -0.473   5.440  -7.627  0.00  0.00    +0.077 C 
ENDROOT
TORSDOF 0
ENDMDL
MODEL 5
REMARK VINA RESULT:      -8.3      3.424      5.481
REMARK  Name = 
REMARK  0 active torsions:
REMARK  status: ('A' for Active; 'I' for Inactive)
REMARK                            x       y       z     vdW  Elec       q    Type
REMARK                         _______ _______ _______ _____ _____    ______ ____
ROOT
ATOM      1  C   UNL     1      -2.367   5.559  -1.969  0.00  0.00    +0.090 C 
ATOM      2  N   UNL     1      -2.038   5.344  -2.327  0.00  0.00    -0.271 NA
ATOM      3  C   UNL     1      -0.659   5.337  -1.960  0.00  0.00    +0.077 C 
ATOM      4  C   UNL     1       0.071   5.345  -3.416  0.00  0.00    +0.047 C 
ATOM      5  C   UNL     1      -0.832   6.745  -3.814  0.00  0.00    +0.047 C 
ATOM      6  C   UNL     1      -0.635   6.505  -5.386  0.00  0.00    +0.014 A 
ATOM      7  C   UNL     1       0.643   6.642  -5.926  0.00  0.00    +0.141 A 
ATOM      8  O   UNL     1       1.842   6.975  -5.276  0.00  0.00    -0.454 OA
ATOM      9  C   UNL     1       2.068   6.862  -3.893  0.00  0.00    +0.141 A 
ATOM     10  C   UNL     1       3.348   7.258  -3.525  0.00  0.00    +0.038 A 
ATOM     11  C   UNL     1       3.957   6.615  -2.454  0.00  0.00    +0.015 A 
ATOM     12  C   UNL     1       3.327   5.578  -1.776  0.00  0.00    +0.058 A 
ATOM     13  C   UNL     1       1.949   5.485  -1.920  0.00  0.00    +0.010 A 
ATOM     14 CL   UNL     1       4.286   4.274  -1.086  0.00  0.00    -0.082 Cl
ATOM     15  C   UNL     1       0.824   6.311  -7.266  0.00  0.00    +0.037 A 
ATOM     16  C   UNL     1      -0.089   5.414  -7.810  0.00  0.00    +0.003 A 
ATOM     17  C   UNL     1      -1.207   5.024  -7.085  0.00  0.00    -0.000 A 
ATOM     18  C   UNL     1      -1.554   5.684  -5.910  0.00  0.00    -0.001 A 
ATOM     19  C   UNL     1       1.311   6.232  -2.906  0.00  0.00    +0.015 A 
ATOM     20  C   UNL     1      -2.208   5.881  -3.635  0.00  0.00    +0.077 C 
ENDROOT
TORSDOF 0
ENDMDL
MODEL 6
REMARK VINA RESULT:      -8.3      1.174      1.695
REMARK  Name = 
REMARK  0 active torsions:
REMARK  status: ('A' for Active; 'I' for Inactive)
REMARK                            x       y       z     vdW  Elec       q    Type
REMARK                         _______ _______ _______ _____ _____    ______ ____
ROOT
ATOM      1  C   UNL     1       3.975   5.554  -3.401  0.00  0.00    +0.090 C 
ATOM      2  N   UNL     1       3.836   5.823  -3.837  0.00  0.00    -0.271 NA
ATOM      3  C   UNL     1       2.472   6.240  -3.886  0.00  0.00    +0.077 C 
ATOM      4  C   UNL     1       2.208   6.322  -5.491  0.00  0.00    +0.047 C 
ATOM      5  C   UNL     1       2.746   4.700  -5.620  0.00  0.00    +0.047 C 
ATOM      6  C   UNL     1       3.074   4.865  -7.179  0.00  0.00    +0.014 A 
ATOM      7  C   UNL     1       2.015   5.045  -8.068  0.00  0.00    +0.141 A 
ATOM      8  O   UNL     1       0.639   5.108  -7.796  0.00  0.00    -0.454 OA
ATOM      9  C   UNL     1       0.077   5.385  -6.538  0.00  0.00    +0.141 A 
ATOM     10  C   UNL     1      -1.312   5.388  -6.560  0.00  0.00    +0.038 A 
ATOM     11  C   UNL     1      -1.986   6.254  -5.707  0.00  0.00    +0.015 A 
ATOM     12  C   UNL     1      -1.300   7.125  -4.868  0.00  0.00    +0.058 A 
ATOM     13  C   UNL     1       0.029   6.822  -4.606  0.00  0.00    +0.010 A 
ATOM     14 CL   UNL     1      -1.998   8.692  -4.477  0.00  0.00    -0.082 Cl
ATOM     15  C   UNL     1       2.318   5.310  -9.400  0.00  0.00    +0.037 A 
ATOM     16  C   UNL     1       3.565   5.875  -9.650  0.00  0.00    +0.003 A 
ATOM     17  C   UNL     1       4.498   5.995  -8.629  0.00  0.00    -0.000 A 
ATOM     18  C   UNL     1       4.298   5.357  -7.409  0.00  0.00    -0.001 A 
ATOM     19  C   UNL     1       0.675   5.854  -5.369  0.00  0.00    +0.015 A 
ATOM     20  C   UNL     1       4.204   5.162  -5.042  0.00  0.00    +0.077 C 
ENDROOT
TORSDOF 0
ENDMDL
MODEL 7
REMARK VINA RESULT:      -8.3      3.561      5.629
REMARK  Name = 
REMARK  0 active torsions:
REMARK  status: ('A' for Active; 'I' for Inactive)
REMARK                            x       y       z     vdW  Elec       q    Type
REMARK                         _______ _______ _______ _____ _____    ______ ____
ROOT
ATOM      1  C   UNL     1       2.373   5.452  -6.242  0.00  0.00    +0.090 C 
ATOM      2  N   UNL     1       2.430   5.219  -6.715  0.00  0.00    -0.271 NA
ATOM      3  C   UNL     1       3.719   5.363  -7.312  0.00  0.00    +0.077 C 
ATOM      4  C   UNL     1       3.365   5.240  -8.897  0.00  0.00    +0.047 C 
ATOM      5  C   UNL     1       2.227   6.505  -8.698  0.00  0.00    +0.047 C 
ATOM      6  C   UNL     1       1.427   6.081 -10.020  0.00  0.00    +0.014 A 
ATOM      7  C   UNL     1       2.048   6.244 -11.257  0.00  0.00    +0.141 A 
ATOM      8  O   UNL     1       3.329   6.747 -11.539  0.00  0.00    -0.454 OA
ATOM      9  C   UNL     1       4.384   6.830 -10.615  0.00  0.00    +0.141 A 
ATOM     10  C   UNL     1       5.541   7.365 -11.168  0.00  0.00    +0.038 A 
ATOM     11  C   UNL     1       6.769   6.912 -10.701  0.00  0.00    +0.015 A 
ATOM     12  C   UNL     1       6.855   5.926  -9.726  0.00  0.00    +0.058 A 
ATOM     13  C   UNL     1       5.723   5.711  -8.953  0.00  0.00    +0.010 A 
ATOM     14 CL   UNL     1       8.206   4.797  -9.741  0.00  0.00    -0.082 Cl
ATOM     15  C   UNL     1       1.394   5.759 -12.386  0.00  0.00    +0.037 A 
ATOM     16  C   UNL     1       0.478   4.733 -12.176  0.00  0.00    +0.003 A 
ATOM     17  C   UNL     1       0.130   4.356 -10.886  0.00  0.00    -0.000 A 
ATOM     18  C   UNL     1       0.509   5.132  -9.796  0.00  0.00    -0.001 A 
ATOM     19  C   UNL     1       4.511   6.276  -9.342  0.00  0.00    +0.015 A 
ATOM     20  C   UNL     1       1.406   5.570  -7.639  0.00  0.00    +0.077 C 
ENDROOT
TORSDOF 0
ENDMDL
MODEL 8
REMARK VINA RESULT:      -8.2      3.500      5.179
REMARK  Name = 
REMARK  0 active torsions:
REMARK  status: ('A' for Active; 'I' for Inactive)
REMARK                            x       y       z     vdW  Elec       q    Type
REMARK                         _______ _______ _______ _____ _____    ______ ____
ROOT
ATOM      1  C   UNL     1       3.659   5.343  -7.162  0.00  0.00    +0.090 C 
ATOM      2  N   UNL     1       3.766   5.696  -7.544  0.00  0.00    -0.271 NA
ATOM      3  C   UNL     1       2.691   5.961  -8.445  0.00  0.00    +0.077 C 
ATOM      4  C   UNL     1       3.490   6.415  -9.789  0.00  0.00    +0.047 C 
ATOM      5  C   UNL     1       4.370   4.947  -9.712  0.00  0.00    +0.047 C 
ATOM      6  C   UNL     1       5.555   5.533 -10.617  0.00  0.00    +0.014 A 
ATOM      7  C   UNL     1       5.294   5.815 -11.957  0.00  0.00    +0.141 A 
ATOM      8  O   UNL     1       4.096   5.657 -12.672  0.00  0.00    -0.454 OA
ATOM      9  C   UNL     1       2.820   5.544 -12.094  0.00  0.00    +0.141 A 
ATOM     10  C   UNL     1       1.813   5.401 -13.040  0.00  0.00    +0.038 A 
ATOM     11  C   UNL     1       0.564   5.946 -12.765  0.00  0.00    +0.015 A 
ATOM     12  C   UNL     1       0.321   6.648 -11.590  0.00  0.00    +0.058 A 
ATOM     13  C   UNL     1       1.206   6.435 -10.542  0.00  0.00    +0.010 A 
ATOM     14 CL   UNL     1      -0.829   7.980 -11.589  0.00  0.00    -0.082 Cl
ATOM     15  C   UNL     1       6.292   6.438 -12.700  0.00  0.00    +0.037 A 
ATOM     16  C   UNL     1       7.224   7.180 -11.982  0.00  0.00    +0.003 A 
ATOM     17  C   UNL     1       7.235   7.141 -10.594  0.00  0.00    -0.000 A 
ATOM     18  C   UNL     1       6.476   6.198  -9.908  0.00  0.00    -0.001 A 
ATOM     19  C   UNL     1       2.404   5.767 -10.782  0.00  0.00    +0.015 A 
ATOM     20  C   UNL     1       4.961   5.404  -8.258  0.00  0.00    +0.077 C 
ENDROOT
TORSDOF 0
ENDMDL
MODEL 9
REMARK VINA RESULT:      -8.0      2.881      4.667
REMARK  Name = 
REMARK  0 active torsions:
REMARK  status: ('A' for Active; 'I' for Inactive)
REMARK                            x       y       z     vdW  Elec       q    Type
REMARK                         _______ _______ _______ _____ _____    ______ ____
ROOT
ATOM      1  C   UNL     1      -0.973   5.749  -5.098  0.00  0.00    +0.090 C 
ATOM      2  N   UNL     1      -0.523   5.479  -5.175  0.00  0.00    -0.271 NA
ATOM      3  C   UNL     1       0.498   5.708  -4.204  0.00  0.00    +0.077 C 
ATOM      4  C   UNL     1       1.847   5.393  -5.061  0.00  0.00    +0.047 C 
ATOM      5  C   UNL     1       1.324   6.536  -6.225  0.00  0.00    +0.047 C 
ATOM      6  C   UNL     1       2.253   5.899  -7.364  0.00  0.00    +0.014 A 
ATOM      7  C   UNL     1       3.637   6.010  -7.235  0.00  0.00    +0.141 A 
ATOM      8  O   UNL     1       4.379   6.623  -6.213  0.00  0.00    -0.454 OA
ATOM      9  C   UNL     1       3.894   6.913  -4.926  0.00  0.00    +0.141 A 
ATOM     10  C   UNL     1       4.847   7.518  -4.117  0.00  0.00    +0.038 A 
ATOM     11  C   UNL     1       4.822   7.254  -2.753  0.00  0.00    +0.015 A 
ATOM     12  C   UNL     1       3.890   6.382  -2.200  0.00  0.00    +0.058 A 
ATOM     13  C   UNL     1       2.757   6.118  -2.956  0.00  0.00    +0.010 A 
ATOM     14 CL   UNL     1       4.324   5.416  -0.794  0.00  0.00    -0.082 Cl
ATOM     15  C   UNL     1       4.435   5.347  -8.163  0.00  0.00    +0.037 A 
ATOM     16  C   UNL     1       3.862   4.251  -8.799  0.00  0.00    +0.003 A 
ATOM     17  C   UNL     1       2.515   3.963  -8.626  0.00  0.00    -0.000 A 
ATOM     18  C   UNL     1       1.670   4.879  -8.007  0.00  0.00    -0.001 A 
ATOM     19  C   UNL     1       2.720   6.503  -4.293  0.00  0.00    +0.015 A 
ATOM     20  C   UNL     1      -0.004   5.621  -6.493  0.00  0.00    +0.077 C 
ENDROOT
TORSDOF 0
ENDMDL
