MODEL 1
REMARK VINA RESULT:     -10.6      0.000      0.000
REMARK  Name = 
REMARK  8 active torsions:
REMARK  status: ('A' for Active; 'I' for Inactive)
REMARK    1  A    between atoms: C_5  and  C_6
REMARK    2  A    between atoms: N_9  and  C_10
REMARK    3  A    between atoms: N_17  and  C_18
REMARK    4  A    between atoms: C_18  and  C_19
REMARK    5  A    between atoms: C_19  and  C_20
REMARK    6  A    between atoms: C_20  and  N_21
REMARK    7  A    between atoms: C_20  and  C_32
REMARK    8  A    between atoms: C_22  and  C_24
REMARK                            x       y       z     vdW  Elec       q    Type
REMARK                         _______ _______ _______ _____ _____    ______ ____
ROOT
ATOM      1  C   UNL     1       1.047   4.830  -9.215  0.00  0.00    +0.043 C 
ENDROOT
BRANCH   1   2
ATOM      2  C   UNL     1       1.655   5.071  -7.973  0.00  0.00    +0.074 C 
BRANCH   2   6
ATOM      3  C   UNL     1       1.191   6.492  -3.896  0.00  0.00    +0.090 C 
ATOM      4  C   UNL     1       2.137   5.295  -4.354  0.00  0.00    +0.039 C 
ATOM      5  C   UNL     1       1.918   4.555  -5.752  0.00  0.00    +0.059 C 
ATOM      6  N   UNL     1       1.301   5.566  -6.759  0.00  0.00    -0.275 NA
ATOM      7  C   UNL     1       1.911   6.946  -6.432  0.00  0.00    +0.059 C 
ATOM      8  C   UNL     1       3.205   6.419  -5.572  0.00  0.00    +0.017 C 
ATOM      9  C   UNL     1       3.443   5.043  -6.218  0.00  0.00    +0.017 C 
ATOM     10  C   UNL     1       0.746   7.113  -5.312  0.00  0.00    +0.039 C 
BRANCH   3  13
ATOM     11  C   UNL     1       0.775   4.945  -1.521  0.00  0.00    +0.074 C 
ATOM     12  C   UNL     1      -0.180   5.158  -2.435  0.00  0.00    +0.143 A 
ATOM     13  N   UNL     1      -0.075   5.533  -3.748  0.00  0.00    -0.304 N 
ATOM     14  C   UNL     1      -1.308   6.042  -3.999  0.00  0.00    +0.142 A 
ATOM     15  N   UNL     1      -2.194   5.442  -3.177  0.00  0.00    -0.134 NA
ATOM     16  N   UNL     1      -1.494   5.135  -2.085  0.00  0.00    -0.134 NA
BRANCH  14  17
ATOM     17  C   UNL     1      -1.662   6.542  -5.335  0.00  0.00    +0.059 C 
ATOM     18  C   UNL     1      -2.429   5.392  -5.994  0.00  0.00    +0.008 C 
ATOM     19  C   UNL     1      -2.754   7.585  -5.070  0.00  0.00    +0.008 C 
ENDBRANCH  14  17
ENDBRANCH   3  13
ENDBRANCH   2   6
ENDBRANCH   1   2
BRANCH   1  20
ATOM     20  C   UNL     1       2.146   5.046 -10.428  0.00  0.00    +0.119 C 
BRANCH  20  21
ATOM     21  C   UNL     1       1.308   6.218 -11.128  0.00  0.00    -0.003 A 
ATOM     22  C   UNL     1       0.215   6.803 -10.698  0.00  0.00    -0.003 A 
ATOM     23  C   UNL     1      -0.552   7.523 -11.588  0.00  0.00    -0.000 A 
ATOM     24  C   UNL     1       0.008   7.716 -12.846  0.00  0.00    -0.000 A 
ATOM     25  C   UNL     1       0.746   6.639 -13.338  0.00  0.00    -0.000 A 
ATOM     26  C   UNL     1       1.303   5.761 -12.449  0.00  0.00    -0.003 A 
ENDBRANCH  20  21
BRANCH  20  27
ATOM     27  N   UNL     1       3.160   6.001  -9.678  0.00  0.00    -0.203 NA
ATOM     28  C   UNL     1       4.320   6.324 -10.350  0.00  0.00    +0.241 C 
ATOM     29  O   UNL     1       3.867   7.369 -10.948  0.00  0.00    -0.273 OA
BRANCH  28  30
ATOM     30  C   UNL     1       5.701   6.275 -10.428  0.00  0.00    +0.079 C 
ATOM     31  C   UNL     1       5.996   5.938 -11.895  0.00  0.00    +0.015 C 
ATOM     32  C   UNL     1       7.330   6.613 -12.247  0.00  0.00    +0.067 C 
ATOM     33  C   UNL     1       8.348   5.712 -11.553  0.00  0.00    +0.264 C 
ATOM     34  F   UNL     1       9.561   6.139 -11.977  0.00  0.00    -0.204 F 
ATOM     35  F   UNL     1       8.098   4.417 -11.949  0.00  0.00    -0.204 F 
ATOM     36  C   UNL     1       8.094   5.925 -10.081  0.00  0.00    +0.067 C 
ATOM     37  C   UNL     1       6.684   5.582  -9.661  0.00  0.00    +0.015 C 
ENDBRANCH  28  30
ENDBRANCH  20  27
ENDBRANCH   1  20
TORSDOF 8
ENDMDL
MODEL 2
REMARK VINA RESULT:     -10.5      3.969      9.364
REMARK  Name = 
REMARK  8 active torsions:
REMARK  status: ('A' for Active; 'I' for Inactive)
REMARK    1  A    between atoms: C_5  and  C_6
REMARK    2  A    between atoms: N_9  and  C_10
REMARK    3  A    between atoms: N_17  and  C_18
REMARK    4  A    between atoms: C_18  and  C_19
REMARK    5  A    between atoms: C_19  and  C_20
REMARK    6  A    between atoms: C_20  and  N_21
REMARK    7  A    between atoms: C_20  and  C_32
REMARK    8  A    between atoms: C_22  and  C_24
REMARK                            x       y       z     vdW  Elec       q    Type
REMARK                         _______ _______ _______ _____ _____    ______ ____
ROOT
ATOM      1  C   UNL     1       3.220   5.971  -6.146  0.00  0.00    +0.043 C 
ENDROOT
BRANCH   1   2
ATOM      2  C   UNL     1       3.384   5.380  -7.408  0.00  0.00    +0.074 C 
BRANCH   2   6
ATOM      3  C   UNL     1       3.626   6.516 -11.592  0.00  0.00    +0.090 C 
ATOM      4  C   UNL     1       2.649   5.411 -10.991  0.00  0.00    +0.039 C 
ATOM      5  C   UNL     1       2.927   4.746  -9.566  0.00  0.00    +0.059 C 
ATOM      6  N   UNL     1       3.675   5.776  -8.674  0.00  0.00    -0.275 NA
ATOM      7  C   UNL     1       3.125   7.170  -9.047  0.00  0.00    +0.059 C 
ATOM      8  C   UNL     1       1.742   6.673  -9.778  0.00  0.00    +0.017 C 
ATOM      9  C   UNL     1       1.472   5.357  -9.027  0.00  0.00    +0.017 C 
ATOM     10  C   UNL     1       4.211   7.193 -10.255  0.00  0.00    +0.039 C 
BRANCH   3  13
ATOM     11  C   UNL     1       3.774   4.801 -13.883  0.00  0.00    +0.074 C 
ATOM     12  C   UNL     1       4.805   5.010 -13.054  0.00  0.00    +0.143 A 
ATOM     13  N   UNL     1       4.820   5.471 -11.765  0.00  0.00    -0.304 N 
ATOM     14  C   UNL     1       6.096   5.916 -11.636  0.00  0.00    +0.142 A 
ATOM     15  N   UNL     1       6.881   5.211 -12.477  0.00  0.00    -0.134 NA
ATOM     16  N   UNL     1       6.085   4.882 -13.494  0.00  0.00    -0.134 NA
BRANCH  14  17
ATOM     17  C   UNL     1       6.577   6.475 -10.365  0.00  0.00    +0.059 C 
ATOM     18  C   UNL     1       7.457   5.377  -9.762  0.00  0.00    +0.008 C 
ATOM     19  C   UNL     1       7.591   7.546 -10.783  0.00  0.00    +0.008 C 
ENDBRANCH  14  17
ENDBRANCH   3  13
ENDBRANCH   2   6
ENDBRANCH   1   2
BRANCH   1  20
ATOM     20  C   UNL     1       3.599   4.883  -4.963  0.00  0.00    +0.119 C 
BRANCH  20  21
ATOM     21  C   UNL     1       3.914   6.012  -3.872  0.00  0.00    -0.003 A 
ATOM     22  C   UNL     1       4.765   7.009  -3.956  0.00  0.00    -0.003 A 
ATOM     23  C   UNL     1       5.157   7.652  -2.804  0.00  0.00    -0.000 A 
ATOM     24  C   UNL     1       4.466   7.296  -1.650  0.00  0.00    -0.000 A 
ATOM     25  C   UNL     1       4.114   5.949  -1.563  0.00  0.00    -0.000 A 
ATOM     26  C   UNL     1       3.973   5.228  -2.717  0.00  0.00    -0.003 A 
ENDBRANCH  20  21
BRANCH  20  27
ATOM     27  N   UNL     1       2.139   4.564  -4.442  0.00  0.00    -0.203 NA
ATOM     28  C   UNL     1       1.103   4.794  -5.324  0.00  0.00    +0.241 C 
ATOM     29  O   UNL     1       1.101   3.628  -5.868  0.00  0.00    -0.273 OA
BRANCH  28  30
ATOM     30  C   UNL     1      -0.050   5.487  -5.647  0.00  0.00    +0.079 C 
ATOM     31  C   UNL     1      -0.392   6.284  -4.382  0.00  0.00    +0.015 C 
ATOM     32  C   UNL     1      -1.076   7.579  -4.845  0.00  0.00    +0.067 C 
ATOM     33  C   UNL     1      -2.468   7.093  -5.241  0.00  0.00    +0.264 C 
ATOM     34  F   UNL     1      -3.191   8.213  -5.481  0.00  0.00    -0.204 F 
ATOM     35  F   UNL     1      -2.978   6.377  -4.181  0.00  0.00    -0.204 F 
ATOM     36  C   UNL     1      -2.231   6.234  -6.458  0.00  0.00    +0.067 C 
ATOM     37  C   UNL     1      -1.299   5.072  -6.199  0.00  0.00    +0.015 C 
ENDBRANCH  28  30
ENDBRANCH  20  27
ENDBRANCH   1  20
TORSDOF 8
ENDMDL
MODEL 3
REMARK VINA RESULT:     -10.3      4.711      9.572
REMARK  Name = 
REMARK  8 active torsions:
REMARK  status: ('A' for Active; 'I' for Inactive)
REMARK    1  A    between atoms: C_5  and  C_6
REMARK    2  A    between atoms: N_9  and  C_10
REMARK    3  A    between atoms: N_17  and  C_18
REMARK    4  A    between atoms: C_18  and  C_19
REMARK    5  A    between atoms: C_19  and  C_20
REMARK    6  A    between atoms: C_20  and  N_21
REMARK    7  A    between atoms: C_20  and  C_32
REMARK    8  A    between atoms: C_22  and  C_24
REMARK                            x       y       z     vdW  Elec       q    Type
REMARK                         _______ _______ _______ _____ _____    ______ ____
ROOT
ATOM      1  C   UNL     1       2.398   7.240  -2.034  0.00  0.00    +0.043 C 
ENDROOT
BRANCH   1   2
ATOM      2  C   UNL     1       2.932   7.153  -3.330  0.00  0.00    +0.074 C 
BRANCH   2   6
ATOM      3  C   UNL     1       3.045   4.761  -6.952  0.00  0.00    +0.090 C 
ATOM      4  C   UNL     1       4.101   5.886  -6.554  0.00  0.00    +0.039 C 
ATOM      5  C   UNL     1       3.754   7.002  -5.467  0.00  0.00    +0.059 C 
ATOM      6  N   UNL     1       2.744   6.405  -4.447  0.00  0.00    -0.275 NA
ATOM      7  C   UNL     1       3.109   4.913  -4.282  0.00  0.00    +0.059 C 
ATOM      8  C   UNL     1       4.635   4.991  -4.881  0.00  0.00    +0.017 C 
ATOM      9  C   UNL     1       5.013   6.440  -4.529  0.00  0.00    +0.017 C 
ATOM     10  C   UNL     1       2.195   4.621  -5.593  0.00  0.00    +0.039 C 
BRANCH   3  13
ATOM     11  C   UNL     1       3.497   5.693  -9.623  0.00  0.00    +0.074 C 
ATOM     12  C   UNL     1       2.337   5.858  -8.975  0.00  0.00    +0.143 A 
ATOM     13  N   UNL     1       2.064   5.820  -7.633  0.00  0.00    -0.304 N 
ATOM     14  C   UNL     1       0.730   5.570  -7.620  0.00  0.00    +0.142 A 
ATOM     15  N   UNL     1       0.193   6.060  -8.757  0.00  0.00    -0.134 NA
ATOM     16  N   UNL     1       1.170   5.976  -9.661  0.00  0.00    -0.134 NA
BRANCH  14  17
ATOM     17  C   UNL     1      -0.011   5.483  -6.354  0.00  0.00    +0.059 C 
ATOM     18  C   UNL     1      -0.197   6.935  -5.908  0.00  0.00    +0.008 C 
ATOM     19  C   UNL     1      -1.424   5.061  -6.772  0.00  0.00    +0.008 C 
ENDBRANCH  14  17
ENDBRANCH   3  13
ENDBRANCH   2   6
ENDBRANCH   1   2
BRANCH   1  20
ATOM     20  C   UNL     1       3.158   6.161  -1.041  0.00  0.00    +0.119 C 
BRANCH  20  21
ATOM     21  C   UNL     1       3.543   7.270   0.049  0.00  0.00    -0.003 A 
ATOM     22  C   UNL     1       3.301   8.560   0.017  0.00  0.00    -0.003 A 
ATOM     23  C   UNL     1       4.011   9.394   0.852  0.00  0.00    -0.000 A 
ATOM     24  C   UNL     1       4.809   8.761   1.800  0.00  0.00    -0.000 A 
ATOM     25  C   UNL     1       5.426   7.588   1.365  0.00  0.00    -0.000 A 
ATOM     26  C   UNL     1       4.852   6.879   0.344  0.00  0.00    -0.003 A 
ENDBRANCH  20  21
BRANCH  20  27
ATOM     27  N   UNL     1       1.896   5.607  -0.264  0.00  0.00    -0.203 NA
ATOM     28  C   UNL     1       0.724   5.499  -0.984  0.00  0.00    +0.241 C 
ATOM     29  O   UNL     1       0.915   4.301  -1.412  0.00  0.00    -0.273 OA
BRANCH  28  30
ATOM     30  C   UNL     1      -0.590   5.885  -1.178  0.00  0.00    +0.079 C 
ATOM     31  C   UNL     1      -0.858   5.617  -2.665  0.00  0.00    +0.015 C 
ATOM     32  C   UNL     1      -2.345   5.249  -2.789  0.00  0.00    +0.067 C 
ATOM     33  C   UNL     1      -3.032   6.604  -2.631  0.00  0.00    +0.264 C 
ATOM     34  F   UNL     1      -4.338   6.385  -2.919  0.00  0.00    -0.204 F 
ATOM     35  F   UNL     1      -2.454   7.473  -3.528  0.00  0.00    -0.204 F 
ATOM     36  C   UNL     1      -2.769   6.992  -1.198  0.00  0.00    +0.067 C 
ATOM     37  C   UNL     1      -1.298   7.084  -0.862  0.00  0.00    +0.015 C 
ENDBRANCH  28  30
ENDBRANCH  20  27
ENDBRANCH   1  20
TORSDOF 8
ENDMDL
MODEL 4
REMARK VINA RESULT:     -10.0      1.871      3.332
REMARK  Name = 
REMARK  8 active torsions:
REMARK  status: ('A' for Active; 'I' for Inactive)
REMARK    1  A    between atoms: C_5  and  C_6
REMARK    2  A    between atoms: N_9  and  C_10
REMARK    3  A    between atoms: N_17  and  C_18
REMARK    4  A    between atoms: C_18  and  C_19
REMARK    5  A    between atoms: C_19  and  C_20
REMARK    6  A    between atoms: C_20  and  N_21
REMARK    7  A    between atoms: C_20  and  C_32
REMARK    8  A    between atoms: C_22  and  C_24
REMARK                            x       y       z     vdW  Elec       q    Type
REMARK                         _______ _______ _______ _____ _____    ______ ____
ROOT
ATOM      1  C   UNL     1       1.362   6.619  -8.497  0.00  0.00    +0.043 C 
ENDROOT
BRANCH   1   2
ATOM      2  C   UNL     1       0.780   6.723  -7.223  0.00  0.00    +0.074 C 
BRANCH   2   6
ATOM      3  C   UNL     1       0.836   5.358  -3.102  0.00  0.00    +0.090 C 
ATOM      4  C   UNL     1      -0.107   6.503  -3.682  0.00  0.00    +0.039 C 
ATOM      5  C   UNL     1       0.237   7.242  -5.055  0.00  0.00    +0.059 C 
ATOM      6  N   UNL     1       1.015   6.255  -5.970  0.00  0.00    -0.275 NA
ATOM      7  C   UNL     1       0.439   4.849  -5.697  0.00  0.00    +0.059 C 
ATOM      8  C   UNL     1      -0.971   5.318  -5.000  0.00  0.00    +0.017 C 
ATOM      9  C   UNL     1      -1.199   6.675  -5.688  0.00  0.00    +0.017 C 
ATOM     10  C   UNL     1       1.473   4.749  -4.448  0.00  0.00    +0.039 C 
BRANCH   3  13
ATOM     11  C   UNL     1       1.062   6.718  -0.590  0.00  0.00    +0.074 C 
ATOM     12  C   UNL     1       2.061   6.647  -1.478  0.00  0.00    +0.143 A 
ATOM     13  N   UNL     1       2.029   6.381  -2.822  0.00  0.00    -0.304 N 
ATOM     14  C   UNL     1       3.301   5.975  -3.063  0.00  0.00    +0.142 A 
ATOM     15  N   UNL     1       4.114   6.558  -2.157  0.00  0.00    -0.134 NA
ATOM     16  N   UNL     1       3.356   6.724  -1.073  0.00  0.00    -0.134 NA
BRANCH  14  17
ATOM     17  C   UNL     1       3.736   5.616  -4.420  0.00  0.00    +0.059 C 
ATOM     18  C   UNL     1       4.299   6.913  -5.008  0.00  0.00    +0.008 C 
ATOM     19  C   UNL     1       4.988   4.759  -4.200  0.00  0.00    +0.008 C 
ENDBRANCH  14  17
ENDBRANCH   3  13
ENDBRANCH   2   6
ENDBRANCH   1   2
BRANCH   1  20
ATOM     20  C   UNL     1       0.672   5.369  -9.328  0.00  0.00    +0.119 C 
BRANCH  20  21
ATOM     21  C   UNL     1       0.671   6.154 -10.724  0.00  0.00    -0.003 A 
ATOM     22  C   UNL     1      -0.058   7.187 -11.075  0.00  0.00    -0.003 A 
ATOM     23  C   UNL     1      -0.181   7.495 -12.412  0.00  0.00    -0.000 A 
ATOM     24  C   UNL     1       0.639   6.775 -13.274  0.00  0.00    -0.000 A 
ATOM     25  C   UNL     1       0.837   5.439 -12.924  0.00  0.00    -0.000 A 
ATOM     26  C   UNL     1       0.705   5.074 -11.611  0.00  0.00    -0.003 A 
ENDBRANCH  20  21
BRANCH  20  27
ATOM     27  N   UNL     1       1.974   4.520  -9.624  0.00  0.00    -0.203 NA
ATOM     28  C   UNL     1       3.143   4.954  -9.037  0.00  0.00    +0.241 C 
ATOM     29  O   UNL     1       3.026   4.285  -7.944  0.00  0.00    -0.273 OA
BRANCH  28  30
ATOM     30  C   UNL     1       4.429   5.448  -9.172  0.00  0.00    +0.079 C 
ATOM     31  C   UNL     1       4.568   5.767 -10.666  0.00  0.00    +0.015 C 
ATOM     32  C   UNL     1       5.524   6.963 -10.778  0.00  0.00    +0.067 C 
ATOM     33  C   UNL     1       6.885   6.323 -10.511  0.00  0.00    +0.264 C 
ATOM     34  F   UNL     1       7.799   7.285 -10.781  0.00  0.00    -0.204 F 
ATOM     35  F   UNL     1       7.014   5.247 -11.361  0.00  0.00    -0.204 F 
ATOM     36  C   UNL     1       6.826   5.911  -9.062  0.00  0.00    +0.067 C 
ATOM     37  C   UNL     1       5.700   4.949  -8.757  0.00  0.00    +0.015 C 
ENDBRANCH  28  30
ENDBRANCH  20  27
ENDBRANCH   1  20
TORSDOF 8
ENDMDL
MODEL 5
REMARK VINA RESULT:      -9.8      5.024      7.928
REMARK  Name = 
REMARK  8 active torsions:
REMARK  status: ('A' for Active; 'I' for Inactive)
REMARK    1  A    between atoms: C_5  and  C_6
REMARK    2  A    between atoms: N_9  and  C_10
REMARK    3  A    between atoms: N_17  and  C_18
REMARK    4  A    between atoms: C_18  and  C_19
REMARK    5  A    between atoms: C_19  and  C_20
REMARK    6  A    between atoms: C_20  and  N_21
REMARK    7  A    between atoms: C_20  and  C_32
REMARK    8  A    between atoms: C_22  and  C_24
REMARK                            x       y       z     vdW  Elec       q    Type
REMARK                         _______ _______ _______ _____ _____    ______ ____
ROOT
ATOM      1  C   UNL     1       3.845   7.142  -5.103  0.00  0.00    +0.043 C 
ENDROOT
BRANCH   1   2
ATOM      2  C   UNL     1       3.534   6.639  -3.830  0.00  0.00    +0.074 C 
BRANCH   2   6
ATOM      3  C   UNL     1       3.137   7.448   0.417  0.00  0.00    +0.090 C 
ATOM      4  C   UNL     1       2.241   6.428  -0.416  0.00  0.00    +0.039 C 
ATOM      5  C   UNL     1       2.146   6.517  -2.007  0.00  0.00    +0.059 C 
ATOM      6  N   UNL     1       3.480   7.098  -2.553  0.00  0.00    -0.275 NA
ATOM      7  C   UNL     1       4.604   6.565  -1.638  0.00  0.00    +0.059 C 
ATOM      8  C   UNL     1       3.773   5.317  -0.970  0.00  0.00    +0.017 C 
ATOM      9  C   UNL     1       2.789   4.982  -2.104  0.00  0.00    +0.017 C 
ATOM     10  C   UNL     1       4.287   7.813  -0.647  0.00  0.00    +0.039 C 
BRANCH   3  13
ATOM     11  C   UNL     1       0.333   7.400   1.002  0.00  0.00    +0.074 C 
ATOM     12  C   UNL     1       1.000   8.520   0.696  0.00  0.00    +0.143 A 
ATOM     13  N   UNL     1       2.198   8.685   0.053  0.00  0.00    -0.304 N 
ATOM     14  C   UNL     1       2.571   9.925   0.458  0.00  0.00    +0.142 A 
ATOM     15  N   UNL     1       1.459  10.635   0.742  0.00  0.00    -0.134 NA
ATOM     16  N   UNL     1       0.568   9.729   1.145  0.00  0.00    -0.134 NA
BRANCH  14  17
ATOM     17  C   UNL     1       3.813  10.539  -0.032  0.00  0.00    +0.059 C 
ATOM     18  C   UNL     1       3.364  11.815  -0.749  0.00  0.00    +0.008 C 
ATOM     19  C   UNL     1       4.496  11.071   1.233  0.00  0.00    +0.008 C 
ENDBRANCH  14  17
ENDBRANCH   3  13
ENDBRANCH   2   6
ENDBRANCH   1   2
BRANCH   1  20
ATOM     20  C   UNL     1       2.545   6.967  -6.108  0.00  0.00    +0.119 C 
BRANCH  20  21
ATOM     21  C   UNL     1       3.371   6.156  -7.214  0.00  0.00    -0.003 A 
ATOM     22  C   UNL     1       4.565   5.620  -7.107  0.00  0.00    -0.003 A 
ATOM     23  C   UNL     1       5.252   5.284  -8.252  0.00  0.00    -0.000 A 
ATOM     24  C   UNL     1       4.530   5.379  -9.438  0.00  0.00    -0.000 A 
ATOM     25  C   UNL     1       3.633   6.445  -9.500  0.00  0.00    -0.000 A 
ATOM     26  C   UNL     1       3.138   6.961  -8.333  0.00  0.00    -0.003 A 
ENDBRANCH  20  21
BRANCH  20  27
ATOM     27  N   UNL     1       1.885   5.694  -5.439  0.00  0.00    -0.203 NA
ATOM     28  C   UNL     1       0.513   5.711  -5.297  0.00  0.00    +0.241 C 
ATOM     29  O   UNL     1       0.233   5.185  -6.438  0.00  0.00    -0.273 OA
BRANCH  28  30
ATOM     30  C   UNL     1      -0.597   5.704  -4.470  0.00  0.00    +0.079 C 
ATOM     31  C   UNL     1      -1.137   7.139  -4.534  0.00  0.00    +0.015 C 
ATOM     32  C   UNL     1      -2.660   7.047  -4.357  0.00  0.00    +0.067 C 
ATOM     33  C   UNL     1      -2.802   6.772  -2.862  0.00  0.00    +0.264 C 
ATOM     34  F   UNL     1      -4.127   6.867  -2.598  0.00  0.00    -0.204 F 
ATOM     35  F   UNL     1      -2.080   7.733  -2.190  0.00  0.00    -0.204 F 
ATOM     36  C   UNL     1      -2.231   5.388  -2.681  0.00  0.00    +0.067 C 
ATOM     37  C   UNL     1      -0.790   5.271  -3.124  0.00  0.00    +0.015 C 
ENDBRANCH  28  30
ENDBRANCH  20  27
ENDBRANCH   1  20
TORSDOF 8
ENDMDL
MODEL 6
REMARK VINA RESULT:      -9.7      2.388      4.446
REMARK  Name = 
REMARK  8 active torsions:
REMARK  status: ('A' for Active; 'I' for Inactive)
REMARK    1  A    between atoms: C_5  and  C_6
REMARK    2  A    between atoms: N_9  and  C_10
REMARK    3  A    between atoms: N_17  and  C_18
REMARK    4  A    between atoms: C_18  and  C_19
REMARK    5  A    between atoms: C_19  and  C_20
REMARK    6  A    between atoms: C_20  and  N_21
REMARK    7  A    between atoms: C_20  and  C_32
REMARK    8  A    between atoms: C_22  and  C_24
REMARK                            x       y       z     vdW  Elec       q    Type
REMARK                         _______ _______ _______ _____ _____    ______ ____
ROOT
ATOM      1  C   UNL     1       3.709   4.997  -8.541  0.00  0.00    +0.043 C 
ENDROOT
BRANCH   1   2
ATOM      2  C   UNL     1       3.290   4.746  -7.225  0.00  0.00    +0.074 C 
BRANCH   2   6
ATOM      3  C   UNL     1       1.567   6.717  -3.761  0.00  0.00    +0.090 C 
ATOM      4  C   UNL     1       2.703   5.600  -3.718  0.00  0.00    +0.039 C 
ATOM      5  C   UNL     1       2.954   4.627  -4.958  0.00  0.00    +0.059 C 
ATOM      6  N   UNL     1       2.565   5.374  -6.264  0.00  0.00    -0.275 NA
ATOM      7  C   UNL     1       2.936   6.858  -6.054  0.00  0.00    +0.059 C 
ATOM      8  C   UNL     1       3.973   6.652  -4.799  0.00  0.00    +0.017 C 
ATOM      9  C   UNL     1       4.501   5.236  -5.087  0.00  0.00    +0.017 C 
ATOM     10  C   UNL     1       1.491   7.041  -5.334  0.00  0.00    +0.039 C 
BRANCH   3  13
ATOM     11  C   UNL     1       1.111   5.001  -1.512  0.00  0.00    +0.074 C 
ATOM     12  C   UNL     1       0.221   5.172  -2.497  0.00  0.00    +0.143 A 
ATOM     13  N   UNL     1       0.398   5.631  -3.775  0.00  0.00    -0.304 N 
ATOM     14  C   UNL     1      -0.855   6.032  -4.111  0.00  0.00    +0.142 A 
ATOM     15  N   UNL     1      -1.741   5.301  -3.403  0.00  0.00    -0.134 NA
ATOM     16  N   UNL     1      -1.108   5.001  -2.268  0.00  0.00    -0.134 NA
BRANCH  14  17
ATOM     17  C   UNL     1      -1.144   6.571  -5.446  0.00  0.00    +0.059 C 
ATOM     18  C   UNL     1      -1.673   5.378  -6.246  0.00  0.00    +0.008 C 
ATOM     19  C   UNL     1      -2.393   7.437  -5.241  0.00  0.00    +0.008 C 
ENDBRANCH  14  17
ENDBRANCH   3  13
ENDBRANCH   2   6
ENDBRANCH   1   2
BRANCH   1  20
ATOM     20  C   UNL     1       4.426   6.482  -8.628  0.00  0.00    +0.119 C 
BRANCH  20  21
ATOM     21  C   UNL     1       5.646   5.962  -9.527  0.00  0.00    -0.003 A 
ATOM     22  C   UNL     1       6.780   5.433  -9.130  0.00  0.00    -0.003 A 
ATOM     23  C   UNL     1       7.838   5.381 -10.010  0.00  0.00    -0.000 A 
ATOM     24  C   UNL     1       7.548   5.740 -11.322  0.00  0.00    -0.000 A 
ATOM     25  C   UNL     1       6.628   6.780 -11.461  0.00  0.00    -0.000 A 
ATOM     26  C   UNL     1       5.726   7.003 -10.457  0.00  0.00    -0.003 A 
ENDBRANCH  20  21
BRANCH  20  27
ATOM     27  N   UNL     1       3.594   7.089  -9.829  0.00  0.00    -0.203 NA
ATOM     28  C   UNL     1       2.413   6.452 -10.149  0.00  0.00    +0.241 C 
ATOM     29  O   UNL     1       1.654   7.126  -9.358  0.00  0.00    -0.273 OA
BRANCH  28  30
ATOM     30  C   UNL     1       1.657   5.739 -11.063  0.00  0.00    +0.079 C 
ATOM     31  C   UNL     1       2.225   6.138 -12.432  0.00  0.00    +0.015 C 
ATOM     32  C   UNL     1       2.058   4.921 -13.353  0.00  0.00    +0.067 C 
ATOM     33  C   UNL     1       0.563   4.945 -13.663  0.00  0.00    +0.264 C 
ATOM     34  F   UNL     1       0.376   4.009 -14.625  0.00  0.00    -0.204 F 
ATOM     35  F   UNL     1       0.251   6.207 -14.116  0.00  0.00    -0.204 F 
ATOM     36  C   UNL     1      -0.097   4.622 -12.347  0.00  0.00    +0.067 C 
ATOM     37  C   UNL     1       0.249   5.600 -11.247  0.00  0.00    +0.015 C 
ENDBRANCH  28  30
ENDBRANCH  20  27
ENDBRANCH   1  20
TORSDOF 8
ENDMDL
MODEL 7
REMARK VINA RESULT:      -9.7      2.827      4.745
REMARK  Name = 
REMARK  8 active torsions:
REMARK  status: ('A' for Active; 'I' for Inactive)
REMARK    1  A    between atoms: C_5  and  C_6
REMARK    2  A    between atoms: N_9  and  C_10
REMARK    3  A    between atoms: N_17  and  C_18
REMARK    4  A    between atoms: C_18  and  C_19
REMARK    5  A    between atoms: C_19  and  C_20
REMARK    6  A    between atoms: C_20  and  N_21
REMARK    7  A    between atoms: C_20  and  C_32
REMARK    8  A    between atoms: C_22  and  C_24
REMARK                            x       y       z     vdW  Elec       q    Type
REMARK                         _______ _______ _______ _____ _____    ______ ____
ROOT
ATOM      1  C   UNL     1       2.344   7.208  -6.499  0.00  0.00    +0.043 C 
ENDROOT
BRANCH   1   2
ATOM      2  C   UNL     1       3.380   6.937  -5.592  0.00  0.00    +0.074 C 
BRANCH   2   6
ATOM      3  C   UNL     1       4.055   6.225  -1.362  0.00  0.00    +0.090 C 
ATOM      4  C   UNL     1       3.373   5.201  -2.374  0.00  0.00    +0.039 C 
ATOM      5  C   UNL     1       2.765   5.692  -3.766  0.00  0.00    +0.059 C 
ATOM      6  N   UNL     1       3.564   6.935  -4.246  0.00  0.00    -0.275 NA
ATOM      7  C   UNL     1       5.028   6.721  -3.804  0.00  0.00    +0.059 C 
ATOM      8  C   UNL     1       4.948   5.101  -3.554  0.00  0.00    +0.017 C 
ATOM      9  C   UNL     1       3.851   4.705  -4.557  0.00  0.00    +0.017 C 
ATOM     10  C   UNL     1       4.608   7.353  -2.367  0.00  0.00    +0.039 C 
BRANCH   3  13
ATOM     11  C   UNL     1       1.653   4.732  -0.902  0.00  0.00    +0.074 C 
ATOM     12  C   UNL     1       1.782   6.029  -0.595  0.00  0.00    +0.143 A 
ATOM     13  N   UNL     1       2.672   6.961  -1.059  0.00  0.00    -0.304 N 
ATOM     14  C   UNL     1       2.638   7.900  -0.080  0.00  0.00    +0.142 A 
ATOM     15  N   UNL     1       1.428   7.853   0.515  0.00  0.00    -0.134 NA
ATOM     16  N   UNL     1       1.039   6.583   0.399  0.00  0.00    -0.134 NA
BRANCH  14  17
ATOM     17  C   UNL     1       3.434   9.131  -0.184  0.00  0.00    +0.059 C 
ATOM     18  C   UNL     1       2.492  10.248   0.270  0.00  0.00    +0.008 C 
ATOM     19  C   UNL     1       4.438   9.029   0.969  0.00  0.00    +0.008 C 
ENDBRANCH  14  17
ENDBRANCH   3  13
ENDBRANCH   2   6
ENDBRANCH   1   2
BRANCH   1  20
ATOM     20  C   UNL     1       1.584   5.803  -6.917  0.00  0.00    +0.119 C 
BRANCH  20  21
ATOM     21  C   UNL     1       0.137   6.325  -6.471  0.00  0.00    -0.003 A 
ATOM     22  C   UNL     1      -0.183   7.024  -5.408  0.00  0.00    -0.003 A 
ATOM     23  C   UNL     1      -1.500   7.069  -5.008  0.00  0.00    -0.000 A 
ATOM     24  C   UNL     1      -2.416   6.504  -5.888  0.00  0.00    -0.000 A 
ATOM     25  C   UNL     1      -1.971   5.361  -6.552  0.00  0.00    -0.000 A 
ATOM     26  C   UNL     1      -0.626   5.181  -6.728  0.00  0.00    -0.003 A 
ENDBRANCH  20  21
BRANCH  20  27
ATOM     27  N   UNL     1       1.382   6.080  -8.462  0.00  0.00    -0.203 NA
ATOM     28  C   UNL     1       2.308   5.521  -9.318  0.00  0.00    +0.241 C 
ATOM     29  O   UNL     1       1.698   4.403  -9.498  0.00  0.00    -0.273 OA
BRANCH  28  30
ATOM     30  C   UNL     1       3.311   5.688 -10.257  0.00  0.00    +0.079 C 
ATOM     31  C   UNL     1       4.442   6.392  -9.496  0.00  0.00    +0.015 C 
ATOM     32  C   UNL     1       5.762   5.921 -10.126  0.00  0.00    +0.067 C 
ATOM     33  C   UNL     1       5.795   6.699 -11.440  0.00  0.00    +0.264 C 
ATOM     34  F   UNL     1       7.024   6.477 -11.963  0.00  0.00    -0.204 F 
ATOM     35  F   UNL     1       5.602   8.029 -11.142  0.00  0.00    -0.204 F 
ATOM     36  C   UNL     1       4.662   6.117 -12.247  0.00  0.00    +0.067 C 
ATOM     37  C   UNL     1       3.316   6.244 -11.571  0.00  0.00    +0.015 C 
ENDBRANCH  28  30
ENDBRANCH  20  27
ENDBRANCH   1  20
TORSDOF 8
ENDMDL
MODEL 8
REMARK VINA RESULT:      -9.5      3.849      8.417
REMARK  Name = 
REMARK  8 active torsions:
REMARK  status: ('A' for Active; 'I' for Inactive)
REMARK    1  A    between atoms: C_5  and  C_6
REMARK    2  A    between atoms: N_9  and  C_10
REMARK    3  A    between atoms: N_17  and  C_18
REMARK    4  A    between atoms: C_18  and  C_19
REMARK    5  A    between atoms: C_19  and  C_20
REMARK    6  A    between atoms: C_20  and  N_21
REMARK    7  A    between atoms: C_20  and  C_32
REMARK    8  A    between atoms: C_22  and  C_24
REMARK                            x       y       z     vdW  Elec       q    Type
REMARK                         _______ _______ _______ _____ _____    ______ ____
ROOT
ATOM      1  C   UNL     1      -0.202   6.600  -5.901  0.00  0.00    +0.043 C 
ENDROOT
BRANCH   1   2
ATOM      2  C   UNL     1       1.010   6.745  -6.595  0.00  0.00    +0.074 C 
BRANCH   2   6
ATOM      3  C   UNL     1       3.716   4.808  -9.384  0.00  0.00    +0.090 C 
ATOM      4  C   UNL     1       4.111   5.975  -8.374  0.00  0.00    +0.039 C 
ATOM      5  C   UNL     1       2.999   6.919  -7.725  0.00  0.00    +0.059 C 
ATOM      6  N   UNL     1       1.676   6.115  -7.597  0.00  0.00    -0.275 NA
ATOM      7  C   UNL     1       2.071   4.656  -7.280  0.00  0.00    +0.059 C 
ATOM      8  C   UNL     1       3.603   4.948  -6.769  0.00  0.00    +0.017 C 
ATOM      9  C   UNL     1       3.459   6.377  -6.216  0.00  0.00    +0.017 C 
ATOM     10  C   UNL     1       2.235   4.431  -8.881  0.00  0.00    +0.039 C 
BRANCH   3  13
ATOM     11  C   UNL     1       5.556   5.866 -11.308  0.00  0.00    +0.074 C 
ATOM     12  C   UNL     1       4.226   5.944 -11.444  0.00  0.00    +0.143 A 
ATOM     13  N   UNL     1       3.236   5.838 -10.503  0.00  0.00    -0.304 N 
ATOM     14  C   UNL     1       2.156   5.518 -11.260  0.00  0.00    +0.142 A 
ATOM     15  N   UNL     1       2.337   6.023 -12.498  0.00  0.00    -0.134 NA
ATOM     16  N   UNL     1       3.658   6.026 -12.676  0.00  0.00    -0.134 NA
BRANCH  14  17
ATOM     17  C   UNL     1       0.831   5.342 -10.650  0.00  0.00    +0.059 C 
ATOM     18  C   UNL     1       0.182   6.727 -10.713  0.00  0.00    +0.008 C 
ATOM     19  C   UNL     1       0.041   4.538 -11.689  0.00  0.00    +0.008 C 
ENDBRANCH  14  17
ENDBRANCH   3  13
ENDBRANCH   2   6
ENDBRANCH   1   2
BRANCH   1  20
ATOM     20  C   UNL     1       0.038   6.884  -4.291  0.00  0.00    +0.119 C 
BRANCH  20  21
ATOM     21  C   UNL     1      -1.352   6.218  -3.855  0.00  0.00    -0.003 A 
ATOM     22  C   UNL     1      -2.201   5.547  -4.599  0.00  0.00    -0.003 A 
ATOM     23  C   UNL     1      -3.488   5.366  -4.146  0.00  0.00    -0.000 A 
ATOM     24  C   UNL     1      -3.728   5.765  -2.835  0.00  0.00    -0.000 A 
ATOM     25  C   UNL     1      -3.046   6.913  -2.432  0.00  0.00    -0.000 A 
ATOM     26  C   UNL     1      -1.878   7.244  -3.065  0.00  0.00    -0.003 A 
ENDBRANCH  20  21
BRANCH  20  27
ATOM     27  N   UNL     1       0.931   5.624  -3.947  0.00  0.00    -0.203 NA
ATOM     28  C   UNL     1       1.424   5.547  -2.661  0.00  0.00    +0.241 C 
ATOM     29  O   UNL     1       0.431   4.909  -2.152  0.00  0.00    -0.273 OA
BRANCH  28  30
ATOM     30  C   UNL     1       2.511   5.525  -1.805  0.00  0.00    +0.079 C 
ATOM     31  C   UNL     1       2.724   6.992  -1.408  0.00  0.00    +0.015 C 
ATOM     32  C   UNL     1       3.287   6.988   0.021  0.00  0.00    +0.067 C 
ATOM     33  C   UNL     1       4.735   6.555  -0.198  0.00  0.00    +0.264 C 
ATOM     34  F   UNL     1       5.347   6.713   1.001  0.00  0.00    -0.204 F 
ATOM     35  F   UNL     1       5.278   7.380  -1.157  0.00  0.00    -0.204 F 
ATOM     36  C   UNL     1       4.631   5.122  -0.658  0.00  0.00    +0.067 C 
ATOM     37  C   UNL     1       3.815   4.956  -1.919  0.00  0.00    +0.015 C 
ENDBRANCH  28  30
ENDBRANCH  20  27
ENDBRANCH   1  20
TORSDOF 8
ENDMDL
MODEL 9
REMARK VINA RESULT:      -9.4      3.110      5.822
REMARK  Name = 
REMARK  8 active torsions:
REMARK  status: ('A' for Active; 'I' for Inactive)
REMARK    1  A    between atoms: C_5  and  C_6
REMARK    2  A    between atoms: N_9  and  C_10
REMARK    3  A    between atoms: N_17  and  C_18
REMARK    4  A    between atoms: C_18  and  C_19
REMARK    5  A    between atoms: C_19  and  C_20
REMARK    6  A    between atoms: C_20  and  N_21
REMARK    7  A    between atoms: C_20  and  C_32
REMARK    8  A    between atoms: C_22  and  C_24
REMARK                            x       y       z     vdW  Elec       q    Type
REMARK                         _______ _______ _______ _____ _____    ______ ____
ROOT
ATOM      1  C   UNL     1       0.852   5.952  -6.210  0.00  0.00    +0.043 C 
ENDROOT
BRANCH   1   2
ATOM      2  C   UNL     1       0.025   6.616  -5.291  0.00  0.00    +0.074 C 
BRANCH   2   6
ATOM      3  C   UNL     1      -2.046   6.307  -1.487  0.00  0.00    +0.090 C 
ATOM      4  C   UNL     1      -2.243   7.474  -2.553  0.00  0.00    +0.039 C 
ATOM      5  C   UNL     1      -1.152   7.756  -3.684  0.00  0.00    +0.059 C 
ATOM      6  N   UNL     1      -0.436   6.420  -4.028  0.00  0.00    -0.275 NA
ATOM      7  C   UNL     1      -1.496   5.304  -3.905  0.00  0.00    +0.059 C 
ATOM      8  C   UNL     1      -2.831   6.255  -3.987  0.00  0.00    +0.017 C 
ATOM      9  C   UNL     1      -2.304   7.422  -4.842  0.00  0.00    +0.017 C 
ATOM     10  C   UNL     1      -1.154   5.257  -2.317  0.00  0.00    +0.039 C 
BRANCH   3  13
ATOM     11  C   UNL     1      -2.398   7.914   0.859  0.00  0.00    +0.074 C 
ATOM     12  C   UNL     1      -1.202   7.482   0.438  0.00  0.00    +0.143 A 
ATOM     13  N   UNL     1      -0.810   7.044  -0.799  0.00  0.00    -0.304 N 
ATOM     14  C   UNL     1       0.298   6.316  -0.506  0.00  0.00    +0.142 A 
ATOM     15  N   UNL     1       0.847   6.810   0.624  0.00  0.00    -0.134 NA
ATOM     16  N   UNL     1      -0.180   7.303   1.316  0.00  0.00    -0.134 NA
BRANCH  14  17
ATOM     17  C   UNL     1       1.086   5.676  -1.569  0.00  0.00    +0.059 C 
ATOM     18  C   UNL     1       2.201   6.675  -1.886  0.00  0.00    +0.008 C 
ATOM     19  C   UNL     1       1.826   4.539  -0.857  0.00  0.00    +0.008 C 
ENDBRANCH  14  17
ENDBRANCH   3  13
ENDBRANCH   2   6
ENDBRANCH   1   2
BRANCH   1  20
ATOM     20  C   UNL     1       2.055   6.965  -6.715  0.00  0.00    +0.119 C 
BRANCH  20  21
ATOM     21  C   UNL     1       3.040   6.571  -5.516  0.00  0.00    -0.003 A 
ATOM     22  C   UNL     1       4.105   7.213  -5.095  0.00  0.00    -0.003 A 
ATOM     23  C   UNL     1       5.017   6.548  -4.305  0.00  0.00    -0.000 A 
ATOM     24  C   UNL     1       4.629   5.286  -3.868  0.00  0.00    -0.000 A 
ATOM     25  C   UNL     1       3.895   4.541  -4.791  0.00  0.00    -0.000 A 
ATOM     26  C   UNL     1       3.181   5.201  -5.754  0.00  0.00    -0.003 A 
ENDBRANCH  20  21
BRANCH  20  27
ATOM     27  N   UNL     1       2.734   6.025  -7.792  0.00  0.00    -0.203 NA
ATOM     28  C   UNL     1       2.316   6.177  -9.098  0.00  0.00    +0.241 C 
ATOM     29  O   UNL     1       3.171   7.079  -9.431  0.00  0.00    -0.273 OA
BRANCH  28  30
ATOM     30  C   UNL     1       1.705   5.643 -10.219  0.00  0.00    +0.079 C 
ATOM     31  C   UNL     1       2.215   6.501 -11.385  0.00  0.00    +0.015 C 
ATOM     32  C   UNL     1       2.271   5.587 -12.618  0.00  0.00    +0.067 C 
ATOM     33  C   UNL     1       0.798   5.459 -13.000  0.00  0.00    +0.264 C 
ATOM     34  F   UNL     1       0.786   4.820 -14.194  0.00  0.00    -0.204 F 
ATOM     35  F   UNL     1       0.281   6.732 -13.100  0.00  0.00    -0.204 F 
ATOM     36  C   UNL     1       0.185   4.674 -11.868  0.00  0.00    +0.067 C 
ATOM     37  C   UNL     1       0.344   5.340 -10.521  0.00  0.00    +0.015 C 
ENDBRANCH  28  30
ENDBRANCH  20  27
ENDBRANCH   1  20
TORSDOF 8
ENDMDL
