MODEL 1
REMARK VINA RESULT:      -4.8      0.000      0.000
REMARK  Name = 
REMARK  5 active torsions:
REMARK  status: ('A' for Active; 'I' for Inactive)
REMARK    1  A    between atoms: C_2  and  C_3
REMARK    2  A    between atoms: C_3  and  C_5
REMARK    3  A    between atoms: C_5  and  C_7
REMARK    4  A    between atoms: C_7  and  C_9
REMARK    5  A    between atoms: C_9  and  C_11
REMARK                            x       y       z     vdW  Elec       q    Type
REMARK                         _______ _______ _______ _____ _____    ______ ____
ROOT
ATOM      1  C   UNL     1       2.220   6.540  -2.798  0.00  0.00    +0.223 C 
ATOM      2  O   UNL     1       2.794   7.072  -4.088  0.00  0.00    -0.217 OA
ENDROOT
BRANCH   1   3
ATOM      3  C   UNL     1       3.377   5.239  -2.833  0.00  0.00    +0.249 C 
ATOM      4  O   UNL     1       4.527   6.242  -2.709  0.00  0.00    -0.212 OA
BRANCH   3   6
ATOM      5  O   UNL     1       4.369   4.561  -0.793  0.00  0.00    -0.285 OA
ATOM      6  C   UNL     1       3.356   5.063  -1.205  0.00  0.00    +0.243 C 
ENDBRANCH   3   6
ENDBRANCH   1   3
BRANCH   1   7
ATOM      7  C   UNL     1       1.004   5.578  -3.553  0.00  0.00    +0.218 C 
ATOM      8  O   UNL     1       0.493   6.731  -4.376  0.00  0.00    -0.217 OA
BRANCH   7   9
ATOM      9  C   UNL     1      -0.061   5.887  -2.208  0.00  0.00    +0.218 C 
ATOM     10  O   UNL     1       0.115   4.487  -1.615  0.00  0.00    -0.217 OA
BRANCH   9  11
ATOM     11  C   UNL     1      -1.460   5.466  -2.994  0.00  0.00    +0.217 C 
ATOM     12  O   UNL     1      -2.303   4.889  -2.104  0.00  0.00    -0.217 OA
ENDBRANCH   9  11
ENDBRANCH   7   9
ENDBRANCH   1   7
TORSDOF 5
ENDMDL
MODEL 2
REMARK VINA RESULT:      -4.7      9.207     10.351
REMARK  Name = 
REMARK  5 active torsions:
REMARK  status: ('A' for Active; 'I' for Inactive)
REMARK    1  A    between atoms: C_2  and  C_3
REMARK    2  A    between atoms: C_3  and  C_5
REMARK    3  A    between atoms: C_5  and  C_7
REMARK    4  A    between atoms: C_7  and  C_9
REMARK    5  A    between atoms: C_9  and  C_11
REMARK                            x       y       z     vdW  Elec       q    Type
REMARK                         _______ _______ _______ _____ _____    ______ ____
ROOT
ATOM      1  C   UNL     1       6.732   5.929 -12.660  0.00  0.00    +0.223 C 
ATOM      2  O   UNL     1       7.196   4.847 -13.602  0.00  0.00    -0.217 OA
ENDROOT
BRANCH   1   3
ATOM      3  C   UNL     1       7.792   5.298 -11.430  0.00  0.00    +0.249 C 
ATOM      4  O   UNL     1       9.012   5.800 -12.207  0.00  0.00    -0.212 OA
BRANCH   3   6
ATOM      5  O   UNL     1       7.705   6.490  -9.387  0.00  0.00    -0.285 OA
ATOM      6  C   UNL     1       7.765   6.692 -10.572  0.00  0.00    +0.243 C 
ENDBRANCH   3   6
ENDBRANCH   1   3
BRANCH   1   7
ATOM      7  C   UNL     1       5.382   5.044 -12.056  0.00  0.00    +0.218 C 
ATOM      8  O   UNL     1       4.905   4.677 -13.436  0.00  0.00    -0.217 OA
BRANCH   7   9
ATOM      9  C   UNL     1       4.460   6.521 -11.979  0.00  0.00    +0.218 C 
ATOM     10  O   UNL     1       4.546   6.616 -10.454  0.00  0.00    -0.217 OA
BRANCH   9  11
ATOM     11  C   UNL     1       2.969   5.793 -11.930  0.00  0.00    +0.217 C 
ATOM     12  O   UNL     1       2.117   6.490 -12.719  0.00  0.00    -0.217 OA
ENDBRANCH   9  11
ENDBRANCH   7   9
ENDBRANCH   1   7
TORSDOF 5
ENDMDL
MODEL 3
REMARK VINA RESULT:      -4.6      4.212      6.288
REMARK  Name = 
REMARK  5 active torsions:
REMARK  status: ('A' for Active; 'I' for Inactive)
REMARK    1  A    between atoms: C_2  and  C_3
REMARK    2  A    between atoms: C_3  and  C_5
REMARK    3  A    between atoms: C_5  and  C_7
REMARK    4  A    between atoms: C_7  and  C_9
REMARK    5  A    between atoms: C_9  and  C_11
REMARK                            x       y       z     vdW  Elec       q    Type
REMARK                         _______ _______ _______ _____ _____    ______ ____
ROOT
ATOM      1  C   UNL     1       2.668   6.727  -7.948  0.00  0.00    +0.223 C 
ATOM      2  O   UNL     1       2.239   8.173  -7.915  0.00  0.00    -0.217 OA
ENDROOT
BRANCH   1   3
ATOM      3  C   UNL     1       1.066   6.275  -8.461  0.00  0.00    +0.249 C 
ATOM      4  O   UNL     1       1.191   7.182  -9.688  0.00  0.00    -0.212 OA
BRANCH   3   6
ATOM      5  O   UNL     1       0.776   4.590 -10.098  0.00  0.00    -0.285 OA
ATOM      6  C   UNL     1       1.614   5.008  -9.342  0.00  0.00    +0.243 C 
ENDBRANCH   3   6
ENDBRANCH   1   3
BRANCH   1   7
ATOM      7  C   UNL     1       2.305   6.418  -6.291  0.00  0.00    +0.218 C 
ATOM      8  O   UNL     1       3.312   7.425  -5.801  0.00  0.00    -0.217 OA
BRANCH   7   9
ATOM      9  C   UNL     1       3.433   5.089  -6.302  0.00  0.00    +0.218 C 
ATOM     10  O   UNL     1       2.336   4.023  -6.253  0.00  0.00    -0.217 OA
BRANCH   9  11
ATOM     11  C   UNL     1       3.663   5.042  -4.659  0.00  0.00    +0.217 C 
ATOM     12  O   UNL     1       4.966   4.769  -4.409  0.00  0.00    -0.217 OA
ENDBRANCH   9  11
ENDBRANCH   7   9
ENDBRANCH   1   7
TORSDOF 5
ENDMDL
MODEL 4
REMARK VINA RESULT:      -4.6      9.281     10.572
REMARK  Name = 
REMARK  5 active torsions:
REMARK  status: ('A' for Active; 'I' for Inactive)
REMARK    1  A    between atoms: C_2  and  C_3
REMARK    2  A    between atoms: C_3  and  C_5
REMARK    3  A    between atoms: C_5  and  C_7
REMARK    4  A    between atoms: C_7  and  C_9
REMARK    5  A    between atoms: C_9  and  C_11
REMARK                            x       y       z     vdW  Elec       q    Type
REMARK                         _______ _______ _______ _____ _____    ______ ____
ROOT
ATOM      1  C   UNL     1       5.797   5.566 -10.830  0.00  0.00    +0.223 C 
ATOM      2  O   UNL     1       5.182   6.402  -9.735  0.00  0.00    -0.217 OA
ENDROOT
BRANCH   1   3
ATOM      3  C   UNL     1       7.229   6.554 -10.766  0.00  0.00    +0.249 C 
ATOM      4  O   UNL     1       7.551   6.018  -9.368  0.00  0.00    -0.212 OA
BRANCH   3   6
ATOM      5  O   UNL     1       9.008   5.844 -12.159  0.00  0.00    -0.285 OA
ATOM      6  C   UNL     1       8.167   5.386 -11.429  0.00  0.00    +0.243 C 
ENDBRANCH   3   6
ENDBRANCH   1   3
BRANCH   1   7
ATOM      7  C   UNL     1       5.129   6.488 -12.125  0.00  0.00    +0.218 C 
ATOM      8  O   UNL     1       3.761   6.526 -11.496  0.00  0.00    -0.217 OA
BRANCH   7   9
ATOM      9  C   UNL     1       4.833   5.014 -13.008  0.00  0.00    +0.218 C 
ATOM     10  O   UNL     1       6.075   5.171 -13.888  0.00  0.00    -0.217 OA
BRANCH   9  11
ATOM     11  C   UNL     1       3.839   5.693 -14.151  0.00  0.00    +0.217 C 
ATOM     12  O   UNL     1       2.838   4.824 -14.429  0.00  0.00    -0.217 OA
ENDBRANCH   9  11
ENDBRANCH   7   9
ENDBRANCH   1   7
TORSDOF 5
ENDMDL
MODEL 5
REMARK VINA RESULT:      -4.6      1.628      2.200
REMARK  Name = 
REMARK  5 active torsions:
REMARK  status: ('A' for Active; 'I' for Inactive)
REMARK    1  A    between atoms: C_2  and  C_3
REMARK    2  A    between atoms: C_3  and  C_5
REMARK    3  A    between atoms: C_5  and  C_7
REMARK    4  A    between atoms: C_7  and  C_9
REMARK    5  A    between atoms: C_9  and  C_11
REMARK                            x       y       z     vdW  Elec       q    Type
REMARK                         _______ _______ _______ _____ _____    ______ ____
ROOT
ATOM      1  C   UNL     1       0.762   6.807  -4.885  0.00  0.00    +0.223 C 
ATOM      2  O   UNL     1       0.852   6.825  -6.390  0.00  0.00    -0.217 OA
ENDROOT
BRANCH   1   3
ATOM      3  C   UNL     1       2.148   5.753  -4.826  0.00  0.00    +0.249 C 
ATOM      4  O   UNL     1       3.029   6.859  -5.412  0.00  0.00    -0.212 OA
BRANCH   3   6
ATOM      5  O   UNL     1       2.974   5.318  -2.651  0.00  0.00    -0.285 OA
ATOM      6  C   UNL     1       2.553   6.231  -3.313  0.00  0.00    +0.243 C 
ENDBRANCH   3   6
ENDBRANCH   1   3
BRANCH   1   7
ATOM      7  C   UNL     1      -0.341   5.483  -4.810  0.00  0.00    +0.218 C 
ATOM      8  O   UNL     1      -1.329   6.154  -5.727  0.00  0.00    -0.217 OA
BRANCH   7   9
ATOM      9  C   UNL     1      -1.028   6.151  -3.354  0.00  0.00    +0.218 C 
ATOM     10  O   UNL     1      -0.500   5.024  -2.464  0.00  0.00    -0.217 OA
BRANCH   9  11
ATOM     11  C   UNL     1      -2.515   5.434  -3.519  0.00  0.00    +0.217 C 
ATOM     12  O   UNL     1      -2.805   4.765  -2.377  0.00  0.00    -0.217 OA
ENDBRANCH   9  11
ENDBRANCH   7   9
ENDBRANCH   1   7
TORSDOF 5
ENDMDL
MODEL 6
REMARK VINA RESULT:      -4.6      3.125      5.505
REMARK  Name = 
REMARK  5 active torsions:
REMARK  status: ('A' for Active; 'I' for Inactive)
REMARK    1  A    between atoms: C_2  and  C_3
REMARK    2  A    between atoms: C_3  and  C_5
REMARK    3  A    between atoms: C_5  and  C_7
REMARK    4  A    between atoms: C_7  and  C_9
REMARK    5  A    between atoms: C_9  and  C_11
REMARK                            x       y       z     vdW  Elec       q    Type
REMARK                         _______ _______ _______ _____ _____    ______ ____
ROOT
ATOM      1  C   UNL     1      -1.122   5.688  -0.925  0.00  0.00    +0.223 C 
ATOM      2  O   UNL     1      -0.192   4.648  -1.498  0.00  0.00    -0.217 OA
ENDROOT
BRANCH   1   3
ATOM      3  C   UNL     1      -1.616   6.120  -2.538  0.00  0.00    +0.249 C 
ATOM      4  O   UNL     1      -2.306   4.763  -2.702  0.00  0.00    -0.212 OA
BRANCH   3   6
ATOM      5  O   UNL     1      -3.956   6.436  -2.707  0.00  0.00    -0.285 OA
ATOM      6  C   UNL     1      -3.025   6.774  -2.023  0.00  0.00    +0.243 C 
ENDBRANCH   3   6
ENDBRANCH   1   3
BRANCH   1   7
ATOM      7  C   UNL     1       0.061   6.942  -0.871  0.00  0.00    +0.218 C 
ATOM      8  O   UNL     1       1.067   6.071  -0.168  0.00  0.00    -0.217 OA
BRANCH   7   9
ATOM      9  C   UNL     1      -0.656   7.542   0.600  0.00  0.00    +0.218 C 
ATOM     10  O   UNL     1      -1.400   8.679  -0.103  0.00  0.00    -0.217 OA
BRANCH   9  11
ATOM     11  C   UNL     1       0.612   8.525   1.023  0.00  0.00    +0.217 C 
ATOM     12  O   UNL     1       0.197   9.814   0.982  0.00  0.00    -0.217 OA
ENDBRANCH   9  11
ENDBRANCH   7   9
ENDBRANCH   1   7
TORSDOF 5
ENDMDL
MODEL 7
REMARK VINA RESULT:      -4.6      8.383     10.448
REMARK  Name = 
REMARK  5 active torsions:
REMARK  status: ('A' for Active; 'I' for Inactive)
REMARK    1  A    between atoms: C_2  and  C_3
REMARK    2  A    between atoms: C_3  and  C_5
REMARK    3  A    between atoms: C_5  and  C_7
REMARK    4  A    between atoms: C_7  and  C_9
REMARK    5  A    between atoms: C_9  and  C_11
REMARK                            x       y       z     vdW  Elec       q    Type
REMARK                         _______ _______ _______ _____ _____    ______ ____
ROOT
ATOM      1  C   UNL     1       3.952   6.652 -10.802  0.00  0.00    +0.223 C 
ATOM      2  O   UNL     1       3.807   6.733  -9.303  0.00  0.00    -0.217 OA
ENDROOT
BRANCH   1   3
ATOM      3  C   UNL     1       2.618   5.534 -10.860  0.00  0.00    +0.249 C 
ATOM      4  O   UNL     1       1.683   6.602 -10.286  0.00  0.00    -0.212 OA
BRANCH   3   6
ATOM      5  O   UNL     1       1.165   5.472 -12.728  0.00  0.00    -0.285 OA
ATOM      6  C   UNL     1       2.198   5.982 -12.378  0.00  0.00    +0.243 C 
ENDBRANCH   3   6
ENDBRANCH   1   3
BRANCH   1   7
ATOM      7  C   UNL     1       5.115   5.379 -10.779  0.00  0.00    +0.218 C 
ATOM      8  O   UNL     1       6.031   6.128  -9.848  0.00  0.00    -0.217 OA
BRANCH   7   9
ATOM      9  C   UNL     1       5.835   6.024 -12.229  0.00  0.00    +0.218 C 
ATOM     10  O   UNL     1       5.349   4.869 -13.108  0.00  0.00    -0.217 OA
BRANCH   9  11
ATOM     11  C   UNL     1       7.327   5.332 -12.005  0.00  0.00    +0.217 C 
ATOM     12  O   UNL     1       7.635   4.597 -13.100  0.00  0.00    -0.217 OA
ENDBRANCH   9  11
ENDBRANCH   7   9
ENDBRANCH   1   7
TORSDOF 5
ENDMDL
MODEL 8
REMARK VINA RESULT:      -4.6      4.975      5.977
REMARK  Name = 
REMARK  5 active torsions:
REMARK  status: ('A' for Active; 'I' for Inactive)
REMARK    1  A    between atoms: C_2  and  C_3
REMARK    2  A    between atoms: C_3  and  C_5
REMARK    3  A    between atoms: C_5  and  C_7
REMARK    4  A    between atoms: C_7  and  C_9
REMARK    5  A    between atoms: C_9  and  C_11
REMARK                            x       y       z     vdW  Elec       q    Type
REMARK                         _______ _______ _______ _____ _____    ______ ____
ROOT
ATOM      1  C   UNL     1       1.961   6.741  -7.497  0.00  0.00    +0.223 C 
ATOM      2  O   UNL     1       2.190   8.221  -7.679  0.00  0.00    -0.217 OA
ENDROOT
BRANCH   1   3
ATOM      3  C   UNL     1       3.629   6.552  -7.033  0.00  0.00    +0.249 C 
ATOM      4  O   UNL     1       3.410   7.470  -5.829  0.00  0.00    -0.212 OA
BRANCH   3   6
ATOM      5  O   UNL     1       4.158   5.073  -5.262  0.00  0.00    -0.285 OA
ATOM      6  C   UNL     1       3.308   5.247  -6.097  0.00  0.00    +0.243 C 
ENDBRANCH   3   6
ENDBRANCH   1   3
BRANCH   1   7
ATOM      7  C   UNL     1       2.293   6.328  -9.138  0.00  0.00    +0.218 C 
ATOM      8  O   UNL     1       1.237   7.260  -9.669  0.00  0.00    -0.217 OA
BRANCH   7   9
ATOM      9  C   UNL     1       1.217   4.963  -9.002  0.00  0.00    +0.218 C 
ATOM     10  O   UNL     1       2.352   3.938  -8.982  0.00  0.00    -0.217 OA
BRANCH   9  11
ATOM     11  C   UNL     1       0.968   4.775 -10.632  0.00  0.00    +0.217 C 
ATOM     12  O   UNL     1      -0.295   4.328 -10.831  0.00  0.00    -0.217 OA
ENDBRANCH   9  11
ENDBRANCH   7   9
ENDBRANCH   1   7
TORSDOF 5
ENDMDL
MODEL 9
REMARK VINA RESULT:      -4.5      2.563      4.022
REMARK  Name = 
REMARK  5 active torsions:
REMARK  status: ('A' for Active; 'I' for Inactive)
REMARK    1  A    between atoms: C_2  and  C_3
REMARK    2  A    between atoms: C_3  and  C_5
REMARK    3  A    between atoms: C_5  and  C_7
REMARK    4  A    between atoms: C_7  and  C_9
REMARK    5  A    between atoms: C_9  and  C_11
REMARK                            x       y       z     vdW  Elec       q    Type
REMARK                         _______ _______ _______ _____ _____    ______ ____
ROOT
ATOM      1  C   UNL     1       2.267   5.633  -5.512  0.00  0.00    +0.223 C 
ATOM      2  O   UNL     1       3.556   5.146  -4.899  0.00  0.00    -0.217 OA
ENDROOT
BRANCH   1   3
ATOM      3  C   UNL     1       3.102   7.029  -6.133  0.00  0.00    +0.249 C 
ATOM      4  O   UNL     1       3.904   6.140  -7.086  0.00  0.00    -0.212 OA
BRANCH   3   6
ATOM      5  O   UNL     1       2.127   8.350  -7.838  0.00  0.00    -0.285 OA
ATOM      6  C   UNL     1       1.986   7.280  -7.305  0.00  0.00    +0.243 C 
ENDBRANCH   3   6
ENDBRANCH   1   3
BRANCH   1   7
ATOM      7  C   UNL     1       1.736   6.482  -4.108  0.00  0.00    +0.218 C 
ATOM      8  O   UNL     1       2.068   5.334  -3.192  0.00  0.00    -0.217 OA
BRANCH   7   9
ATOM      9  C   UNL     1       0.105   5.948  -4.413  0.00  0.00    +0.218 C 
ATOM     10  O   UNL     1      -0.374   7.331  -4.858  0.00  0.00    -0.217 OA
BRANCH   9  11
ATOM     11  C   UNL     1      -0.443   6.168  -2.862  0.00  0.00    +0.217 C 
ATOM     12  O   UNL     1      -1.195   5.098  -2.510  0.00  0.00    -0.217 OA
ENDBRANCH   9  11
ENDBRANCH   7   9
ENDBRANCH   1   7
TORSDOF 5
ENDMDL
