MODEL 1
REMARK VINA RESULT:      -8.0      0.000      0.000
REMARK  Name = 
REMARK  3 active torsions:
REMARK  status: ('A' for Active; 'I' for Inactive)
REMARK    1  A    between atoms: C_5  and  S_6
REMARK    2  A    between atoms: S_6  and  N_9
REMARK    3  A    between atoms: N_12  and  N_13
REMARK                            x       y       z     vdW  Elec       q    Type
REMARK                         _______ _______ _______ _____ _____    ______ ____
ROOT
ATOM      1  N   UNL     1       2.521   5.509 -10.113  0.00  0.00    -0.070 NA
ATOM      2  C   UNL     1       3.100   5.659 -11.257  0.00  0.00    +0.387 C 
ATOM      3  N   UNL     1       4.510   5.705 -11.264  0.00  0.00    -0.105 NA
ATOM      4  O   UNL     1       2.308   5.550 -12.382  0.00  0.00    -0.243 OA
ENDROOT
BRANCH   3   5
ATOM      5  N   UNL     1       5.157   6.515 -10.342  0.00  0.00    -0.183 NA
ATOM      6  C   UNL     1       5.833   7.640 -10.936  0.00  0.00    +0.094 C 
ATOM      7  C   UNL     1       6.348   7.223 -12.307  0.00  0.00    +0.019 C 
ATOM      8  C   UNL     1       7.730   6.626 -12.070  0.00  0.00    +0.002 C 
ATOM      9  C   UNL     1       7.499   5.354 -11.263  0.00  0.00    +0.002 C 
ATOM     10  C   UNL     1       7.420   5.733  -9.790  0.00  0.00    +0.019 C 
ATOM     11  C   UNL     1       5.967   5.787  -9.401  0.00  0.00    +0.094 C 
ENDBRANCH   3   5
BRANCH   1  12
ATOM     12  S   UNL     1       0.834   5.824  -9.872  0.00  0.00    +0.104 S 
ATOM     13  O   UNL     1      -0.032   4.819 -10.553  0.00  0.00    -0.146 OA
ATOM     14  O   UNL     1       0.573   7.202 -10.418  0.00  0.00    -0.146 OA
BRANCH  12  19
ATOM     15  C   UNL     1      -0.899   6.970  -4.345  0.00  0.00    +0.031 C 
ATOM     16  C   UNL     1      -0.338   6.607  -5.671  0.00  0.00    -0.022 A 
ATOM     17  C   UNL     1      -1.024   5.644  -6.396  0.00  0.00    -0.003 A 
ATOM     18  C   UNL     1      -0.609   5.335  -7.664  0.00  0.00    +0.020 A 
ATOM     19  C   UNL     1       0.570   5.846  -8.140  0.00  0.00    +0.129 A 
ATOM     20  C   UNL     1       1.447   6.410  -7.253  0.00  0.00    +0.020 A 
ATOM     21  C   UNL     1       0.967   6.833  -6.023  0.00  0.00    -0.003 A 
ENDBRANCH  12  19
ENDBRANCH   1  12
TORSDOF 3
ENDMDL
MODEL 2
REMARK VINA RESULT:      -7.9      6.672      7.781
REMARK  Name = 
REMARK  3 active torsions:
REMARK  status: ('A' for Active; 'I' for Inactive)
REMARK    1  A    between atoms: C_5  and  S_6
REMARK    2  A    between atoms: S_6  and  N_9
REMARK    3  A    between atoms: N_12  and  N_13
REMARK                            x       y       z     vdW  Elec       q    Type
REMARK                         _______ _______ _______ _____ _____    ______ ____
ROOT
ATOM      1  N   UNL     1       0.455   6.863  -1.145  0.00  0.00    -0.070 NA
ATOM      2  C   UNL     1       0.953   5.792  -1.665  0.00  0.00    +0.387 C 
ATOM      3  N   UNL     1       2.287   5.859  -2.121  0.00  0.00    -0.105 NA
ATOM      4  O   UNL     1       0.219   4.631  -1.539  0.00  0.00    -0.243 OA
ENDROOT
BRANCH   3   5
ATOM      5  N   UNL     1       2.673   6.940  -2.901  0.00  0.00    -0.183 NA
ATOM      6  C   UNL     1       2.409   6.762  -4.306  0.00  0.00    +0.094 C 
ATOM      7  C   UNL     1       2.572   5.286  -4.643  0.00  0.00    +0.019 C 
ATOM      8  C   UNL     1       4.045   5.096  -4.983  0.00  0.00    +0.002 C 
ATOM      9  C   UNL     1       4.806   5.354  -3.688  0.00  0.00    +0.002 C 
ATOM     10  C   UNL     1       5.038   6.854  -3.564  0.00  0.00    +0.019 C 
ATOM     11  C   UNL     1       4.005   7.408  -2.619  0.00  0.00    +0.094 C 
ENDBRANCH   3   5
BRANCH   1  12
ATOM     12  S   UNL     1      -1.248   7.079  -0.903  0.00  0.00    +0.104 S 
ATOM     13  O   UNL     1      -1.568   8.396  -0.281  0.00  0.00    -0.146 OA
ATOM     14  O   UNL     1      -1.701   5.952  -0.014  0.00  0.00    -0.146 OA
BRANCH  12  19
ATOM     15  C   UNL     1      -2.676   5.671  -6.456  0.00  0.00    +0.031 C 
ATOM     16  C   UNL     1      -2.417   6.148  -5.074  0.00  0.00    -0.022 A 
ATOM     17  C   UNL     1      -2.925   5.375  -4.042  0.00  0.00    -0.003 A 
ATOM     18  C   UNL     1      -2.638   5.712  -2.746  0.00  0.00    +0.020 A 
ATOM     19  C   UNL     1      -2.005   6.896  -2.472  0.00  0.00    +0.129 A 
ATOM     20  C   UNL     1      -1.933   7.845  -3.457  0.00  0.00    +0.020 A 
ATOM     21  C   UNL     1      -2.098   7.447  -4.774  0.00  0.00    -0.003 A 
ENDBRANCH  12  19
ENDBRANCH   1  12
TORSDOF 3
ENDMDL
MODEL 3
REMARK VINA RESULT:      -7.9      2.487      2.953
REMARK  Name = 
REMARK  3 active torsions:
REMARK  status: ('A' for Active; 'I' for Inactive)
REMARK    1  A    between atoms: C_5  and  S_6
REMARK    2  A    between atoms: S_6  and  N_9
REMARK    3  A    between atoms: N_12  and  N_13
REMARK                            x       y       z     vdW  Elec       q    Type
REMARK                         _______ _______ _______ _____ _____    ______ ____
ROOT
ATOM      1  N   UNL     1       3.781   6.242  -8.655  0.00  0.00    -0.070 NA
ATOM      2  C   UNL     1       3.729   6.307  -9.943  0.00  0.00    +0.387 C 
ATOM      3  N   UNL     1       4.931   6.080 -10.647  0.00  0.00    -0.105 NA
ATOM      4  O   UNL     1       2.478   6.383 -10.519  0.00  0.00    -0.243 OA
ENDROOT
BRANCH   3   5
ATOM      5  N   UNL     1       6.085   6.725 -10.226  0.00  0.00    -0.183 NA
ATOM      6  C   UNL     1       6.566   7.713 -11.158  0.00  0.00    +0.094 C 
ATOM      7  C   UNL     1       6.246   7.240 -12.570  0.00  0.00    +0.019 C 
ATOM      8  C   UNL     1       7.428   6.381 -13.001  0.00  0.00    +0.002 C 
ATOM      9  C   UNL     1       7.404   5.157 -12.093  0.00  0.00    +0.002 C 
ATOM     10  C   UNL     1       8.138   5.505 -10.805  0.00  0.00    +0.019 C 
ATOM     11  C   UNL     1       7.109   5.829  -9.756  0.00  0.00    +0.094 C 
ENDBRANCH   3   5
BRANCH   1  12
ATOM     12  S   UNL     1       2.527   6.870  -7.637  0.00  0.00    +0.104 S 
ATOM     13  O   UNL     1       1.248   6.117  -7.784  0.00  0.00    -0.146 OA
ATOM     14  O   UNL     1       2.338   8.311  -8.030  0.00  0.00    -0.146 OA
BRANCH  12  19
ATOM     15  C   UNL     1       4.105   7.984  -2.058  0.00  0.00    +0.031 C 
ATOM     16  C   UNL     1       3.814   7.586  -3.458  0.00  0.00    -0.022 A 
ATOM     17  C   UNL     1       2.590   6.980  -3.694  0.00  0.00    -0.003 A 
ATOM     18  C   UNL     1       2.226   6.677  -4.979  0.00  0.00    +0.020 A 
ATOM     19  C   UNL     1       3.135   6.810  -5.995  0.00  0.00    +0.129 A 
ATOM     20  C   UNL     1       4.458   6.962  -5.677  0.00  0.00    +0.020 A 
ATOM     21  C   UNL     1       4.789   7.399  -4.404  0.00  0.00    -0.003 A 
ENDBRANCH  12  19
ENDBRANCH   1  12
TORSDOF 3
ENDMDL
MODEL 4
REMARK VINA RESULT:      -7.9      3.379      7.327
REMARK  Name = 
REMARK  3 active torsions:
REMARK  status: ('A' for Active; 'I' for Inactive)
REMARK    1  A    between atoms: C_5  and  S_6
REMARK    2  A    between atoms: S_6  and  N_9
REMARK    3  A    between atoms: N_12  and  N_13
REMARK                            x       y       z     vdW  Elec       q    Type
REMARK                         _______ _______ _______ _____ _____    ______ ____
ROOT
ATOM      1  N   UNL     1       3.736   6.246  -7.696  0.00  0.00    -0.070 NA
ATOM      2  C   UNL     1       2.988   5.783  -6.752  0.00  0.00    +0.387 C 
ATOM      3  N   UNL     1       3.227   6.265  -5.447  0.00  0.00    -0.105 NA
ATOM      4  O   UNL     1       1.895   5.028  -7.127  0.00  0.00    -0.243 OA
ENDROOT
BRANCH   3   5
ATOM      5  N   UNL     1       4.534   6.312  -4.981  0.00  0.00    -0.183 NA
ATOM      6  C   UNL     1       4.858   5.249  -4.064  0.00  0.00    +0.094 C 
ATOM      7  C   UNL     1       3.611   4.912  -3.257  0.00  0.00    +0.019 C 
ATOM      8  C   UNL     1       3.629   5.844  -2.051  0.00  0.00    +0.002 C 
ATOM      9  C   UNL     1       3.444   7.250  -2.611  0.00  0.00    +0.002 C 
ATOM     10  C   UNL     1       4.809   7.779  -3.029  0.00  0.00    +0.019 C 
ATOM     11  C   UNL     1       4.935   7.615  -4.520  0.00  0.00    +0.094 C 
ENDBRANCH   3   5
BRANCH   1  12
ATOM     12  S   UNL     1       3.849   5.490  -9.252  0.00  0.00    +0.104 S 
ATOM     13  O   UNL     1       2.717   5.869 -10.147  0.00  0.00    -0.146 OA
ATOM     14  O   UNL     1       3.854   4.005  -9.008  0.00  0.00    -0.146 OA
BRANCH  12  19
ATOM     15  C   UNL     1       8.868   5.933 -12.329  0.00  0.00    +0.031 C 
ATOM     16  C   UNL     1       7.676   5.913 -11.445  0.00  0.00    -0.022 A 
ATOM     17  C   UNL     1       6.568   6.627 -11.875  0.00  0.00    -0.003 A 
ATOM     18  C   UNL     1       5.408   6.569 -11.150  0.00  0.00    +0.020 A 
ATOM     19  C   UNL     1       5.398   5.955  -9.925  0.00  0.00    +0.129 A 
ATOM     20  C   UNL     1       6.595   5.672  -9.323  0.00  0.00    +0.020 A 
ATOM     21  C   UNL     1       7.734   5.608 -10.110  0.00  0.00    -0.003 A 
ENDBRANCH  12  19
ENDBRANCH   1  12
TORSDOF 3
ENDMDL
MODEL 5
REMARK VINA RESULT:      -7.8      4.036      8.329
REMARK  Name = 
REMARK  3 active torsions:
REMARK  status: ('A' for Active; 'I' for Inactive)
REMARK    1  A    between atoms: C_5  and  S_6
REMARK    2  A    between atoms: S_6  and  N_9
REMARK    3  A    between atoms: N_12  and  N_13
REMARK                            x       y       z     vdW  Elec       q    Type
REMARK                         _______ _______ _______ _____ _____    ______ ____
ROOT
ATOM      1  N   UNL     1       2.061   5.891  -5.058  0.00  0.00    -0.070 NA
ATOM      2  C   UNL     1       1.548   6.305  -3.948  0.00  0.00    +0.387 C 
ATOM      3  N   UNL     1       0.140   6.303  -3.851  0.00  0.00    -0.105 NA
ATOM      4  O   UNL     1       2.413   6.512  -2.893  0.00  0.00    -0.243 OA
ENDROOT
BRANCH   3   5
ATOM      5  N   UNL     1      -0.603   6.832  -4.896  0.00  0.00    -0.183 NA
ATOM      6  C   UNL     1      -1.524   7.861  -4.487  0.00  0.00    +0.094 C 
ATOM      7  C   UNL     1      -2.022   7.533  -3.085  0.00  0.00    +0.019 C 
ATOM      8  C   UNL     1      -3.240   6.637  -3.274  0.00  0.00    +0.002 C 
ATOM      9  C   UNL     1      -2.712   5.344  -3.885  0.00  0.00    +0.002 C 
ATOM     10  C   UNL     1      -2.628   5.531  -5.393  0.00  0.00    +0.019 C 
ATOM     11  C   UNL     1      -1.196   5.832  -5.746  0.00  0.00    +0.094 C 
ENDBRANCH   3   5
BRANCH   1  12
ATOM     12  S   UNL     1       3.712   6.192  -5.493  0.00  0.00    +0.104 S 
ATOM     13  O   UNL     1       4.657   5.276  -4.792  0.00  0.00    -0.146 OA
ATOM     14  O   UNL     1       3.996   7.624  -5.128  0.00  0.00    -0.146 OA
BRANCH  12  19
ATOM     15  C   UNL     1       5.010   6.634 -11.235  0.00  0.00    +0.031 C 
ATOM     16  C   UNL     1       4.547   6.455  -9.836  0.00  0.00    -0.022 A 
ATOM     17  C   UNL     1       5.206   5.500  -9.078  0.00  0.00    -0.003 A 
ATOM     18  C   UNL     1       4.886   5.355  -7.754  0.00  0.00    +0.020 A 
ATOM     19  C   UNL     1       3.811   6.025  -7.234  0.00  0.00    +0.129 A 
ATOM     20  C   UNL     1       2.909   6.589  -8.096  0.00  0.00    +0.020 A 
ATOM     21  C   UNL     1       3.307   6.844  -9.399  0.00  0.00    -0.003 A 
ENDBRANCH  12  19
ENDBRANCH   1  12
TORSDOF 3
ENDMDL
MODEL 6
REMARK VINA RESULT:      -7.7      2.203      7.510
REMARK  Name = 
REMARK  3 active torsions:
REMARK  status: ('A' for Active; 'I' for Inactive)
REMARK    1  A    between atoms: C_5  and  S_6
REMARK    2  A    between atoms: S_6  and  N_9
REMARK    3  A    between atoms: N_12  and  N_13
REMARK                            x       y       z     vdW  Elec       q    Type
REMARK                         _______ _______ _______ _____ _____    ______ ____
ROOT
ATOM      1  N   UNL     1       2.368   5.709  -7.455  0.00  0.00    -0.070 NA
ATOM      2  C   UNL     1       1.456   6.620  -7.396  0.00  0.00    +0.387 C 
ATOM      3  N   UNL     1       0.860   6.853  -6.138  0.00  0.00    -0.105 NA
ATOM      4  O   UNL     1       1.294   7.422  -8.507  0.00  0.00    -0.243 OA
ENDROOT
BRANCH   3   5
ATOM      5  N   UNL     1       0.436   5.765  -5.388  0.00  0.00    -0.183 NA
ATOM      6  C   UNL     1      -0.786   5.173  -5.869  0.00  0.00    +0.094 C 
ATOM      7  C   UNL     1      -1.658   6.276  -6.455  0.00  0.00    +0.019 C 
ATOM      8  C   UNL     1      -2.480   6.820  -5.292  0.00  0.00    +0.002 C 
ATOM      9  C   UNL     1      -1.479   7.480  -4.351  0.00  0.00    +0.002 C 
ATOM     10  C   UNL     1      -0.909   6.407  -3.434  0.00  0.00    +0.019 C 
ATOM     11  C   UNL     1       0.440   6.006  -3.969  0.00  0.00    +0.094 C 
ENDBRANCH   3   5
BRANCH   1  12
ATOM     12  S   UNL     1       2.911   5.028  -8.953  0.00  0.00    +0.104 S 
ATOM     13  O   UNL     1       1.925   5.224 -10.054  0.00  0.00    -0.146 OA
ATOM     14  O   UNL     1       3.135   3.561  -8.701  0.00  0.00    -0.146 OA
BRANCH  12  19
ATOM     15  C   UNL     1       8.051   6.731 -11.308  0.00  0.00    +0.031 C 
ATOM     16  C   UNL     1       6.813   6.359 -10.577  0.00  0.00    -0.022 A 
ATOM     17  C   UNL     1       5.676   7.102 -10.855  0.00  0.00    -0.003 A 
ATOM     18  C   UNL     1       4.484   6.745 -10.284  0.00  0.00    +0.020 A 
ATOM     19  C   UNL     1       4.453   5.776  -9.316  0.00  0.00    +0.129 A 
ATOM     20  C   UNL     1       5.631   5.391  -8.734  0.00  0.00    +0.020 A 
ATOM     21  C   UNL     1       6.817   5.651  -9.403  0.00  0.00    -0.003 A 
ENDBRANCH  12  19
ENDBRANCH   1  12
TORSDOF 3
ENDMDL
MODEL 7
REMARK VINA RESULT:      -7.4      3.786      7.093
REMARK  Name = 
REMARK  3 active torsions:
REMARK  status: ('A' for Active; 'I' for Inactive)
REMARK    1  A    between atoms: C_5  and  S_6
REMARK    2  A    between atoms: S_6  and  N_9
REMARK    3  A    between atoms: N_12  and  N_13
REMARK                            x       y       z     vdW  Elec       q    Type
REMARK                         _______ _______ _______ _____ _____    ______ ____
ROOT
ATOM      1  N   UNL     1       4.397   6.447 -14.331  0.00  0.00    -0.070 NA
ATOM      2  C   UNL     1       4.053   5.421 -13.628  0.00  0.00    +0.387 C 
ATOM      3  N   UNL     1       2.715   5.365 -13.184  0.00  0.00    -0.105 NA
ATOM      4  O   UNL     1       4.955   4.379 -13.552  0.00  0.00    -0.243 OA
ENDROOT
BRANCH   3   5
ATOM      5  N   UNL     1       2.156   6.495 -12.604  0.00  0.00    -0.183 NA
ATOM      6  C   UNL     1       2.510   6.668 -11.218  0.00  0.00    +0.094 C 
ATOM      7  C   UNL     1       2.657   5.292 -10.583  0.00  0.00    +0.019 C 
ATOM      8  C   UNL     1       1.266   4.908 -10.092  0.00  0.00    +0.002 C 
ATOM      9  C   UNL     1       0.415   4.744 -11.345  0.00  0.00    +0.002 C 
ATOM     10  C   UNL     1      -0.115   6.114 -11.744  0.00  0.00    +0.019 C 
ATOM     11  C   UNL     1       0.747   6.638 -12.862  0.00  0.00    +0.094 C 
ENDBRANCH   3   5
BRANCH   1  12
ATOM     12  S   UNL     1       6.054   6.871 -14.616  0.00  0.00    +0.104 S 
ATOM     13  O   UNL     1       6.192   8.205 -15.268  0.00  0.00    -0.146 OA
ATOM     14  O   UNL     1       6.626   5.792 -15.496  0.00  0.00    -0.146 OA
BRANCH  12  19
ATOM     15  C   UNL     1       8.026   5.514  -9.219  0.00  0.00    +0.031 C 
ATOM     16  C   UNL     1       7.578   6.005 -10.547  0.00  0.00    -0.022 A 
ATOM     17  C   UNL     1       8.310   5.584 -11.647  0.00  0.00    -0.003 A 
ATOM     18  C   UNL     1       7.890   5.926 -12.904  0.00  0.00    +0.020 A 
ATOM     19  C   UNL     1       6.861   6.816 -13.063  0.00  0.00    +0.129 A 
ATOM     20  C   UNL     1       6.468   7.563 -11.985  0.00  0.00    +0.020 A 
ATOM     21  C   UNL     1       6.798   7.119 -10.714  0.00  0.00    -0.003 A 
ENDBRANCH  12  19
ENDBRANCH   1  12
TORSDOF 3
ENDMDL
MODEL 8
REMARK VINA RESULT:      -7.3      2.650      3.814
REMARK  Name = 
REMARK  3 active torsions:
REMARK  status: ('A' for Active; 'I' for Inactive)
REMARK    1  A    between atoms: C_5  and  S_6
REMARK    2  A    between atoms: S_6  and  N_9
REMARK    3  A    between atoms: N_12  and  N_13
REMARK                            x       y       z     vdW  Elec       q    Type
REMARK                         _______ _______ _______ _____ _____    ______ ____
ROOT
ATOM      1  N   UNL     1       1.825   5.798  -7.307  0.00  0.00    -0.070 NA
ATOM      2  C   UNL     1       2.830   6.578  -7.520  0.00  0.00    +0.387 C 
ATOM      3  N   UNL     1       3.177   6.828  -8.865  0.00  0.00    -0.105 NA
ATOM      4  O   UNL     1       3.341   7.259  -6.433  0.00  0.00    -0.243 OA
ENDROOT
BRANCH   3   5
ATOM      5  N   UNL     1       3.265   5.758  -9.743  0.00  0.00    -0.183 NA
ATOM      6  C   UNL     1       4.406   4.910  -9.507  0.00  0.00    +0.094 C 
ATOM      7  C   UNL     1       5.553   5.775  -9.001  0.00  0.00    +0.019 C 
ATOM      8  C   UNL     1       6.283   6.268 -10.245  0.00  0.00    +0.002 C 
ATOM      9  C   UNL     1       5.303   7.185 -10.965  0.00  0.00    +0.002 C 
ATOM     10  C   UNL     1       4.406   6.326 -11.845  0.00  0.00    +0.019 C 
ATOM     11  C   UNL     1       3.098   6.129 -11.124  0.00  0.00    +0.094 C 
ENDBRANCH   3   5
BRANCH   1  12
ATOM     12  S   UNL     1       1.513   5.078  -5.762  0.00  0.00    +0.104 S 
ATOM     13  O   UNL     1       2.637   5.285  -4.804  0.00  0.00    -0.146 OA
ATOM     14  O   UNL     1       1.295   3.609  -6.010  0.00  0.00    -0.146 OA
BRANCH  12  19
ATOM     15  C   UNL     1      -3.562   6.278  -2.993  0.00  0.00    +0.031 C 
ATOM     16  C   UNL     1      -2.333   6.080  -3.802  0.00  0.00    -0.022 A 
ATOM     17  C   UNL     1      -1.155   6.598  -3.284  0.00  0.00    -0.003 A 
ATOM     18  C   UNL     1       0.026   6.364  -3.937  0.00  0.00    +0.020 A 
ATOM     19  C   UNL     1       0.018   5.777  -5.175  0.00  0.00    +0.129 A 
ATOM     20  C   UNL     1      -1.167   5.700  -5.858  0.00  0.00    +0.020 A 
ATOM     21  C   UNL     1      -2.351   5.810  -5.146  0.00  0.00    -0.003 A 
ENDBRANCH  12  19
ENDBRANCH   1  12
TORSDOF 3
ENDMDL
MODEL 9
REMARK VINA RESULT:      -7.3      3.372      4.724
REMARK  Name = 
REMARK  3 active torsions:
REMARK  status: ('A' for Active; 'I' for Inactive)
REMARK    1  A    between atoms: C_5  and  S_6
REMARK    2  A    between atoms: S_6  and  N_9
REMARK    3  A    between atoms: N_12  and  N_13
REMARK                            x       y       z     vdW  Elec       q    Type
REMARK                         _______ _______ _______ _____ _____    ______ ____
ROOT
ATOM      1  N   UNL     1       1.055   6.139  -7.187  0.00  0.00    -0.070 NA
ATOM      2  C   UNL     1       1.519   6.946  -8.081  0.00  0.00    +0.387 C 
ATOM      3  N   UNL     1       1.267   6.623  -9.432  0.00  0.00    -0.105 NA
ATOM      4  O   UNL     1       2.032   8.148  -7.639  0.00  0.00    -0.243 OA
ENDROOT
BRANCH   3   5
ATOM      5  N   UNL     1       1.493   5.323  -9.862  0.00  0.00    -0.183 NA
ATOM      6  C   UNL     1       2.683   5.177 -10.661  0.00  0.00    +0.094 C 
ATOM      7  C   UNL     1       2.881   6.454 -11.467  0.00  0.00    +0.019 C 
ATOM      8  C   UNL     1       2.093   6.260 -12.757  0.00  0.00    +0.002 C 
ATOM      9  C   UNL     1       0.627   6.204 -12.343  0.00  0.00    +0.002 C 
ATOM     10  C   UNL     1       0.301   4.773 -11.939  0.00  0.00    +0.019 C 
ATOM     11  C   UNL     1       0.332   4.695 -10.436  0.00  0.00    +0.094 C 
ENDBRANCH   3   5
BRANCH   1  12
ATOM     12  S   UNL     1       1.594   6.160  -5.540  0.00  0.00    +0.104 S 
ATOM     13  O   UNL     1       2.731   7.102  -5.330  0.00  0.00    -0.146 OA
ATOM     14  O   UNL     1       2.007   4.752  -5.207  0.00  0.00    -0.146 OA
BRANCH  12  19
ATOM     15  C   UNL     1      -3.596   6.385  -2.735  0.00  0.00    +0.031 C 
ATOM     16  C   UNL     1      -2.281   6.486  -3.417  0.00  0.00    -0.022 A 
ATOM     17  C   UNL     1      -1.190   5.948  -2.753  0.00  0.00    -0.003 A 
ATOM     18  C   UNL     1       0.031   5.926  -3.374  0.00  0.00    +0.020 A 
ATOM     19  C   UNL     1       0.205   6.585  -4.562  0.00  0.00    +0.129 A 
ATOM     20  C   UNL     1      -0.747   7.486  -4.959  0.00  0.00    +0.020 A 
ATOM     21  C   UNL     1      -2.015   7.398  -4.406  0.00  0.00    -0.003 A 
ENDBRANCH  12  19
ENDBRANCH   1  12
TORSDOF 3
ENDMDL
