MODEL 1
REMARK VINA RESULT:      -3.8      0.000      0.000
REMARK  Name = 
REMARK  1 active torsions:
REMARK  status: ('A' for Active; 'I' for Inactive)
REMARK    1  A    between atoms: C_2  and  P_4
REMARK                            x       y       z     vdW  Elec       q    Type
REMARK                         _______ _______ _______ _____ _____    ______ ____
ROOT
ATOM      1  P   UNL     1       7.083   6.088 -10.799  0.00  0.00    +0.222 P 
ATOM      2  O   UNL     1       7.075   7.772 -10.898  0.00  0.00    -0.350 OA
ATOM      3  O   UNL     1       5.526   5.486 -10.985  0.00  0.00    -0.350 OA
ATOM      4  O   UNL     1       7.572   5.732  -9.414  0.00  0.00    -0.449 OA
ENDROOT
BRANCH   1   6
ATOM      5  O   UNL     1       9.326   5.892 -12.120  0.00  0.00    -0.238 OA
ATOM      6  C   UNL     1       8.184   5.386 -12.037  0.00  0.00    +0.411 C 
ATOM      7  O   UNL     1       7.594   4.663 -13.078  0.00  0.00    -0.238 OA
ENDBRANCH   1   6
TORSDOF 1
ENDMDL
MODEL 2
REMARK VINA RESULT:      -3.7      0.241      1.666
REMARK  Name = 
REMARK  1 active torsions:
REMARK  status: ('A' for Active; 'I' for Inactive)
REMARK    1  A    between atoms: C_2  and  P_4
REMARK                            x       y       z     vdW  Elec       q    Type
REMARK                         _______ _______ _______ _____ _____    ______ ____
ROOT
ATOM      1  P   UNL     1       7.033   6.178 -10.973  0.00  0.00    +0.222 P 
ATOM      2  O   UNL     1       7.557   5.984  -9.381  0.00  0.00    -0.350 OA
ATOM      3  O   UNL     1       6.843   7.809 -11.330  0.00  0.00    -0.350 OA
ATOM      4  O   UNL     1       5.684   5.505 -11.075  0.00  0.00    -0.449 OA
ENDROOT
BRANCH   1   6
ATOM      5  O   UNL     1       9.355   5.867 -12.124  0.00  0.00    -0.238 OA
ATOM      6  C   UNL     1       8.189   5.412 -12.118  0.00  0.00    +0.411 C 
ATOM      7  O   UNL     1       7.645   4.698 -13.191  0.00  0.00    -0.238 OA
ENDBRANCH   1   6
TORSDOF 1
ENDMDL
MODEL 3
REMARK VINA RESULT:      -3.5     11.081     12.163
REMARK  Name = 
REMARK  1 active torsions:
REMARK  status: ('A' for Active; 'I' for Inactive)
REMARK    1  A    between atoms: C_2  and  P_4
REMARK                            x       y       z     vdW  Elec       q    Type
REMARK                         _______ _______ _______ _____ _____    ______ ____
ROOT
ATOM      1  P   UNL     1      -1.895   5.694  -3.197  0.00  0.00    +0.222 P 
ATOM      2  O   UNL     1      -2.253   7.238  -2.618  0.00  0.00    -0.350 OA
ATOM      3  O   UNL     1      -2.213   5.601  -4.844  0.00  0.00    -0.350 OA
ATOM      4  O   UNL     1      -2.814   4.733  -2.476  0.00  0.00    -0.449 OA
ENDROOT
BRANCH   1   6
ATOM      5  O   UNL     1       0.584   5.204  -3.848  0.00  0.00    -0.238 OA
ATOM      6  C   UNL     1      -0.180   5.272  -2.859  0.00  0.00    +0.411 C 
ATOM      7  O   UNL     1       0.094   4.642  -1.641  0.00  0.00    -0.238 OA
ENDBRANCH   1   6
TORSDOF 1
ENDMDL
MODEL 4
REMARK VINA RESULT:      -3.5      1.294      2.488
REMARK  Name = 
REMARK  1 active torsions:
REMARK  status: ('A' for Active; 'I' for Inactive)
REMARK    1  A    between atoms: C_2  and  P_4
REMARK                            x       y       z     vdW  Elec       q    Type
REMARK                         _______ _______ _______ _____ _____    ______ ____
ROOT
ATOM      1  P   UNL     1       6.245   6.461 -11.289  0.00  0.00    +0.222 P 
ATOM      2  O   UNL     1       4.601   6.464 -10.908  0.00  0.00    -0.350 OA
ATOM      3  O   UNL     1       7.157   6.084  -9.929  0.00  0.00    -0.350 OA
ATOM      4  O   UNL     1       6.595   7.865 -11.727  0.00  0.00    -0.449 OA
ENDROOT
BRANCH   1   6
ATOM      5  O   UNL     1       5.597   4.884 -13.265  0.00  0.00    -0.238 OA
ATOM      6  C   UNL     1       6.585   5.300 -12.620  0.00  0.00    +0.411 C 
ATOM      7  O   UNL     1       7.807   4.621 -12.576  0.00  0.00    -0.238 OA
ENDBRANCH   1   6
TORSDOF 1
ENDMDL
MODEL 5
REMARK VINA RESULT:      -3.4      1.534      2.980
REMARK  Name = 
REMARK  1 active torsions:
REMARK  status: ('A' for Active; 'I' for Inactive)
REMARK    1  A    between atoms: C_2  and  P_4
REMARK                            x       y       z     vdW  Elec       q    Type
REMARK                         _______ _______ _______ _____ _____    ______ ____
ROOT
ATOM      1  P   UNL     1       7.802   5.868 -11.846  0.00  0.00    +0.222 P 
ATOM      2  O   UNL     1       7.706   5.447 -10.215  0.00  0.00    -0.350 OA
ATOM      3  O   UNL     1       7.532   4.521 -12.812  0.00  0.00    -0.350 OA
ATOM      4  O   UNL     1       9.211   6.358 -12.089  0.00  0.00    -0.449 OA
ENDROOT
BRANCH   1   6
ATOM      5  O   UNL     1       6.227   7.229 -13.420  0.00  0.00    -0.238 OA
ATOM      6  C   UNL     1       6.624   7.170 -12.234  0.00  0.00    +0.411 C 
ATOM      7  O   UNL     1       6.561   8.256 -11.356  0.00  0.00    -0.238 OA
ENDBRANCH   1   6
TORSDOF 1
ENDMDL
MODEL 6
REMARK VINA RESULT:      -3.4     11.478     12.785
REMARK  Name = 
REMARK  1 active torsions:
REMARK  status: ('A' for Active; 'I' for Inactive)
REMARK    1  A    between atoms: C_2  and  P_4
REMARK                            x       y       z     vdW  Elec       q    Type
REMARK                         _______ _______ _______ _____ _____    ______ ____
ROOT
ATOM      1  P   UNL     1      -2.008   6.649  -4.296  0.00  0.00    +0.222 P 
ATOM      2  O   UNL     1      -1.982   8.326  -4.108  0.00  0.00    -0.350 OA
ATOM      3  O   UNL     1      -0.455   6.023  -4.161  0.00  0.00    -0.350 OA
ATOM      4  O   UNL     1      -2.516   6.373  -5.693  0.00  0.00    -0.449 OA
ENDROOT
BRANCH   1   6
ATOM      5  O   UNL     1      -3.839   6.669  -2.437  0.00  0.00    -0.238 OA
ATOM      6  C   UNL     1      -3.102   5.893  -3.085  0.00  0.00    +0.411 C 
ATOM      7  O   UNL     1      -2.771   4.608  -2.642  0.00  0.00    -0.238 OA
ENDBRANCH   1   6
TORSDOF 1
ENDMDL
MODEL 7
REMARK VINA RESULT:      -3.4      1.868      3.372
REMARK  Name = 
REMARK  1 active torsions:
REMARK  status: ('A' for Active; 'I' for Inactive)
REMARK    1  A    between atoms: C_2  and  P_4
REMARK                            x       y       z     vdW  Elec       q    Type
REMARK                         _______ _______ _______ _____ _____    ______ ____
ROOT
ATOM      1  P   UNL     1       6.664   5.653 -13.059  0.00  0.00    +0.222 P 
ATOM      2  O   UNL     1       7.130   6.551 -14.410  0.00  0.00    -0.350 OA
ATOM      3  O   UNL     1       7.876   4.571 -12.632  0.00  0.00    -0.350 OA
ATOM      4  O   UNL     1       5.437   4.866 -13.459  0.00  0.00    -0.449 OA
ENDROOT
BRANCH   1   6
ATOM      5  O   UNL     1       6.441   7.965 -11.869  0.00  0.00    -0.238 OA
ATOM      6  C   UNL     1       6.273   6.740 -11.680  0.00  0.00    +0.411 C 
ATOM      7  O   UNL     1       6.234   6.165 -10.406  0.00  0.00    -0.238 OA
ENDBRANCH   1   6
TORSDOF 1
ENDMDL
MODEL 8
REMARK VINA RESULT:      -3.4     10.998     12.104
REMARK  Name = 
REMARK  1 active torsions:
REMARK  status: ('A' for Active; 'I' for Inactive)
REMARK    1  A    between atoms: C_2  and  P_4
REMARK                            x       y       z     vdW  Elec       q    Type
REMARK                         _______ _______ _______ _____ _____    ______ ____
ROOT
ATOM      1  P   UNL     1      -1.651   5.713  -3.223  0.00  0.00    +0.222 P 
ATOM      2  O   UNL     1      -1.768   5.591  -4.902  0.00  0.00    -0.350 OA
ATOM      3  O   UNL     1      -2.774   4.704  -2.486  0.00  0.00    -0.350 OA
ATOM      4  O   UNL     1      -1.984   7.144  -2.864  0.00  0.00    -0.449 OA
ENDROOT
BRANCH   1   6
ATOM      5  O   UNL     1       0.109   4.592  -1.655  0.00  0.00    -0.238 OA
ATOM      6  C   UNL     1       0.014   5.314  -2.673  0.00  0.00    +0.411 C 
ATOM      7  O   UNL     1       1.048   6.146  -3.115  0.00  0.00    -0.238 OA
ENDBRANCH   1   6
TORSDOF 1
ENDMDL
MODEL 9
REMARK VINA RESULT:      -3.4     10.927     12.113
REMARK  Name = 
REMARK  1 active torsions:
REMARK  status: ('A' for Active; 'I' for Inactive)
REMARK    1  A    between atoms: C_2  and  P_4
REMARK                            x       y       z     vdW  Elec       q    Type
REMARK                         _______ _______ _______ _____ _____    ______ ____
ROOT
ATOM      1  P   UNL     1      -1.287   6.481  -4.070  0.00  0.00    +0.222 P 
ATOM      2  O   UNL     1      -1.806   5.813  -5.530  0.00  0.00    -0.350 OA
ATOM      3  O   UNL     1      -2.009   7.979  -3.827  0.00  0.00    -0.350 OA
ATOM      4  O   UNL     1       0.206   6.682  -4.186  0.00  0.00    -0.449 OA
ENDROOT
BRANCH   1   6
ATOM      5  O   UNL     1      -0.677   4.977  -2.027  0.00  0.00    -0.238 OA
ATOM      6  C   UNL     1      -1.653   5.374  -2.701  0.00  0.00    +0.411 C 
ATOM      7  O   UNL     1      -2.879   4.701  -2.735  0.00  0.00    -0.238 OA
ENDBRANCH   1   6
TORSDOF 1
ENDMDL
