MODEL 1
REMARK VINA RESULT:      -9.8      0.000      0.000
REMARK  Name = 
REMARK  3 active torsions:
REMARK  status: ('A' for Active; 'I' for Inactive)
REMARK    1  A    between atoms: C_6  and  C_7
REMARK    2  A    between atoms: C_7  and  C_8
REMARK    3  A    between atoms: C_8  and  N_9
REMARK                            x       y       z     vdW  Elec       q    Type
REMARK                         _______ _______ _______ _____ _____    ______ ____
ROOT
ATOM      1  N   UNL     1       3.170   5.219  -6.404  0.00  0.00    -0.269 NA
ATOM      2  C   UNL     1       3.110   6.170  -5.315  0.00  0.00    +0.094 C 
ATOM      3  C   UNL     1       1.774   6.899  -5.424  0.00  0.00    +0.110 C 
ATOM      4  N   UNL     1       0.766   5.922  -5.017  0.00  0.00    -0.290 N 
ATOM      5  C   UNL     1       0.385   5.879  -3.633  0.00  0.00    +0.140 A 
ATOM      6  C   UNL     1      -0.934   5.763  -3.212  0.00  0.00    +0.040 A 
ATOM      7  C   UNL     1      -1.064   6.244  -1.913  0.00  0.00    +0.050 A 
ATOM      8  C   UNL     1      -2.312   6.623  -1.432  0.00  0.00    +0.008 A 
ATOM      9  C   UNL     1      -3.463   6.508  -2.201  0.00  0.00    +0.001 A 
ATOM     10  C   UNL     1      -3.338   5.735  -3.348  0.00  0.00    +0.000 A 
ATOM     11  S   UNL     1       0.471   5.816  -1.272  0.00  0.00    +0.014 S 
ATOM     12  C   UNL     1      -2.103   5.628  -3.953  0.00  0.00    +0.003 A 
ATOM     13  N   UNL     1       1.226   5.340  -2.715  0.00  0.00    -0.194 NA
ATOM     14  C   UNL     1       0.902   4.616  -5.657  0.00  0.00    +0.110 C 
ATOM     15  C   UNL     1       1.875   4.725  -6.797  0.00  0.00    +0.094 C 
ENDROOT
BRANCH   1  16
ATOM     16  C   UNL     1       3.874   5.859  -7.505  0.00  0.00    +0.077 C 
BRANCH  16  17
ATOM     17  C   UNL     1       2.947   6.577  -8.445  0.00  0.00    +0.045 C 
BRANCH  17  24
ATOM     18  O   UNL     1       7.772   4.719 -13.302  0.00  0.00    -0.273 OA
ATOM     19  C   UNL     1       6.849   5.429 -12.811  0.00  0.00    +0.250 C 
ATOM     20  N   UNL     1       5.541   5.668 -13.342  0.00  0.00    -0.179 NA
ATOM     21  C   UNL     1       4.664   5.904 -12.249  0.00  0.00    +0.071 A 
ATOM     22  C   UNL     1       5.443   6.302 -11.169  0.00  0.00    +0.002 A 
ATOM     23  C   UNL     1       4.838   6.727  -9.998  0.00  0.00    -0.006 A 
ATOM     24  C   UNL     1       3.467   6.570  -9.843  0.00  0.00    -0.010 A 
ATOM     25  C   UNL     1       2.706   5.978 -10.838  0.00  0.00    +0.055 A 
ATOM     26 CL   UNL     1       1.243   5.074 -10.490  0.00  0.00    -0.083 Cl
ATOM     27  C   UNL     1       3.292   5.757 -12.078  0.00  0.00    +0.027 A 
ATOM     28  C   UNL     1       6.890   6.225 -11.546  0.00  0.00    +0.115 C 
ENDBRANCH  17  24
ENDBRANCH  16  17
ENDBRANCH   1  16
TORSDOF 3
ENDMDL
MODEL 2
REMARK VINA RESULT:      -9.8      4.268      9.804
REMARK  Name = 
REMARK  3 active torsions:
REMARK  status: ('A' for Active; 'I' for Inactive)
REMARK    1  A    between atoms: C_6  and  C_7
REMARK    2  A    between atoms: C_7  and  C_8
REMARK    3  A    between atoms: C_8  and  N_9
REMARK                            x       y       z     vdW  Elec       q    Type
REMARK                         _______ _______ _______ _____ _____    ______ ____
ROOT
ATOM      1  N   UNL     1       1.104   5.623  -7.271  0.00  0.00    -0.269 NA
ATOM      2  C   UNL     1       1.286   6.533  -8.382  0.00  0.00    +0.094 C 
ATOM      3  C   UNL     1       2.650   7.192  -8.208  0.00  0.00    +0.110 C 
ATOM      4  N   UNL     1       3.626   6.149  -8.519  0.00  0.00    -0.290 N 
ATOM      5  C   UNL     1       4.091   6.040  -9.873  0.00  0.00    +0.140 A 
ATOM      6  C   UNL     1       5.425   5.839 -10.204  0.00  0.00    +0.040 A 
ATOM      7  C   UNL     1       5.664   6.269 -11.505  0.00  0.00    +0.050 A 
ATOM      8  C   UNL     1       6.959   6.564 -11.916  0.00  0.00    +0.008 A 
ATOM      9  C   UNL     1       8.051   6.413 -11.070  0.00  0.00    +0.001 A 
ATOM     10  C   UNL     1       7.810   5.686  -9.911  0.00  0.00    +0.000 A 
ATOM     11  S   UNL     1       4.151   5.903 -12.232  0.00  0.00    +0.014 S 
ATOM     12  C   UNL     1       6.536   5.666  -9.385  0.00  0.00    +0.003 A 
ATOM     13  N   UNL     1       3.280   5.516 -10.827  0.00  0.00    -0.194 NA
ATOM     14  C   UNL     1       3.377   4.874  -7.850  0.00  0.00    +0.110 C 
ATOM     15  C   UNL     1       2.341   5.074  -6.780  0.00  0.00    +0.094 C 
ENDROOT
BRANCH   1  16
ATOM     16  C   UNL     1       0.369   6.336  -6.237  0.00  0.00    +0.077 C 
BRANCH  16  17
ATOM     17  C   UNL     1      -0.903   5.637  -5.846  0.00  0.00    +0.045 C 
BRANCH  17  24
ATOM     18  O   UNL     1       1.176   6.931   0.812  0.00  0.00    -0.273 OA
ATOM     19  C   UNL     1       0.433   6.444  -0.086  0.00  0.00    +0.250 C 
ATOM     20  N   UNL     1      -0.949   6.724  -0.337  0.00  0.00    -0.179 NA
ATOM     21  C   UNL     1      -1.187   6.540  -1.726  0.00  0.00    +0.071 A 
ATOM     22  C   UNL     1      -0.182   5.712  -2.212  0.00  0.00    +0.002 A 
ATOM     23  C   UNL     1      -0.235   5.254  -3.518  0.00  0.00    -0.006 A 
ATOM     24  C   UNL     1      -1.182   5.778  -4.388  0.00  0.00    -0.010 A 
ATOM     25  C   UNL     1      -2.059   6.764  -3.965  0.00  0.00    +0.055 A 
ATOM     26 CL   UNL     1      -2.712   7.972  -5.058  0.00  0.00    -0.083 Cl
ATOM     27  C   UNL     1      -2.130   7.052  -2.608  0.00  0.00    +0.027 A 
ATOM     28  C   UNL     1       0.801   5.428  -1.120  0.00  0.00    +0.115 C 
ENDBRANCH  17  24
ENDBRANCH  16  17
ENDBRANCH   1  16
TORSDOF 3
ENDMDL
MODEL 3
REMARK VINA RESULT:      -9.8      4.266      9.975
REMARK  Name = 
REMARK  3 active torsions:
REMARK  status: ('A' for Active; 'I' for Inactive)
REMARK    1  A    between atoms: C_6  and  C_7
REMARK    2  A    between atoms: C_7  and  C_8
REMARK    3  A    between atoms: C_8  and  N_9
REMARK                            x       y       z     vdW  Elec       q    Type
REMARK                         _______ _______ _______ _____ _____    ______ ____
ROOT
ATOM      1  N   UNL     1       2.425   5.689  -7.364  0.00  0.00    -0.269 NA
ATOM      2  C   UNL     1       3.498   4.735  -7.546  0.00  0.00    +0.094 C 
ATOM      3  C   UNL     1       3.472   4.298  -9.007  0.00  0.00    +0.110 C 
ATOM      4  N   UNL     1       3.969   5.448  -9.763  0.00  0.00    -0.290 N 
ATOM      5  C   UNL     1       5.376   5.522 -10.034  0.00  0.00    +0.140 A 
ATOM      6  C   UNL     1       5.894   5.891 -11.269  0.00  0.00    +0.040 A 
ATOM      7  C   UNL     1       7.190   5.405 -11.409  0.00  0.00    +0.050 A 
ATOM      8  C   UNL     1       7.753   5.273 -12.673  0.00  0.00    +0.008 A 
ATOM      9  C   UNL     1       7.070   5.646 -13.825  0.00  0.00    +0.001 A 
ATOM     10  C   UNL     1       5.932   6.415 -13.619  0.00  0.00    +0.000 A 
ATOM     11  S   UNL     1       7.726   5.489  -9.779  0.00  0.00    +0.014 S 
ATOM     12  C   UNL     1       5.242   6.286 -12.432  0.00  0.00    +0.003 A 
ATOM     13  N   UNL     1       6.241   5.848  -9.040  0.00  0.00    -0.194 NA
ATOM     14  C   UNL     1       3.344   6.718  -9.404  0.00  0.00    +0.110 C 
ATOM     15  C   UNL     1       2.135   6.450  -8.552  0.00  0.00    +0.094 C 
ENDROOT
BRANCH   1  16
ATOM     16  C   UNL     1       1.264   4.956  -6.882  0.00  0.00    +0.077 C 
BRANCH  16  17
ATOM     17  C   UNL     1       0.093   5.852  -6.593  0.00  0.00    +0.045 C 
BRANCH  17  24
ATOM     18  O   UNL     1      -1.396   6.473   0.315  0.00  0.00    -0.273 OA
ATOM     19  C   UNL     1      -1.300   5.869  -0.790  0.00  0.00    +0.250 C 
ATOM     20  N   UNL     1      -2.347   5.278  -1.568  0.00  0.00    -0.179 NA
ATOM     21  C   UNL     1      -1.960   5.334  -2.934  0.00  0.00    +0.071 A 
ATOM     22  C   UNL     1      -0.578   5.464  -2.970  0.00  0.00    +0.002 A 
ATOM     23  C   UNL     1       0.092   5.412  -4.181  0.00  0.00    -0.006 A 
ATOM     24  C   UNL     1      -0.635   5.425  -5.364  0.00  0.00    -0.010 A 
ATOM     25  C   UNL     1      -2.018   5.507  -5.342  0.00  0.00    +0.055 A 
ATOM     26 CL   UNL     1      -2.935   6.266  -6.631  0.00  0.00    -0.083 Cl
ATOM     27  C   UNL     1      -2.673   5.343  -4.128  0.00  0.00    +0.027 A 
ATOM     28  C   UNL     1      -0.055   5.597  -1.573  0.00  0.00    +0.115 C 
ENDBRANCH  17  24
ENDBRANCH  16  17
ENDBRANCH   1  16
TORSDOF 3
ENDMDL
MODEL 4
REMARK VINA RESULT:      -9.6      1.778      2.238
REMARK  Name = 
REMARK  3 active torsions:
REMARK  status: ('A' for Active; 'I' for Inactive)
REMARK    1  A    between atoms: C_6  and  C_7
REMARK    2  A    between atoms: C_7  and  C_8
REMARK    3  A    between atoms: C_8  and  N_9
REMARK                            x       y       z     vdW  Elec       q    Type
REMARK                         _______ _______ _______ _____ _____    ______ ____
ROOT
ATOM      1  N   UNL     1       3.001   5.352  -6.978  0.00  0.00    -0.269 NA
ATOM      2  C   UNL     1       2.952   6.356  -5.937  0.00  0.00    +0.094 C 
ATOM      3  C   UNL     1       1.556   6.969  -5.965  0.00  0.00    +0.110 C 
ATOM      4  N   UNL     1       0.671   5.938  -5.423  0.00  0.00    -0.290 N 
ATOM      5  C   UNL     1       0.411   5.945  -4.011  0.00  0.00    +0.140 A 
ATOM      6  C   UNL     1      -0.854   5.749  -3.470  0.00  0.00    +0.040 A 
ATOM      7  C   UNL     1      -0.915   6.291  -2.191  0.00  0.00    +0.050 A 
ATOM      8  C   UNL     1      -2.147   6.596  -1.622  0.00  0.00    +0.008 A 
ATOM      9  C   UNL     1      -3.344   6.346  -2.281  0.00  0.00    +0.001 A 
ATOM     10  C   UNL     1      -3.250   5.521  -3.394  0.00  0.00    +0.000 A 
ATOM     11  S   UNL     1       0.698   6.024  -1.666  0.00  0.00    +0.014 S 
ATOM     12  C   UNL     1      -2.065   5.479  -4.099  0.00  0.00    +0.003 A 
ATOM     13  N   UNL     1       1.368   5.527  -3.144  0.00  0.00    -0.194 NA
ATOM     14  C   UNL     1       0.863   4.613  -6.006  0.00  0.00    +0.110 C 
ATOM     15  C   UNL     1       1.725   4.735  -7.231  0.00  0.00    +0.094 C 
ENDROOT
BRANCH   1  16
ATOM     16  C   UNL     1       3.555   5.981  -8.168  0.00  0.00    +0.077 C 
BRANCH  16  17
ATOM     17  C   UNL     1       5.014   5.676  -8.358  0.00  0.00    +0.045 C 
BRANCH  17  24
ATOM     18  O   UNL     1       4.016   6.502 -15.333  0.00  0.00    -0.273 OA
ATOM     19  C   UNL     1       4.360   5.884 -14.286  0.00  0.00    +0.250 C 
ATOM     20  N   UNL     1       5.662   5.406 -13.930  0.00  0.00    -0.179 NA
ATOM     21  C   UNL     1       5.755   5.411 -12.512  0.00  0.00    +0.071 A 
ATOM     22  C   UNL     1       4.459   5.388 -12.010  0.00  0.00    +0.002 A 
ATOM     23  C   UNL     1       4.246   5.254 -10.648  0.00  0.00    -0.006 A 
ATOM     24  C   UNL     1       5.325   5.339  -9.777  0.00  0.00    -0.010 A 
ATOM     25  C   UNL     1       6.603   5.573 -10.257  0.00  0.00    +0.055 A 
ATOM     26 CL   UNL     1       7.819   6.420  -9.317  0.00  0.00    -0.083 Cl
ATOM     27  C   UNL     1       6.823   5.491 -11.626  0.00  0.00    +0.027 A 
ATOM     28  C   UNL     1       3.486   5.471 -13.144  0.00  0.00    +0.115 C 
ENDBRANCH  17  24
ENDBRANCH  16  17
ENDBRANCH   1  16
TORSDOF 3
ENDMDL
MODEL 5
REMARK VINA RESULT:      -9.6      4.286     10.018
REMARK  Name = 
REMARK  3 active torsions:
REMARK  status: ('A' for Active; 'I' for Inactive)
REMARK    1  A    between atoms: C_6  and  C_7
REMARK    2  A    between atoms: C_7  and  C_8
REMARK    3  A    between atoms: C_8  and  N_9
REMARK                            x       y       z     vdW  Elec       q    Type
REMARK                         _______ _______ _______ _____ _____    ______ ____
ROOT
ATOM      1  N   UNL     1       2.181   5.765  -8.555  0.00  0.00    -0.269 NA
ATOM      2  C   UNL     1       2.309   6.559  -9.758  0.00  0.00    +0.094 C 
ATOM      3  C   UNL     1       3.694   7.197  -9.735  0.00  0.00    +0.110 C 
ATOM      4  N   UNL     1       4.627   6.104 -10.003  0.00  0.00    -0.290 N 
ATOM      5  C   UNL     1       5.002   5.853 -11.366  0.00  0.00    +0.140 A 
ATOM      6  C   UNL     1       6.308   5.588 -11.758  0.00  0.00    +0.040 A 
ATOM      7  C   UNL     1       6.470   5.884 -13.108  0.00  0.00    +0.050 A 
ATOM      8  C   UNL     1       7.742   6.105 -13.624  0.00  0.00    +0.008 A 
ATOM      9  C   UNL     1       8.883   6.008 -12.837  0.00  0.00    +0.001 A 
ATOM     10  C   UNL     1       8.703   5.403 -11.601  0.00  0.00    +0.000 A 
ATOM     11  S   UNL     1       4.907   5.489 -13.700  0.00  0.00    +0.014 S 
ATOM     12  C   UNL     1       7.465   5.466 -10.997  0.00  0.00    +0.003 A 
ATOM     13  N   UNL     1       4.121   5.261 -12.212  0.00  0.00    -0.194 NA
ATOM     14  C   UNL     1       4.397   4.906  -9.199  0.00  0.00    +0.110 C 
ATOM     15  C   UNL     1       3.437   5.234  -8.091  0.00  0.00    +0.094 C 
ENDROOT
BRANCH   1  16
ATOM     16  C   UNL     1       1.528   6.592  -7.552  0.00  0.00    +0.077 C 
BRANCH  16  17
ATOM     17  C   UNL     1       2.431   6.923  -6.398  0.00  0.00    +0.045 C 
BRANCH  17  24
ATOM     18  O   UNL     1      -3.070   4.706  -2.506  0.00  0.00    -0.273 OA
ATOM     19  C   UNL     1      -2.044   5.399  -2.755  0.00  0.00    +0.250 C 
ATOM     20  N   UNL     1      -0.795   5.413  -2.056  0.00  0.00    -0.179 NA
ATOM     21  C   UNL     1       0.223   5.754  -2.987  0.00  0.00    +0.071 A 
ATOM     22  C   UNL     1      -0.389   6.410  -4.048  0.00  0.00    +0.002 A 
ATOM     23  C   UNL     1       0.383   6.976  -5.050  0.00  0.00    -0.006 A 
ATOM     24  C   UNL     1       1.747   6.718  -5.088  0.00  0.00    -0.010 A 
ATOM     25  C   UNL     1       2.336   5.888  -4.147  0.00  0.00    +0.055 A 
ATOM     26 CL   UNL     1       3.758   4.924  -4.504  0.00  0.00    -0.083 Cl
ATOM     27  C   UNL     1       1.590   5.508  -3.039  0.00  0.00    +0.027 A 
ATOM     28  C   UNL     1      -1.872   6.408  -3.846  0.00  0.00    +0.115 C 
ENDBRANCH  17  24
ENDBRANCH  16  17
ENDBRANCH   1  16
TORSDOF 3
ENDMDL
MODEL 6
REMARK VINA RESULT:      -9.5      1.636      2.153
REMARK  Name = 
REMARK  3 active torsions:
REMARK  status: ('A' for Active; 'I' for Inactive)
REMARK    1  A    between atoms: C_6  and  C_7
REMARK    2  A    between atoms: C_7  and  C_8
REMARK    3  A    between atoms: C_8  and  N_9
REMARK                            x       y       z     vdW  Elec       q    Type
REMARK                         _______ _______ _______ _____ _____    ______ ____
ROOT
ATOM      1  N   UNL     1       2.580   5.418  -7.069  0.00  0.00    -0.269 NA
ATOM      2  C   UNL     1       1.136   5.433  -7.159  0.00  0.00    +0.094 C 
ATOM      3  C   UNL     1       0.601   4.608  -5.993  0.00  0.00    +0.110 C 
ATOM      4  N   UNL     1       0.830   5.427  -4.804  0.00  0.00    -0.290 N 
ATOM      5  C   UNL     1      -0.218   6.311  -4.379  0.00  0.00    +0.140 A 
ATOM      6  C   UNL     1      -0.596   6.458  -3.050  0.00  0.00    +0.040 A 
ATOM      7  C   UNL     1      -1.897   6.944  -2.975  0.00  0.00    +0.050 A 
ATOM      8  C   UNL     1      -2.636   6.780  -1.808  0.00  0.00    +0.008 A 
ATOM      9  C   UNL     1      -2.104   6.166  -0.680  0.00  0.00    +0.001 A 
ATOM     10  C   UNL     1      -0.726   5.994  -0.691  0.00  0.00    +0.000 A 
ATOM     11  S   UNL     1      -1.938   7.933  -4.378  0.00  0.00    +0.014 S 
ATOM     12  C   UNL     1      -0.075   5.875  -1.900  0.00  0.00    +0.003 A 
ATOM     13  N   UNL     1      -0.466   7.451  -5.072  0.00  0.00    -0.194 NA
ATOM     14  C   UNL     1       2.178   5.982  -4.706  0.00  0.00    +0.110 C 
ATOM     15  C   UNL     1       3.062   5.307  -5.717  0.00  0.00    +0.094 C 
ENDROOT
BRANCH   1  16
ATOM     16  C   UNL     1       3.061   4.337  -7.916  0.00  0.00    +0.077 C 
BRANCH  16  17
ATOM     17  C   UNL     1       2.806   4.590  -9.375  0.00  0.00    +0.045 C 
BRANCH  17  24
ATOM     18  O   UNL     1       9.299   5.790 -11.969  0.00  0.00    -0.273 OA
ATOM     19  C   UNL     1       8.203   6.103 -11.425  0.00  0.00    +0.250 C 
ATOM     20  N   UNL     1       7.199   7.000 -11.911  0.00  0.00    -0.179 NA
ATOM     21  C   UNL     1       5.943   6.564 -11.409  0.00  0.00    +0.071 A 
ATOM     22  C   UNL     1       6.193   5.784 -10.286  0.00  0.00    +0.002 A 
ATOM     23  C   UNL     1       5.140   5.329  -9.511  0.00  0.00    -0.006 A 
ATOM     24  C   UNL     1       3.838   5.491  -9.966  0.00  0.00    -0.010 A 
ATOM     25  C   UNL     1       3.587   6.084 -11.192  0.00  0.00    +0.055 A 
ATOM     26 CL   UNL     1       2.185   5.675 -12.165  0.00  0.00    -0.083 Cl
ATOM     27  C   UNL     1       4.634   6.719 -11.848  0.00  0.00    +0.027 A 
ATOM     28  C   UNL     1       7.671   5.627 -10.110  0.00  0.00    +0.115 C 
ENDBRANCH  17  24
ENDBRANCH  16  17
ENDBRANCH   1  16
TORSDOF 3
ENDMDL
MODEL 7
REMARK VINA RESULT:      -9.3      2.338      3.149
REMARK  Name = 
REMARK  3 active torsions:
REMARK  status: ('A' for Active; 'I' for Inactive)
REMARK    1  A    between atoms: C_6  and  C_7
REMARK    2  A    between atoms: C_7  and  C_8
REMARK    3  A    between atoms: C_8  and  N_9
REMARK                            x       y       z     vdW  Elec       q    Type
REMARK                         _______ _______ _______ _____ _____    ______ ____
ROOT
ATOM      1  N   UNL     1       3.080   5.593  -8.057  0.00  0.00    -0.269 NA
ATOM      2  C   UNL     1       1.953   4.687  -8.001  0.00  0.00    +0.094 C 
ATOM      3  C   UNL     1       1.825   4.213  -6.557  0.00  0.00    +0.110 C 
ATOM      4  N   UNL     1       1.314   5.365  -5.816  0.00  0.00    -0.290 N 
ATOM      5  C   UNL     1      -0.108   5.499  -5.671  0.00  0.00    +0.140 A 
ATOM      6  C   UNL     1      -0.720   5.861  -4.478  0.00  0.00    +0.040 A 
ATOM      7  C   UNL     1      -2.043   5.433  -4.471  0.00  0.00    +0.050 A 
ATOM      8  C   UNL     1      -2.725   5.297  -3.267  0.00  0.00    +0.008 A 
ATOM      9  C   UNL     1      -2.136   5.608  -2.047  0.00  0.00    +0.001 A 
ATOM     10  C   UNL     1      -0.950   6.327  -2.126  0.00  0.00    +0.000 A 
ATOM     11  S   UNL     1      -2.424   5.584  -6.138  0.00  0.00    +0.014 S 
ATOM     12  C   UNL     1      -0.160   6.195  -3.249  0.00  0.00    +0.003 A 
ATOM     13  N   UNL     1      -0.862   5.891  -6.730  0.00  0.00    -0.194 NA
ATOM     14  C   UNL     1       2.025   6.613  -6.080  0.00  0.00    +0.110 C 
ATOM     15  C   UNL     1       3.294   6.309  -6.826  0.00  0.00    +0.094 C 
ENDROOT
BRANCH   1  16
ATOM     16  C   UNL     1       4.246   4.818  -8.453  0.00  0.00    +0.077 C 
BRANCH  16  17
ATOM     17  C   UNL     1       5.399   5.683  -8.877  0.00  0.00    +0.045 C 
BRANCH  17  24
ATOM     18  O   UNL     1       3.769   6.799 -15.691  0.00  0.00    -0.273 OA
ATOM     19  C   UNL     1       4.318   6.199 -14.724  0.00  0.00    +0.250 C 
ATOM     20  N   UNL     1       5.716   6.018 -14.474  0.00  0.00    -0.179 NA
ATOM     21  C   UNL     1       5.901   5.932 -13.068  0.00  0.00    +0.071 A 
ATOM     22  C   UNL     1       4.683   5.562 -12.511  0.00  0.00    +0.002 A 
ATOM     23  C   UNL     1       4.598   5.275 -11.159  0.00  0.00    -0.006 A 
ATOM     24  C   UNL     1       5.684   5.544 -10.335  0.00  0.00    -0.010 A 
ATOM     25  C   UNL     1       6.837   6.112 -10.850  0.00  0.00    +0.055 A 
ATOM     26 CL   UNL     1       7.884   7.146  -9.893  0.00  0.00    -0.083 Cl
ATOM     27  C   UNL     1       6.978   6.193 -12.230  0.00  0.00    +0.027 A 
ATOM     28  C   UNL     1       3.643   5.502 -13.586  0.00  0.00    +0.115 C 
ENDBRANCH  17  24
ENDBRANCH  16  17
ENDBRANCH   1  16
TORSDOF 3
ENDMDL
MODEL 8
REMARK VINA RESULT:      -9.2      2.236      3.262
REMARK  Name = 
REMARK  3 active torsions:
REMARK  status: ('A' for Active; 'I' for Inactive)
REMARK    1  A    between atoms: C_6  and  C_7
REMARK    2  A    between atoms: C_7  and  C_8
REMARK    3  A    between atoms: C_8  and  N_9
REMARK                            x       y       z     vdW  Elec       q    Type
REMARK                         _______ _______ _______ _____ _____    ______ ____
ROOT
ATOM      1  N   UNL     1       1.286   6.107  -8.592  0.00  0.00    -0.269 NA
ATOM      2  C   UNL     1       0.596   5.232  -7.668  0.00  0.00    +0.094 C 
ATOM      3  C   UNL     1       1.660   4.519  -6.840  0.00  0.00    +0.110 C 
ATOM      4  N   UNL     1       2.194   5.538  -5.938  0.00  0.00    -0.290 N 
ATOM      5  C   UNL     1       1.589   5.680  -4.643  0.00  0.00    +0.140 A 
ATOM      6  C   UNL     1       2.323   5.845  -3.475  0.00  0.00    +0.040 A 
ATOM      7  C   UNL     1       1.565   5.455  -2.376  0.00  0.00    +0.050 A 
ATOM      8  C   UNL     1       2.191   5.129  -1.178  0.00  0.00    +0.008 A 
ATOM      9  C   UNL     1       3.569   5.211  -1.022  0.00  0.00    +0.001 A 
ATOM     10  C   UNL     1       4.241   5.903  -2.021  0.00  0.00    +0.000 A 
ATOM     11  S   UNL     1      -0.005   5.900  -2.912  0.00  0.00    +0.014 S 
ATOM     12  C   UNL     1       3.697   5.949  -3.288  0.00  0.00    +0.003 A 
ATOM     13  N   UNL     1       0.371   6.266  -4.526  0.00  0.00    -0.194 NA
ATOM     14  C   UNL     1       2.547   6.795  -6.592  0.00  0.00    +0.110 C 
ATOM     15  C   UNL     1       2.541   6.594  -8.081  0.00  0.00    +0.094 C 
ENDROOT
BRANCH   1  16
ATOM     16  C   UNL     1       1.445   5.383  -9.845  0.00  0.00    +0.077 C 
BRANCH  16  17
ATOM     17  C   UNL     1       1.231   6.257 -11.048  0.00  0.00    +0.045 C 
BRANCH  17  24
ATOM     18  O   UNL     1       7.952   4.547 -12.543  0.00  0.00    -0.273 OA
ATOM     19  C   UNL     1       6.878   5.200 -12.666  0.00  0.00    +0.250 C 
ATOM     20  N   UNL     1       6.024   5.290 -13.811  0.00  0.00    -0.179 NA
ATOM     21  C   UNL     1       4.698   5.512 -13.351  0.00  0.00    +0.071 A 
ATOM     22  C   UNL     1       4.787   6.042 -12.069  0.00  0.00    +0.002 A 
ATOM     23  C   UNL     1       3.645   6.481 -11.421  0.00  0.00    -0.006 A 
ATOM     24  C   UNL     1       2.400   6.213 -11.974  0.00  0.00    -0.010 A 
ATOM     25  C   UNL     1       2.291   5.496 -13.155  0.00  0.00    +0.055 A 
ATOM     26 CL   UNL     1       0.902   4.488 -13.519  0.00  0.00    -0.083 Cl
ATOM     27  C   UNL     1       3.444   5.254 -13.892  0.00  0.00    +0.027 A 
ATOM     28  C   UNL     1       6.221   6.072 -11.643  0.00  0.00    +0.115 C 
ENDBRANCH  17  24
ENDBRANCH  16  17
ENDBRANCH   1  16
TORSDOF 3
ENDMDL
MODEL 9
REMARK VINA RESULT:      -9.0      2.673      3.618
REMARK  Name = 
REMARK  3 active torsions:
REMARK  status: ('A' for Active; 'I' for Inactive)
REMARK    1  A    between atoms: C_6  and  C_7
REMARK    2  A    between atoms: C_7  and  C_8
REMARK    3  A    between atoms: C_8  and  N_9
REMARK                            x       y       z     vdW  Elec       q    Type
REMARK                         _______ _______ _______ _____ _____    ______ ____
ROOT
ATOM      1  N   UNL     1       4.595   4.744  -8.262  0.00  0.00    -0.269 NA
ATOM      2  C   UNL     1       4.375   5.896  -7.414  0.00  0.00    +0.094 C 
ATOM      3  C   UNL     1       3.071   6.547  -7.864  0.00  0.00    +0.110 C 
ATOM      4  N   UNL     1       2.013   5.644  -7.415  0.00  0.00    -0.290 N 
ATOM      5  C   UNL     1       1.431   5.874  -6.123  0.00  0.00    +0.140 A 
ATOM      6  C   UNL     1       0.064   5.808  -5.882  0.00  0.00    +0.040 A 
ATOM      7  C   UNL     1      -0.256   6.540  -4.744  0.00  0.00    +0.050 A 
ATOM      8  C   UNL     1      -1.562   6.972  -4.538  0.00  0.00    +0.008 A 
ATOM      9  C   UNL     1      -2.586   6.668  -5.426  0.00  0.00    +0.001 A 
ATOM     10  C   UNL     1      -2.293   5.680  -6.357  0.00  0.00    +0.000 A 
ATOM     11  S   UNL     1       1.166   6.298  -3.812  0.00  0.00    +0.014 S 
ATOM     12  C   UNL     1      -0.982   5.489  -6.741  0.00  0.00    +0.003 A 
ATOM     13  N   UNL     1       2.127   5.559  -5.001  0.00  0.00    -0.194 NA
ATOM     14  C   UNL     1       2.241   4.240  -7.744  0.00  0.00    +0.110 C 
ATOM     15  C   UNL     1       3.373   4.142  -8.729  0.00  0.00    +0.094 C 
ENDROOT
BRANCH   1  16
ATOM     16  C   UNL     1       5.455   5.166  -9.358  0.00  0.00    +0.077 C 
BRANCH  16  17
ATOM     17  C   UNL     1       4.888   6.326 -10.125  0.00  0.00    +0.045 C 
BRANCH  17  24
ATOM     18  O   UNL     1       0.240   7.421 -15.372  0.00  0.00    -0.273 OA
ATOM     19  C   UNL     1       0.914   6.727 -14.560  0.00  0.00    +0.250 C 
ATOM     20  N   UNL     1       1.915   5.746 -14.855  0.00  0.00    -0.179 NA
ATOM     21  C   UNL     1       2.838   5.727 -13.774  0.00  0.00    +0.071 A 
ATOM     22  C   UNL     1       2.191   6.260 -12.666  0.00  0.00    +0.002 A 
ATOM     23  C   UNL     1       2.812   6.245 -11.428  0.00  0.00    -0.006 A 
ATOM     24  C   UNL     1       4.147   5.874 -11.339  0.00  0.00    -0.010 A 
ATOM     25  C   UNL     1       4.865   5.540 -12.476  0.00  0.00    +0.055 A 
ATOM     26 CL   UNL     1       6.595   5.802 -12.606  0.00  0.00    -0.083 Cl
ATOM     27  C   UNL     1       4.173   5.356 -13.666  0.00  0.00    +0.027 A 
ATOM     28  C   UNL     1       0.830   6.736 -13.067  0.00  0.00    +0.115 C 
ENDBRANCH  17  24
ENDBRANCH  16  17
ENDBRANCH   1  16
TORSDOF 3
ENDMDL
