MODEL 1
REMARK VINA RESULT:      -7.7      0.000      0.000
REMARK  Name = 
REMARK  4 active torsions:
REMARK  status: ('A' for Active; 'I' for Inactive)
REMARK    1  A    between atoms: CA_2  and  C_3
REMARK    2  A    between atoms: CA_2  and  C_19
REMARK    3  A    between atoms: N_5  and  CA_6
REMARK    4  A    between atoms: CA_10  and  C_11
REMARK                            x       y       z     vdW  Elec       q    Type
REMARK                         _______ _______ _______ _____ _____    ______ ____
ROOT
ATOM      1  CA  UNL     1       1.491   5.314  -6.531  0.00  0.00    +0.200 C 
ATOM      2  C   UNL     1       2.434   4.465  -5.394  0.00  0.00    +0.157 C 
ATOM      3  N   UNL     1       1.974   5.566  -4.455  0.00  0.00    -0.241 N 
ATOM      4  CA  UNL     1       2.617   5.530  -3.199  0.00  0.00    +0.142 C 
ATOM      5  C   UNL     1       3.814   4.995  -2.966  0.00  0.00    +0.066 C 
ATOM      6  C   UNL     1       4.927   5.061  -3.962  0.00  0.00    +0.098 C 
ATOM      7 CL   UNL     1       4.227   4.556  -1.314  0.00  0.00    -0.085 Cl
ATOM      8  S   UNL     1       4.174   5.222  -5.602  0.00  0.00    -0.113 S 
ATOM      9  C   UNL     1       1.658   6.544  -5.468  0.00  0.00    +0.253 C 
ATOM     10  O   UNL     1       0.626   7.297  -5.382  0.00  0.00    -0.273 OA
ENDROOT
BRANCH   1  12
ATOM     11  C   UNL     1       2.291   5.670  -8.804  0.00  0.00    +0.264 C 
ATOM     12  N   UNL     1       2.702   5.719  -7.507  0.00  0.00    -0.194 NA
ATOM     13  O   UNL     1       1.513   6.615  -9.101  0.00  0.00    -0.271 OA
BRANCH  11  15
ATOM     14  N   UNL     1       3.971   4.116  -9.145  0.00  0.00    -0.118 NA
ATOM     15  CA  UNL     1       3.313   5.296 -10.026  0.00  0.00    +0.191 C 
BRANCH  15  16
ATOM     16  C   UNL     1       4.496   6.361  -9.569  0.00  0.00    +0.004 A 
ATOM     17  C   UNL     1       4.699   7.250 -10.620  0.00  0.00    -0.002 A 
ATOM     18  C   UNL     1       5.978   7.646 -10.977  0.00  0.00    -0.000 A 
ATOM     19  C   UNL     1       7.075   6.883 -10.610  0.00  0.00    -0.000 A 
ATOM     20  C   UNL     1       6.883   5.860  -9.688  0.00  0.00    -0.000 A 
ATOM     21  C   UNL     1       5.609   5.582  -9.278  0.00  0.00    -0.002 A 
ENDBRANCH  15  16
ENDBRANCH  11  15
ENDBRANCH   1  12
BRANCH   4  22
ATOM     22  C   UNL     1       1.974   6.304  -2.127  0.00  0.00    +0.402 C 
ATOM     23  OXT UNL     1       2.579   7.506  -1.759  0.00  0.00    -0.239 OA
ATOM     24  O   UNL     1       0.707   6.344  -2.179  0.00  0.00    -0.239 OA
ENDBRANCH   4  22
TORSDOF 4
ENDMDL
MODEL 2
REMARK VINA RESULT:      -7.5      1.700      2.016
REMARK  Name = 
REMARK  4 active torsions:
REMARK  status: ('A' for Active; 'I' for Inactive)
REMARK    1  A    between atoms: CA_2  and  C_3
REMARK    2  A    between atoms: CA_2  and  C_19
REMARK    3  A    between atoms: N_5  and  CA_6
REMARK    4  A    between atoms: CA_10  and  C_11
REMARK                            x       y       z     vdW  Elec       q    Type
REMARK                         _______ _______ _______ _____ _____    ______ ____
ROOT
ATOM      1  CA  UNL     1       3.090   4.861  -5.804  0.00  0.00    +0.200 C 
ATOM      2  C   UNL     1       4.236   5.371  -4.651  0.00  0.00    +0.157 C 
ATOM      3  N   UNL     1       3.044   5.328  -3.710  0.00  0.00    -0.241 N 
ATOM      4  CA  UNL     1       3.325   5.864  -2.434  0.00  0.00    +0.142 C 
ATOM      5  C   UNL     1       4.274   6.760  -2.171  0.00  0.00    +0.066 C 
ATOM      6  C   UNL     1       4.632   7.851  -3.129  0.00  0.00    +0.098 C 
ATOM      7 CL   UNL     1       4.840   6.916  -0.513  0.00  0.00    -0.085 Cl
ATOM      8  S   UNL     1       4.194   7.273  -4.790  0.00  0.00    -0.113 S 
ATOM      9  C   UNL     1       2.017   5.442  -4.717  0.00  0.00    +0.253 C 
ATOM     10  O   UNL     1       0.930   4.771  -4.652  0.00  0.00    -0.273 OA
ENDROOT
BRANCH   1  12
ATOM     11  C   UNL     1       3.038   5.819  -8.043  0.00  0.00    +0.264 C 
ATOM     12  N   UNL     1       3.172   6.169  -6.734  0.00  0.00    -0.194 NA
ATOM     13  O   UNL     1       1.861   5.479  -8.335  0.00  0.00    -0.271 OA
BRANCH  11  15
ATOM     14  N   UNL     1       2.721   6.063 -10.322  0.00  0.00    -0.118 NA
ATOM     15  CA  UNL     1       3.762   6.661  -9.246  0.00  0.00    +0.191 C 
BRANCH  15  16
ATOM     16  C   UNL     1       4.877   5.490  -9.603  0.00  0.00    +0.004 A 
ATOM     17  C   UNL     1       6.037   5.774  -8.888  0.00  0.00    -0.002 A 
ATOM     18  C   UNL     1       7.285   5.628  -9.473  0.00  0.00    -0.000 A 
ATOM     19  C   UNL     1       7.413   5.615 -10.853  0.00  0.00    -0.000 A 
ATOM     20  C   UNL     1       6.257   5.511 -11.617  0.00  0.00    -0.000 A 
ATOM     21  C   UNL     1       5.048   5.544 -10.980  0.00  0.00    -0.002 A 
ENDBRANCH  15  16
ENDBRANCH  11  15
ENDBRANCH   1  12
BRANCH   4  22
ATOM     22  C   UNL     1       2.368   5.524  -1.372  0.00  0.00    +0.402 C 
ATOM     23  OXT UNL     1       1.045   5.933  -1.551  0.00  0.00    -0.239 OA
ATOM     24  O   UNL     1       2.498   4.361  -0.882  0.00  0.00    -0.239 OA
ENDBRANCH   4  22
TORSDOF 4
ENDMDL
MODEL 3
REMARK VINA RESULT:      -7.5      2.277      3.177
REMARK  Name = 
REMARK  4 active torsions:
REMARK  status: ('A' for Active; 'I' for Inactive)
REMARK    1  A    between atoms: CA_2  and  C_3
REMARK    2  A    between atoms: CA_2  and  C_19
REMARK    3  A    between atoms: N_5  and  CA_6
REMARK    4  A    between atoms: CA_10  and  C_11
REMARK                            x       y       z     vdW  Elec       q    Type
REMARK                         _______ _______ _______ _____ _____    ______ ____
ROOT
ATOM      1  CA  UNL     1       2.166   4.746  -9.952  0.00  0.00    +0.200 C 
ATOM      2  C   UNL     1       3.068   4.289  -8.581  0.00  0.00    +0.157 C 
ATOM      3  N   UNL     1       1.908   4.917  -7.829  0.00  0.00    -0.241 N 
ATOM      4  CA  UNL     1       2.137   5.017  -6.439  0.00  0.00    +0.142 C 
ATOM      5  C   UNL     1       3.335   5.073  -5.862  0.00  0.00    +0.066 C 
ATOM      6  C   UNL     1       4.494   5.779  -6.490  0.00  0.00    +0.098 C 
ATOM      7 CL   UNL     1       3.462   4.662  -4.156  0.00  0.00    -0.085 Cl
ATOM      8  S   UNL     1       4.213   5.786  -8.280  0.00  0.00    -0.113 S 
ATOM      9  C   UNL     1       1.435   5.760  -8.900  0.00  0.00    +0.253 C 
ATOM     10  O   UNL     1       0.187   5.930  -9.126  0.00  0.00    -0.273 OA
ENDROOT
BRANCH   1  12
ATOM     11  C   UNL     1       3.128   5.861 -11.892  0.00  0.00    +0.264 C 
ATOM     12  N   UNL     1       3.237   5.790 -10.537  0.00  0.00    -0.194 NA
ATOM     13  O   UNL     1       2.087   6.464 -12.263  0.00  0.00    -0.271 OA
BRANCH  11  15
ATOM     14  N   UNL     1       4.486   4.644 -13.318  0.00  0.00    -0.118 NA
ATOM     15  CA  UNL     1       4.414   6.186 -12.852  0.00  0.00    +0.191 C 
BRANCH  15  16
ATOM     16  C   UNL     1       5.551   5.933 -11.676  0.00  0.00    +0.004 A 
ATOM     17  C   UNL     1       6.041   7.175 -11.282  0.00  0.00    -0.002 A 
ATOM     18  C   UNL     1       7.393   7.361 -11.044  0.00  0.00    -0.000 A 
ATOM     19  C   UNL     1       8.325   6.486 -11.580  0.00  0.00    -0.000 A 
ATOM     20  C   UNL     1       7.863   5.304 -12.147  0.00  0.00    -0.000 A 
ATOM     21  C   UNL     1       6.513   5.116 -12.255  0.00  0.00    -0.002 A 
ENDBRANCH  15  16
ENDBRANCH  11  15
ENDBRANCH   1  12
BRANCH   4  22
ATOM     22  C   UNL     1       0.947   5.256  -5.609  0.00  0.00    +0.402 C 
ATOM     23  OXT UNL     1       0.744   6.556  -5.146  0.00  0.00    -0.239 OA
ATOM     24  O   UNL     1      -0.106   4.663  -5.995  0.00  0.00    -0.239 OA
ENDBRANCH   4  22
TORSDOF 4
ENDMDL
MODEL 4
REMARK VINA RESULT:      -7.4      3.236      6.991
REMARK  Name = 
REMARK  4 active torsions:
REMARK  status: ('A' for Active; 'I' for Inactive)
REMARK    1  A    between atoms: CA_2  and  C_3
REMARK    2  A    between atoms: CA_2  and  C_19
REMARK    3  A    between atoms: N_5  and  CA_6
REMARK    4  A    between atoms: CA_10  and  C_11
REMARK                            x       y       z     vdW  Elec       q    Type
REMARK                         _______ _______ _______ _____ _____    ______ ____
ROOT
ATOM      1  CA  UNL     1       2.001   5.960  -8.678  0.00  0.00    +0.200 C 
ATOM      2  C   UNL     1       3.470   6.713  -9.098  0.00  0.00    +0.157 C 
ATOM      3  N   UNL     1       3.237   6.025 -10.432  0.00  0.00    -0.241 N 
ATOM      4  CA  UNL     1       4.333   6.136 -11.314  0.00  0.00    +0.142 C 
ATOM      5  C   UNL     1       5.597   6.329 -10.944  0.00  0.00    +0.066 C 
ATOM      6  C   UNL     1       6.169   5.725  -9.701  0.00  0.00    +0.098 C 
ATOM      7 CL   UNL     1       6.728   6.968 -12.131  0.00  0.00    -0.085 Cl
ATOM      8  S   UNL     1       4.793   5.449  -8.556  0.00  0.00    -0.113 S 
ATOM      9  C   UNL     1       2.353   4.992  -9.947  0.00  0.00    +0.253 C 
ATOM     10  O   UNL     1       1.326   4.615 -10.611  0.00  0.00    -0.273 OA
ENDROOT
BRANCH   1  12
ATOM     11  C   UNL     1       1.909   5.194  -6.367  0.00  0.00    +0.264 C 
ATOM     12  N   UNL     1       2.603   5.016  -7.525  0.00  0.00    -0.194 NA
ATOM     13  O   UNL     1       0.756   4.690  -6.412  0.00  0.00    -0.271 OA
BRANCH  11  15
ATOM     14  N   UNL     1       1.193   5.263  -4.168  0.00  0.00    -0.118 NA
ATOM     15  CA  UNL     1       2.610   5.021  -4.898  0.00  0.00    +0.191 C 
BRANCH  15  16
ATOM     16  C   UNL     1       3.020   6.617  -4.735  0.00  0.00    +0.004 A 
ATOM     17  C   UNL     1       4.377   6.740  -5.018  0.00  0.00    -0.002 A 
ATOM     18  C   UNL     1       5.190   7.562  -4.254  0.00  0.00    -0.000 A 
ATOM     19  C   UNL     1       4.802   7.939  -2.979  0.00  0.00    -0.000 A 
ATOM     20  C   UNL     1       3.495   7.675  -2.586  0.00  0.00    -0.000 A 
ATOM     21  C   UNL     1       2.694   6.956  -3.428  0.00  0.00    -0.002 A 
ENDBRANCH  15  16
ENDBRANCH  11  15
ENDBRANCH   1  12
BRANCH   4  22
ATOM     22  C   UNL     1       4.053   5.835 -12.725  0.00  0.00    +0.402 C 
ATOM     23  OXT UNL     1       4.591   4.656 -13.244  0.00  0.00    -0.239 OA
ATOM     24  O   UNL     1       2.869   6.086 -13.104  0.00  0.00    -0.239 OA
ENDBRANCH   4  22
TORSDOF 4
ENDMDL
MODEL 5
REMARK VINA RESULT:      -7.4      3.209      4.480
REMARK  Name = 
REMARK  4 active torsions:
REMARK  status: ('A' for Active; 'I' for Inactive)
REMARK    1  A    between atoms: CA_2  and  C_3
REMARK    2  A    between atoms: CA_2  and  C_19
REMARK    3  A    between atoms: N_5  and  CA_6
REMARK    4  A    between atoms: CA_10  and  C_11
REMARK                            x       y       z     vdW  Elec       q    Type
REMARK                         _______ _______ _______ _____ _____    ______ ____
ROOT
ATOM      1  CA  UNL     1       1.892   6.725  -5.335  0.00  0.00    +0.200 C 
ATOM      2  C   UNL     1       0.235   7.103  -5.213  0.00  0.00    +0.157 C 
ATOM      3  N   UNL     1       0.348   6.372  -3.886  0.00  0.00    -0.241 N 
ATOM      4  CA  UNL     1      -0.900   6.168  -3.257  0.00  0.00    +0.142 C 
ATOM      5  C   UNL     1      -2.073   6.111  -3.883  0.00  0.00    +0.066 C 
ATOM      6  C   UNL     1      -2.228   5.503  -5.240  0.00  0.00    +0.098 C 
ATOM      7 CL   UNL     1      -3.535   6.386  -2.945  0.00  0.00    -0.085 Cl
ATOM      8  S   UNL     1      -0.623   5.631  -6.072  0.00  0.00    -0.113 S 
ATOM      9  C   UNL     1       1.525   5.601  -4.206  0.00  0.00    +0.253 C 
ATOM     10  O   UNL     1       2.456   5.403  -3.351  0.00  0.00    -0.273 OA
ENDROOT
BRANCH   1  12
ATOM     11  C   UNL     1       2.947   5.758  -7.305  0.00  0.00    +0.264 C 
ATOM     12  N   UNL     1       1.769   5.773  -6.623  0.00  0.00    -0.194 NA
ATOM     13  O   UNL     1       3.845   5.112  -6.704  0.00  0.00    -0.271 OA
BRANCH  11  15
ATOM     14  N   UNL     1       3.160   7.143  -9.147  0.00  0.00    -0.118 NA
ATOM     15  CA  UNL     1       3.008   5.552  -8.928  0.00  0.00    +0.191 C 
BRANCH  15  16
ATOM     16  C   UNL     1       1.370   5.629  -9.155  0.00  0.00    +0.004 A 
ATOM     17  C   UNL     1       0.979   4.480  -9.834  0.00  0.00    -0.002 A 
ATOM     18  C   UNL     1       0.042   4.542 -10.853  0.00  0.00    -0.000 A 
ATOM     19  C   UNL     1      -0.210   5.741 -11.499  0.00  0.00    -0.000 A 
ATOM     20  C   UNL     1       0.314   6.905 -10.949  0.00  0.00    -0.000 A 
ATOM     21  C   UNL     1       1.145   6.799  -9.869  0.00  0.00    -0.002 A 
ENDBRANCH  15  16
ENDBRANCH  11  15
ENDBRANCH   1  12
BRANCH   4  22
ATOM     22  C   UNL     1      -0.848   5.818  -1.830  0.00  0.00    +0.402 C 
ATOM     23  OXT UNL     1      -0.221   4.618  -1.492  0.00  0.00    -0.239 OA
ATOM     24  O   UNL     1      -0.595   6.784  -1.048  0.00  0.00    -0.239 OA
ENDBRANCH   4  22
TORSDOF 4
ENDMDL
MODEL 6
REMARK VINA RESULT:      -7.3      3.524      7.625
REMARK  Name = 
REMARK  4 active torsions:
REMARK  status: ('A' for Active; 'I' for Inactive)
REMARK    1  A    between atoms: CA_2  and  C_3
REMARK    2  A    between atoms: CA_2  and  C_19
REMARK    3  A    between atoms: N_5  and  CA_6
REMARK    4  A    between atoms: CA_10  and  C_11
REMARK                            x       y       z     vdW  Elec       q    Type
REMARK                         _______ _______ _______ _____ _____    ______ ____
ROOT
ATOM      1  CA  UNL     1       2.497   4.649  -5.233  0.00  0.00    +0.200 C 
ATOM      2  C   UNL     1       1.451   4.192  -6.498  0.00  0.00    +0.157 C 
ATOM      3  N   UNL     1       2.541   4.781  -7.374  0.00  0.00    -0.241 N 
ATOM      4  CA  UNL     1       2.175   4.865  -8.735  0.00  0.00    +0.142 C 
ATOM      5  C   UNL     1       0.926   4.939  -9.189  0.00  0.00    +0.066 C 
ATOM      6  C   UNL     1      -0.148   5.680  -8.459  0.00  0.00    +0.098 C 
ATOM      7 CL   UNL     1       0.618   4.505 -10.866  0.00  0.00    -0.085 Cl
ATOM      8  S   UNL     1       0.313   5.709  -6.708  0.00  0.00    -0.113 S 
ATOM      9  C   UNL     1       3.138   5.630  -6.372  0.00  0.00    +0.253 C 
ATOM     10  O   UNL     1       4.406   5.775  -6.276  0.00  0.00    -0.273 OA
ENDROOT
BRANCH   1  12
ATOM     11  C   UNL     1       1.762   5.817  -3.226  0.00  0.00    +0.264 C 
ATOM     12  N   UNL     1       1.512   5.726  -4.561  0.00  0.00    -0.194 NA
ATOM     13  O   UNL     1       2.847   6.404  -2.976  0.00  0.00    -0.271 OA
BRANCH  11  15
ATOM     14  N   UNL     1       0.510   4.648  -1.670  0.00  0.00    -0.118 NA
ATOM     15  CA  UNL     1       0.588   6.187  -2.146  0.00  0.00    +0.191 C 
BRANCH  15  16
ATOM     16  C   UNL     1      -0.667   5.972  -3.204  0.00  0.00    +0.004 A 
ATOM     17  C   UNL     1      -1.174   7.228  -3.525  0.00  0.00    -0.002 A 
ATOM     18  C   UNL     1      -2.539   7.439  -3.621  0.00  0.00    -0.000 A 
ATOM     19  C   UNL     1      -3.426   6.569  -3.007  0.00  0.00    -0.000 A 
ATOM     20  C   UNL     1      -2.929   5.370  -2.509  0.00  0.00    -0.000 A 
ATOM     21  C   UNL     1      -1.579   5.159  -2.543  0.00  0.00    -0.002 A 
ENDBRANCH  15  16
ENDBRANCH  11  15
ENDBRANCH   1  12
BRANCH   4  22
ATOM     22  C   UNL     1       3.279   5.064  -9.685  0.00  0.00    +0.402 C 
ATOM     23  OXT UNL     1       3.460   6.352 -10.191  0.00  0.00    -0.239 OA
ATOM     24  O   UNL     1       4.354   4.455  -9.396  0.00  0.00    -0.239 OA
ENDBRANCH   4  22
TORSDOF 4
ENDMDL
MODEL 7
REMARK VINA RESULT:      -7.3      3.682      7.788
REMARK  Name = 
REMARK  4 active torsions:
REMARK  status: ('A' for Active; 'I' for Inactive)
REMARK    1  A    between atoms: CA_2  and  C_3
REMARK    2  A    between atoms: CA_2  and  C_19
REMARK    3  A    between atoms: N_5  and  CA_6
REMARK    4  A    between atoms: CA_10  and  C_11
REMARK                            x       y       z     vdW  Elec       q    Type
REMARK                         _______ _______ _______ _____ _____    ______ ____
ROOT
ATOM      1  CA  UNL     1       1.712   6.782  -9.423  0.00  0.00    +0.200 C 
ATOM      2  C   UNL     1       3.359   7.192  -9.569  0.00  0.00    +0.157 C 
ATOM      3  N   UNL     1       3.266   6.375 -10.846  0.00  0.00    -0.241 N 
ATOM      4  CA  UNL     1       4.519   6.162 -11.461  0.00  0.00    +0.142 C 
ATOM      5  C   UNL     1       5.693   6.175 -10.833  0.00  0.00    +0.066 C 
ATOM      6  C   UNL     1       5.861   5.661  -9.439  0.00  0.00    +0.098 C 
ATOM      7 CL   UNL     1       7.149   6.426 -11.787  0.00  0.00    -0.085 Cl
ATOM      8  S   UNL     1       4.252   5.801  -8.616  0.00  0.00    -0.113 S 
ATOM      9  C   UNL     1       2.108   5.597 -10.476  0.00  0.00    +0.253 C 
ATOM     10  O   UNL     1       1.184   5.321 -11.317  0.00  0.00    -0.273 OA
ENDROOT
BRANCH   1  12
ATOM     11  C   UNL     1       0.751   6.077  -7.298  0.00  0.00    +0.264 C 
ATOM     12  N   UNL     1       1.857   5.918  -8.076  0.00  0.00    -0.194 NA
ATOM     13  O   UNL     1      -0.258   5.488  -7.767  0.00  0.00    -0.271 OA
BRANCH  11  15
ATOM     14  N   UNL     1       0.590   4.402  -5.710  0.00  0.00    -0.118 NA
ATOM     15  CA  UNL     1       0.818   5.998  -5.665  0.00  0.00    +0.191 C 
BRANCH  15  16
ATOM     16  C   UNL     1      -0.799   6.269  -5.432  0.00  0.00    +0.004 A 
ATOM     17  C   UNL     1      -0.968   7.622  -5.151  0.00  0.00    -0.002 A 
ATOM     18  C   UNL     1      -1.852   8.038  -4.169  0.00  0.00    -0.000 A 
ATOM     19  C   UNL     1      -2.259   7.160  -3.177  0.00  0.00    -0.000 A 
ATOM     20  C   UNL     1      -1.955   5.812  -3.330  0.00  0.00    -0.000 A 
ATOM     21  C   UNL     1      -1.172   5.436  -4.385  0.00  0.00    -0.002 A 
ENDBRANCH  15  16
ENDBRANCH  11  15
ENDBRANCH   1  12
BRANCH   4  22
ATOM     22  C   UNL     1       4.478   5.720 -12.862  0.00  0.00    +0.402 C 
ATOM     23  OXT UNL     1       4.901   4.417 -13.131  0.00  0.00    -0.239 OA
ATOM     24  O   UNL     1       3.452   6.086 -13.512  0.00  0.00    -0.239 OA
ENDBRANCH   4  22
TORSDOF 4
ENDMDL
MODEL 8
REMARK VINA RESULT:      -7.1      3.268      7.156
REMARK  Name = 
REMARK  4 active torsions:
REMARK  status: ('A' for Active; 'I' for Inactive)
REMARK    1  A    between atoms: CA_2  and  C_3
REMARK    2  A    between atoms: CA_2  and  C_19
REMARK    3  A    between atoms: N_5  and  CA_6
REMARK    4  A    between atoms: CA_10  and  C_11
REMARK                            x       y       z     vdW  Elec       q    Type
REMARK                         _______ _______ _______ _____ _____    ______ ____
ROOT
ATOM      1  CA  UNL     1       1.781   7.065  -7.070  0.00  0.00    +0.200 C 
ATOM      2  C   UNL     1       2.570   7.274  -8.566  0.00  0.00    +0.157 C 
ATOM      3  N   UNL     1       1.389   6.481  -9.098  0.00  0.00    -0.241 N 
ATOM      4  CA  UNL     1       1.529   6.121 -10.456  0.00  0.00    +0.142 C 
ATOM      5  C   UNL     1       2.687   5.989 -11.099  0.00  0.00    +0.066 C 
ATOM      6  C   UNL     1       3.914   5.451 -10.434  0.00  0.00    +0.098 C 
ATOM      7 CL   UNL     1       2.683   6.067 -12.856  0.00  0.00    -0.085 Cl
ATOM      8  S   UNL     1       3.754   5.780  -8.660  0.00  0.00    -0.113 S 
ATOM      9  C   UNL     1       1.025   5.846  -7.854  0.00  0.00    +0.253 C 
ATOM     10  O   UNL     1      -0.197   5.688  -7.509  0.00  0.00    -0.273 OA
ENDROOT
BRANCH   1  12
ATOM     11  C   UNL     1       2.908   6.362  -5.029  0.00  0.00    +0.264 C 
ATOM     12  N   UNL     1       2.932   6.183  -6.378  0.00  0.00    -0.194 NA
ATOM     13  O   UNL     1       1.919   5.804  -4.485  0.00  0.00    -0.271 OA
BRANCH  11  15
ATOM     14  N   UNL     1       4.055   4.674  -3.939  0.00  0.00    -0.118 NA
ATOM     15  CA  UNL     1       4.262   6.263  -4.115  0.00  0.00    +0.191 C 
BRANCH  15  16
ATOM     16  C   UNL     1       3.500   6.568  -2.677  0.00  0.00    +0.004 A 
ATOM     17  C   UNL     1       3.698   7.910  -2.365  0.00  0.00    -0.002 A 
ATOM     18  C   UNL     1       3.981   8.302  -1.067  0.00  0.00    -0.000 A 
ATOM     19  C   UNL     1       4.483   7.389  -0.154  0.00  0.00    -0.000 A 
ATOM     20  C   UNL     1       4.467   6.042  -0.498  0.00  0.00    -0.000 A 
ATOM     21  C   UNL     1       4.068   5.696  -1.758  0.00  0.00    -0.002 A 
ENDBRANCH  15  16
ENDBRANCH  11  15
ENDBRANCH   1  12
BRANCH   4  22
ATOM     22  C   UNL     1       0.297   5.694 -11.136  0.00  0.00    +0.402 C 
ATOM     23  OXT UNL     1      -0.144   4.392 -10.895  0.00  0.00    -0.239 OA
ATOM     24  O   UNL     1      -0.625   6.564 -11.176  0.00  0.00    -0.239 OA
ENDBRANCH   4  22
TORSDOF 4
ENDMDL
MODEL 9
REMARK VINA RESULT:      -7.1      2.694      3.526
REMARK  Name = 
REMARK  4 active torsions:
REMARK  status: ('A' for Active; 'I' for Inactive)
REMARK    1  A    between atoms: CA_2  and  C_3
REMARK    2  A    between atoms: CA_2  and  C_19
REMARK    3  A    between atoms: N_5  and  CA_6
REMARK    4  A    between atoms: CA_10  and  C_11
REMARK                            x       y       z     vdW  Elec       q    Type
REMARK                         _______ _______ _______ _____ _____    ______ ____
ROOT
ATOM      1  CA  UNL     1       1.813   4.786  -5.097  0.00  0.00    +0.200 C 
ATOM      2  C   UNL     1       3.240   5.193  -4.260  0.00  0.00    +0.157 C 
ATOM      3  N   UNL     1       2.274   5.522  -3.135  0.00  0.00    -0.241 N 
ATOM      4  CA  UNL     1       2.898   6.149  -2.034  0.00  0.00    +0.142 C 
ATOM      5  C   UNL     1       4.025   6.855  -2.092  0.00  0.00    +0.066 C 
ATOM      6  C   UNL     1       4.372   7.714  -3.267  0.00  0.00    +0.098 C 
ATOM      7 CL   UNL     1       4.932   7.106  -0.606  0.00  0.00    -0.085 Cl
ATOM      8  S   UNL     1       3.512   7.028  -4.707  0.00  0.00    -0.113 S 
ATOM      9  C   UNL     1       1.103   5.714  -3.955  0.00  0.00    +0.253 C 
ATOM     10  O   UNL     1      -0.052   5.296  -3.592  0.00  0.00    -0.273 OA
ENDROOT
BRANCH   1  12
ATOM     11  C   UNL     1       1.480   5.435  -7.421  0.00  0.00    +0.264 C 
ATOM     12  N   UNL     1       1.938   5.916  -6.233  0.00  0.00    -0.194 NA
ATOM     13  O   UNL     1       0.227   5.314  -7.443  0.00  0.00    -0.271 OA
BRANCH  11  15
ATOM     14  N   UNL     1       1.742   7.475  -8.482  0.00  0.00    -0.118 NA
ATOM     15  CA  UNL     1       2.083   5.944  -8.855  0.00  0.00    +0.191 C 
BRANCH  15  16
ATOM     16  C   UNL     1       0.661   5.780  -9.687  0.00  0.00    +0.004 A 
ATOM     17  C   UNL     1       0.772   4.661 -10.506  0.00  0.00    -0.002 A 
ATOM     18  C   UNL     1       0.283   4.678 -11.802  0.00  0.00    -0.000 A 
ATOM     19  C   UNL     1       0.066   5.883 -12.451  0.00  0.00    -0.000 A 
ATOM     20  C   UNL     1       0.121   7.051 -11.701  0.00  0.00    -0.000 A 
ATOM     21  C   UNL     1       0.499   6.967 -10.390  0.00  0.00    -0.002 A 
ENDBRANCH  15  16
ENDBRANCH  11  15
ENDBRANCH   1  12
BRANCH   4  22
ATOM     22  C   UNL     1       2.129   6.156  -0.781  0.00  0.00    +0.402 C 
ATOM     23  OXT UNL     1       1.282   7.243  -0.560  0.00  0.00    -0.239 OA
ATOM     24  O   UNL     1       1.647   5.034  -0.439  0.00  0.00    -0.239 OA
ENDBRANCH   4  22
TORSDOF 4
ENDMDL
