MODEL 1
REMARK VINA RESULT:      -9.0      0.000      0.000
REMARK  Name = 
REMARK  4 active torsions:
REMARK  status: ('A' for Active; 'I' for Inactive)
REMARK    1  A    between atoms: C_2  and  O_4
REMARK    2  A    between atoms: O_4  and  C_5
REMARK    3  A    between atoms: C_5  and  C_6
REMARK    4  A    between atoms: C_6  and  C_8
REMARK                            x       y       z     vdW  Elec       q    Type
REMARK                         _______ _______ _______ _____ _____    ______ ____
ROOT
ATOM      1  C   UNL     1       1.370   6.103  -8.359  0.00  0.00    +0.181 C 
ATOM      2  C   UNL     1       2.157   6.056  -7.118  0.00  0.00    +0.039 C 
ATOM      3  C   UNL     1       0.940   6.385  -6.083  0.00  0.00    +0.004 C 
ATOM      4  C   UNL     1       1.662   5.539  -4.811  0.00  0.00    +0.008 C 
ATOM      5  C   UNL     1       2.314   6.983  -4.200  0.00  0.00    +0.061 C 
ATOM      6  C   UNL     1       3.475   7.007  -5.317  0.00  0.00    +0.151 C 
ATOM      7  O   UNL     1       4.337   7.803  -4.941  0.00  0.00    -0.296 OA
ATOM      8  C   UNL     1       3.190   6.209  -3.063  0.00  0.00    +0.022 C 
ATOM      9  C   UNL     1       2.223   5.277  -2.397  0.00  0.00    -0.042 C 
ATOM     10  C   UNL     1       2.800   4.518  -1.464  0.00  0.00    +0.029 C 
ATOM     11  C   UNL     1       4.052   5.076  -0.928  0.00  0.00    +0.173 C 
ATOM     12  C   UNL     1       4.070   6.562  -0.818  0.00  0.00    +0.069 C 
ATOM     13  O   UNL     1       4.955   4.325  -0.502  0.00  0.00    -0.291 OA
ATOM     14  C   UNL     1       0.760   5.482  -2.484  0.00  0.00    +0.022 C 
ATOM     15  C   UNL     1       4.338   5.518  -3.628  0.00  0.00    +0.004 C 
ATOM     16  C   UNL     1       3.647   7.251  -2.079  0.00  0.00    +0.012 C 
ATOM     17  C   UNL     1       0.330   5.654  -3.921  0.00  0.00    +0.005 C 
ATOM     18  C   UNL     1       0.130   5.087  -6.645  0.00  0.00    +0.003 C 
ATOM     19  C   UNL     1       2.648   4.689  -6.875  0.00  0.00    +0.003 C 
ATOM     20  C   UNL     1       3.027   7.180  -6.739  0.00  0.00    +0.067 C 
ATOM     21  C   UNL     1      -0.087   5.812  -7.977  0.00  0.00    +0.038 C 
ATOM     22  O   UNL     1       1.490   7.259  -9.107  0.00  0.00    -0.218 OA
ENDROOT
BRANCH   1  23
ATOM     23  C   UNL     1       1.616   4.960  -9.313  0.00  0.00    +0.222 C 
ATOM     24  O   UNL     1       0.636   4.348  -9.747  0.00  0.00    -0.290 OA
BRANCH  23  25
ATOM     25  C   UNL     1       2.582   5.304 -10.416  0.00  0.00    +0.275 C 
BRANCH  25  26
ATOM     26  O   UNL     1       3.899   4.844 -10.117  0.00  0.00    -0.440 OA
BRANCH  26  28
ATOM     27  C   UNL     1       5.902   5.445  -8.767  0.00  0.00    +0.121 C 
ATOM     28  C   UNL     1       4.894   5.729  -9.690  0.00  0.00    +0.318 C 
ATOM     29  O   UNL     1       4.743   6.893 -10.174  0.00  0.00    -0.250 OA
ENDBRANCH  26  28
ENDBRANCH  25  26
ENDBRANCH  23  25
ENDBRANCH   1  23
TORSDOF 4
ENDMDL
MODEL 2
REMARK VINA RESULT:      -8.7      3.421      7.399
REMARK  Name = 
REMARK  4 active torsions:
REMARK  status: ('A' for Active; 'I' for Inactive)
REMARK    1  A    between atoms: C_2  and  O_4
REMARK    2  A    between atoms: O_4  and  C_5
REMARK    3  A    between atoms: C_5  and  C_6
REMARK    4  A    between atoms: C_6  and  C_8
REMARK                            x       y       z     vdW  Elec       q    Type
REMARK                         _______ _______ _______ _____ _____    ______ ____
ROOT
ATOM      1  C   UNL     1      -1.280   5.789  -3.575  0.00  0.00    +0.181 C 
ATOM      2  C   UNL     1      -0.125   5.856  -4.482  0.00  0.00    +0.039 C 
ATOM      3  C   UNL     1      -0.803   5.076  -5.744  0.00  0.00    +0.004 C 
ATOM      4  C   UNL     1       0.150   5.885  -6.881  0.00  0.00    +0.008 C 
ATOM      5  C   UNL     1       1.243   4.585  -6.914  0.00  0.00    +0.061 C 
ATOM      6  C   UNL     1       1.908   5.026  -5.513  0.00  0.00    +0.151 C 
ATOM      7  O   UNL     1       2.983   4.434  -5.409  0.00  0.00    -0.296 OA
ATOM      8  C   UNL     1       2.302   5.385  -7.862  0.00  0.00    +0.022 C 
ATOM      9  C   UNL     1       1.478   5.928  -8.990  0.00  0.00    -0.042 C 
ATOM     10  C   UNL     1       2.193   6.665  -9.841  0.00  0.00    +0.029 C 
ATOM     11  C   UNL     1       3.637   6.378  -9.815  0.00  0.00    +0.173 C 
ATOM     12  C   UNL     1       3.979   4.948  -9.575  0.00  0.00    +0.069 C 
ATOM     13  O   UNL     1       4.470   7.266 -10.094  0.00  0.00    -0.291 OA
ATOM     14  C   UNL     1       0.149   5.367  -9.323  0.00  0.00    +0.022 C 
ATOM     15  C   UNL     1       3.015   6.424  -7.136  0.00  0.00    +0.004 C 
ATOM     16  C   UNL     1       3.272   4.365  -8.389  0.00  0.00    +0.012 C 
ATOM     17  C   UNL     1      -0.726   5.301  -8.095  0.00  0.00    +0.005 C 
ATOM     18  C   UNL     1      -1.994   6.189  -5.774  0.00  0.00    +0.003 C 
ATOM     19  C   UNL     1       0.147   7.253  -4.861  0.00  0.00    +0.003 C 
ATOM     20  C   UNL     1       1.022   4.952  -4.304  0.00  0.00    +0.067 C 
ATOM     21  C   UNL     1      -2.530   5.634  -4.450  0.00  0.00    +0.038 C 
ATOM     22  O   UNL     1      -1.216   4.825  -2.585  0.00  0.00    -0.218 OA
ENDROOT
BRANCH   1  23
ATOM     23  C   UNL     1      -1.617   7.083  -2.876  0.00  0.00    +0.222 C 
ATOM     24  O   UNL     1      -2.765   7.522  -2.994  0.00  0.00    -0.290 OA
BRANCH  23  25
ATOM     25  C   UNL     1      -1.160   7.121  -1.442  0.00  0.00    +0.275 C 
BRANCH  25  26
ATOM     26  O   UNL     1      -1.682   8.261  -0.759  0.00  0.00    -0.440 OA
BRANCH  26  28
ATOM     27  C   UNL     1      -2.191   7.311   1.484  0.00  0.00    +0.121 C 
ATOM     28  C   UNL     1      -1.717   8.314   0.638  0.00  0.00    +0.318 C 
ATOM     29  O   UNL     1      -1.341   9.441   1.085  0.00  0.00    -0.250 OA
ENDBRANCH  26  28
ENDBRANCH  25  26
ENDBRANCH  23  25
ENDBRANCH   1  23
TORSDOF 4
ENDMDL
MODEL 3
REMARK VINA RESULT:      -8.3      2.730      8.083
REMARK  Name = 
REMARK  4 active torsions:
REMARK  status: ('A' for Active; 'I' for Inactive)
REMARK    1  A    between atoms: C_2  and  O_4
REMARK    2  A    between atoms: O_4  and  C_5
REMARK    3  A    between atoms: C_5  and  C_6
REMARK    4  A    between atoms: C_6  and  C_8
REMARK                            x       y       z     vdW  Elec       q    Type
REMARK                         _______ _______ _______ _____ _____    ______ ____
ROOT
ATOM      1  C   UNL     1       3.144   6.108  -6.982  0.00  0.00    +0.181 C 
ATOM      2  C   UNL     1       2.410   5.948  -8.246  0.00  0.00    +0.039 C 
ATOM      3  C   UNL     1       3.614   6.403  -9.248  0.00  0.00    +0.004 C 
ATOM      4  C   UNL     1       3.040   5.457 -10.525  0.00  0.00    +0.008 C 
ATOM      5  C   UNL     1       2.243   6.804 -11.186  0.00  0.00    +0.061 C 
ATOM      6  C   UNL     1       1.050   6.707 -10.106  0.00  0.00    +0.151 C 
ATOM      7  O   UNL     1       0.113   7.388 -10.525  0.00  0.00    -0.296 OA
ATOM      8  C   UNL     1       1.503   5.913 -12.334  0.00  0.00    +0.022 C 
ATOM      9  C   UNL     1       2.596   5.092 -12.951  0.00  0.00    -0.042 C 
ATOM     10  C   UNL     1       2.145   4.255 -13.886  0.00  0.00    +0.029 C 
ATOM     11  C   UNL     1       0.854   4.652 -14.472  0.00  0.00    +0.173 C 
ATOM     12  C   UNL     1       0.664   6.123 -14.612  0.00  0.00    +0.069 C 
ATOM     13  O   UNL     1       0.062   3.792 -14.912  0.00  0.00    -0.291 OA
ATOM     14  C   UNL     1       4.021   5.471 -12.821  0.00  0.00    +0.022 C 
ATOM     15  C   UNL     1       0.427   5.099 -11.792  0.00  0.00    +0.004 C 
ATOM     16  C   UNL     1       0.960   6.877 -13.352  0.00  0.00    +0.012 C 
ATOM     17  C   UNL     1       4.379   5.715 -11.375  0.00  0.00    +0.005 C 
ATOM     18  C   UNL     1       4.553   5.219  -8.635  0.00  0.00    +0.003 C 
ATOM     19  C   UNL     1       2.092   4.528  -8.477  0.00  0.00    +0.003 C 
ATOM     20  C   UNL     1       1.426   6.954  -8.674  0.00  0.00    +0.067 C 
ATOM     21  C   UNL     1       4.636   5.987  -7.311  0.00  0.00    +0.038 C 
ATOM     22  O   UNL     1       2.862   7.253  -6.261  0.00  0.00    -0.218 OA
ENDROOT
BRANCH   1  23
ATOM     23  C   UNL     1       3.002   4.959  -6.014  0.00  0.00    +0.222 C 
ATOM     24  O   UNL     1       4.026   4.524  -5.480  0.00  0.00    -0.290 OA
BRANCH  23  25
ATOM     25  C   UNL     1       1.901   5.162  -5.007  0.00  0.00    +0.275 C 
BRANCH  25  26
ATOM     26  O   UNL     1       0.661   4.636  -5.478  0.00  0.00    -0.440 OA
BRANCH  26  28
ATOM     27  C   UNL     1      -1.375   5.223  -6.783  0.00  0.00    +0.121 C 
ATOM     28  C   UNL     1      -0.400   5.481  -5.818  0.00  0.00    +0.318 C 
ATOM     29  O   UNL     1      -0.348   6.591  -5.204  0.00  0.00    -0.250 OA
ENDBRANCH  26  28
ENDBRANCH  25  26
ENDBRANCH  23  25
ENDBRANCH   1  23
TORSDOF 4
ENDMDL
MODEL 4
REMARK VINA RESULT:      -8.2      1.251      1.878
REMARK  Name = 
REMARK  4 active torsions:
REMARK  status: ('A' for Active; 'I' for Inactive)
REMARK    1  A    between atoms: C_2  and  O_4
REMARK    2  A    between atoms: O_4  and  C_5
REMARK    3  A    between atoms: C_5  and  C_6
REMARK    4  A    between atoms: C_6  and  C_8
REMARK                            x       y       z     vdW  Elec       q    Type
REMARK                         _______ _______ _______ _____ _____    ______ ____
ROOT
ATOM      1  C   UNL     1       1.459   6.223  -8.300  0.00  0.00    +0.181 C 
ATOM      2  C   UNL     1       2.238   6.139  -7.056  0.00  0.00    +0.039 C 
ATOM      3  C   UNL     1       1.016   6.443  -6.021  0.00  0.00    +0.004 C 
ATOM      4  C   UNL     1       1.728   5.560  -4.768  0.00  0.00    +0.008 C 
ATOM      5  C   UNL     1       2.379   6.986  -4.112  0.00  0.00    +0.061 C 
ATOM      6  C   UNL     1       3.548   7.037  -5.221  0.00  0.00    +0.151 C 
ATOM      7  O   UNL     1       4.409   7.819  -4.818  0.00  0.00    -0.296 OA
ATOM      8  C   UNL     1       3.247   6.178  -2.992  0.00  0.00    +0.022 C 
ATOM      9  C   UNL     1       2.273   5.230  -2.358  0.00  0.00    -0.042 C 
ATOM     10  C   UNL     1       2.841   4.445  -1.443  0.00  0.00    +0.029 C 
ATOM     11  C   UNL     1       4.092   4.984  -0.884  0.00  0.00    +0.173 C 
ATOM     12  C   UNL     1       4.113   6.466  -0.732  0.00  0.00    +0.069 C 
ATOM     13  O   UNL     1       4.990   4.219  -0.473  0.00  0.00    -0.291 OA
ATOM     14  C   UNL     1       0.810   5.442  -2.449  0.00  0.00    +0.022 C 
ATOM     15  C   UNL     1       4.396   5.499  -3.569  0.00  0.00    +0.004 C 
ATOM     16  C   UNL     1       3.700   7.191  -1.977  0.00  0.00    +0.012 C 
ATOM     17  C   UNL     1       0.390   5.654  -3.883  0.00  0.00    +0.005 C 
ATOM     18  C   UNL     1       0.206   5.163  -6.623  0.00  0.00    +0.003 C 
ATOM     19  C   UNL     1       2.724   4.765  -6.848  0.00  0.00    +0.003 C 
ATOM     20  C   UNL     1       3.109   7.250  -6.641  0.00  0.00    +0.067 C 
ATOM     21  C   UNL     1      -0.000   5.926  -7.936  0.00  0.00    +0.038 C 
ATOM     22  O   UNL     1       1.588   7.399  -9.016  0.00  0.00    -0.218 OA
ENDROOT
BRANCH   1  23
ATOM     23  C   UNL     1       1.708   5.106  -9.283  0.00  0.00    +0.222 C 
ATOM     24  O   UNL     1       0.778   4.333  -9.529  0.00  0.00    -0.290 OA
BRANCH  23  25
ATOM     25  C   UNL     1       2.387   5.566 -10.547  0.00  0.00    +0.275 C 
BRANCH  25  26
ATOM     26  O   UNL     1       1.525   5.441 -11.677  0.00  0.00    -0.440 OA
BRANCH  26  28
ATOM     27  C   UNL     1      -0.230   7.200 -11.816  0.00  0.00    +0.121 C 
ATOM     28  C   UNL     1       0.930   6.564 -12.260  0.00  0.00    +0.318 C 
ATOM     29  O   UNL     1       1.517   6.919 -13.328  0.00  0.00    -0.250 OA
ENDBRANCH  26  28
ENDBRANCH  25  26
ENDBRANCH  23  25
ENDBRANCH   1  23
TORSDOF 4
ENDMDL
MODEL 5
REMARK VINA RESULT:      -7.7      3.069      5.889
REMARK  Name = 
REMARK  4 active torsions:
REMARK  status: ('A' for Active; 'I' for Inactive)
REMARK    1  A    between atoms: C_2  and  O_4
REMARK    2  A    between atoms: O_4  and  C_5
REMARK    3  A    between atoms: C_5  and  C_6
REMARK    4  A    between atoms: C_6  and  C_8
REMARK                            x       y       z     vdW  Elec       q    Type
REMARK                         _______ _______ _______ _____ _____    ______ ____
ROOT
ATOM      1  C   UNL     1       5.820   5.701 -11.599  0.00  0.00    +0.181 C 
ATOM      2  C   UNL     1       4.643   5.847 -10.730  0.00  0.00    +0.039 C 
ATOM      3  C   UNL     1       5.236   5.053  -9.435  0.00  0.00    +0.004 C 
ATOM      4  C   UNL     1       4.293   5.933  -8.342  0.00  0.00    +0.008 C 
ATOM      5  C   UNL     1       3.130   4.695  -8.325  0.00  0.00    +0.061 C 
ATOM      6  C   UNL     1       2.535   5.146  -9.754  0.00  0.00    +0.151 C 
ATOM      7  O   UNL     1       1.433   4.611  -9.883  0.00  0.00    -0.296 OA
ATOM      8  C   UNL     1       2.087   5.568  -7.425  0.00  0.00    +0.022 C 
ATOM      9  C   UNL     1       2.903   6.085  -6.279  0.00  0.00    -0.042 C 
ATOM     10  C   UNL     1       2.203   6.875  -5.464  0.00  0.00    +0.029 C 
ATOM     11  C   UNL     1       0.747   6.665  -5.533  0.00  0.00    +0.173 C 
ATOM     12  C   UNL     1       0.335   5.252  -5.761  0.00  0.00    +0.069 C 
ATOM     13  O   UNL     1      -0.044   7.602  -5.295  0.00  0.00    -0.291 OA
ATOM     14  C   UNL     1       4.188   5.458  -5.894  0.00  0.00    +0.022 C 
ATOM     15  C   UNL     1       1.456   6.631  -8.191  0.00  0.00    +0.004 C 
ATOM     16  C   UNL     1       1.046   4.611  -6.913  0.00  0.00    +0.012 C 
ATOM     17  C   UNL     1       5.097   5.324  -7.092  0.00  0.00    +0.005 C 
ATOM     18  C   UNL     1       6.485   6.100  -9.384  0.00  0.00    +0.003 C 
ATOM     19  C   UNL     1       4.435   7.263 -10.383  0.00  0.00    +0.003 C 
ATOM     20  C   UNL     1       3.454   5.004 -10.932  0.00  0.00    +0.067 C 
ATOM     21  C   UNL     1       7.031   5.494 -10.681  0.00  0.00    +0.038 C 
ATOM     22  O   UNL     1       5.735   4.725 -12.574  0.00  0.00    -0.218 OA
ENDROOT
BRANCH   1  23
ATOM     23  C   UNL     1       6.250   6.962 -12.306  0.00  0.00    +0.222 C 
ATOM     24  O   UNL     1       7.425   7.320 -12.188  0.00  0.00    -0.290 OA
BRANCH  23  25
ATOM     25  C   UNL     1       5.800   7.022 -13.742  0.00  0.00    +0.275 C 
BRANCH  25  26
ATOM     26  O   UNL     1       6.910   6.983 -14.638  0.00  0.00    -0.440 OA
BRANCH  26  28
ATOM     27  C   UNL     1       7.699   7.350 -16.970  0.00  0.00    +0.121 C 
ATOM     28  C   UNL     1       6.851   7.603 -15.890  0.00  0.00    +0.318 C 
ATOM     29  O   UNL     1       5.971   8.517 -15.933  0.00  0.00    -0.250 OA
ENDBRANCH  26  28
ENDBRANCH  25  26
ENDBRANCH  23  25
ENDBRANCH   1  23
TORSDOF 4
ENDMDL
MODEL 6
REMARK VINA RESULT:      -7.7      2.798      5.069
REMARK  Name = 
REMARK  4 active torsions:
REMARK  status: ('A' for Active; 'I' for Inactive)
REMARK    1  A    between atoms: C_2  and  O_4
REMARK    2  A    between atoms: O_4  and  C_5
REMARK    3  A    between atoms: C_5  and  C_6
REMARK    4  A    between atoms: C_6  and  C_8
REMARK                            x       y       z     vdW  Elec       q    Type
REMARK                         _______ _______ _______ _____ _____    ______ ____
ROOT
ATOM      1  C   UNL     1       4.936   5.664 -10.580  0.00  0.00    +0.181 C 
ATOM      2  C   UNL     1       3.706   5.908  -9.813  0.00  0.00    +0.039 C 
ATOM      3  C   UNL     1       4.051   4.938  -8.548  0.00  0.00    +0.004 C 
ATOM      4  C   UNL     1       3.127   5.853  -7.469  0.00  0.00    +0.008 C 
ATOM      5  C   UNL     1       1.813   4.796  -7.672  0.00  0.00    +0.061 C 
ATOM      6  C   UNL     1       1.434   5.440  -9.101  0.00  0.00    +0.151 C 
ATOM      7  O   UNL     1       0.290   5.080  -9.379  0.00  0.00    -0.296 OA
ATOM      8  C   UNL     1       0.810   5.735  -6.793  0.00  0.00    +0.022 C 
ATOM      9  C   UNL     1       1.566   6.038  -5.535  0.00  0.00    -0.042 C 
ATOM     10  C   UNL     1       0.898   6.853  -4.717  0.00  0.00    +0.029 C 
ATOM     11  C   UNL     1      -0.558   6.860  -4.937  0.00  0.00    +0.173 C 
ATOM     12  C   UNL     1      -1.130   5.542  -5.331  0.00  0.00    +0.069 C 
ATOM     13  O   UNL     1      -1.236   7.878  -4.686  0.00  0.00    -0.291 OA
ATOM     14  C   UNL     1       2.709   5.206  -5.095  0.00  0.00    +0.022 C 
ATOM     15  C   UNL     1       0.409   6.935  -7.511  0.00  0.00    +0.004 C 
ATOM     16  C   UNL     1      -0.397   4.899  -6.469  0.00  0.00    +0.012 C 
ATOM     17  C   UNL     1       3.709   5.039  -6.212  0.00  0.00    +0.005 C 
ATOM     18  C   UNL     1       5.417   5.788  -8.287  0.00  0.00    +0.003 C 
ATOM     19  C   UNL     1       3.656   7.307  -9.357  0.00  0.00    +0.003 C 
ATOM     20  C   UNL     1       2.442   5.261 -10.199  0.00  0.00    +0.067 C 
ATOM     21  C   UNL     1       6.007   5.215  -9.579  0.00  0.00    +0.038 C 
ATOM     22  O   UNL     1       4.821   4.790 -11.646  0.00  0.00    -0.218 OA
ENDROOT
BRANCH   1  23
ATOM     23  C   UNL     1       5.602   6.903 -11.126  0.00  0.00    +0.222 C 
ATOM     24  O   UNL     1       6.603   7.328 -10.542  0.00  0.00    -0.290 OA
BRANCH  23  25
ATOM     25  C   UNL     1       5.815   6.857 -12.616  0.00  0.00    +0.275 C 
BRANCH  25  26
ATOM     26  O   UNL     1       7.202   6.928 -12.946  0.00  0.00    -0.440 OA
BRANCH  26  28
ATOM     27  C   UNL     1       9.279   5.788 -12.186  0.00  0.00    +0.121 C 
ATOM     28  C   UNL     1       8.034   5.812 -12.816  0.00  0.00    +0.318 C 
ATOM     29  O   UNL     1       7.575   4.796 -13.423  0.00  0.00    -0.250 OA
ENDBRANCH  26  28
ENDBRANCH  25  26
ENDBRANCH  23  25
ENDBRANCH   1  23
TORSDOF 4
ENDMDL
MODEL 7
REMARK VINA RESULT:      -7.6      2.069      7.125
REMARK  Name = 
REMARK  4 active torsions:
REMARK  status: ('A' for Active; 'I' for Inactive)
REMARK    1  A    between atoms: C_2  and  O_4
REMARK    2  A    between atoms: O_4  and  C_5
REMARK    3  A    between atoms: C_5  and  C_6
REMARK    4  A    between atoms: C_6  and  C_8
REMARK                            x       y       z     vdW  Elec       q    Type
REMARK                         _______ _______ _______ _____ _____    ______ ____
ROOT
ATOM      1  C   UNL     1       3.206   6.054  -2.483  0.00  0.00    +0.181 C 
ATOM      2  C   UNL     1       2.547   5.954  -3.794  0.00  0.00    +0.039 C 
ATOM      3  C   UNL     1       3.821   6.407  -4.705  0.00  0.00    +0.004 C 
ATOM      4  C   UNL     1       3.302   5.519  -6.046  0.00  0.00    +0.008 C 
ATOM      5  C   UNL     1       2.583   6.908  -6.708  0.00  0.00    +0.061 C 
ATOM      6  C   UNL     1       1.324   6.811  -5.706  0.00  0.00    +0.151 C 
ATOM      7  O   UNL     1       0.433   7.531  -6.157  0.00  0.00    -0.296 OA
ATOM      8  C   UNL     1       1.891   6.075  -7.928  0.00  0.00    +0.022 C 
ATOM      9  C   UNL     1       2.998   5.244  -8.504  0.00  0.00    -0.042 C 
ATOM     10  C   UNL     1       2.583   4.450  -9.493  0.00  0.00    +0.029 C 
ATOM     11  C   UNL     1       1.341   4.902 -10.142  0.00  0.00    +0.173 C 
ATOM     12  C   UNL     1       1.199   6.381 -10.244  0.00  0.00    +0.069 C 
ATOM     13  O   UNL     1       0.555   4.079 -10.657  0.00  0.00    -0.291 OA
ATOM     14  C   UNL     1       4.422   5.578  -8.276  0.00  0.00    +0.022 C 
ATOM     15  C   UNL     1       0.763   5.275  -7.478  0.00  0.00    +0.004 C 
ATOM     16  C   UNL     1       1.437   7.086  -8.943  0.00  0.00    +0.012 C 
ATOM     17  C   UNL     1       4.697   5.766  -6.804  0.00  0.00    +0.005 C 
ATOM     18  C   UNL     1       4.690   5.178  -4.077  0.00  0.00    +0.003 C 
ATOM     19  C   UNL     1       2.207   4.553  -4.091  0.00  0.00    +0.003 C 
ATOM     20  C   UNL     1       1.618   7.002  -4.246  0.00  0.00    +0.067 C 
ATOM     21  C   UNL     1       4.712   5.901  -2.726  0.00  0.00    +0.038 C 
ATOM     22  O   UNL     1       2.911   7.183  -1.742  0.00  0.00    -0.218 OA
ENDROOT
BRANCH   1  23
ATOM     23  C   UNL     1       2.976   4.879  -1.564  0.00  0.00    +0.222 C 
ATOM     24  O   UNL     1       3.945   4.431  -0.944  0.00  0.00    -0.290 OA
BRANCH  23  25
ATOM     25  C   UNL     1       1.781   5.053  -0.664  0.00  0.00    +0.275 C 
BRANCH  25  26
ATOM     26  O   UNL     1       0.585   4.592  -1.291  0.00  0.00    -0.440 OA
BRANCH  26  28
ATOM     27  C   UNL     1      -0.728   6.672  -0.914  0.00  0.00    +0.121 C 
ATOM     28  C   UNL     1      -0.471   5.466  -1.568  0.00  0.00    +0.318 C 
ATOM     29  O   UNL     1      -1.258   5.004  -2.450  0.00  0.00    -0.250 OA
ENDBRANCH  26  28
ENDBRANCH  25  26
ENDBRANCH  23  25
ENDBRANCH   1  23
TORSDOF 4
ENDMDL
MODEL 8
REMARK VINA RESULT:      -7.5      2.600      8.181
REMARK  Name = 
REMARK  4 active torsions:
REMARK  status: ('A' for Active; 'I' for Inactive)
REMARK    1  A    between atoms: C_2  and  O_4
REMARK    2  A    between atoms: O_4  and  C_5
REMARK    3  A    between atoms: C_5  and  C_6
REMARK    4  A    between atoms: C_6  and  C_8
REMARK                            x       y       z     vdW  Elec       q    Type
REMARK                         _______ _______ _______ _____ _____    ______ ____
ROOT
ATOM      1  C   UNL     1       3.275   6.209  -7.076  0.00  0.00    +0.181 C 
ATOM      2  C   UNL     1       2.509   6.015  -8.316  0.00  0.00    +0.039 C 
ATOM      3  C   UNL     1       3.678   6.467  -9.359  0.00  0.00    +0.004 C 
ATOM      4  C   UNL     1       3.083   5.489 -10.602  0.00  0.00    +0.008 C 
ATOM      5  C   UNL     1       2.250   6.813 -11.265  0.00  0.00    +0.061 C 
ATOM      6  C   UNL     1       1.088   6.721 -10.151  0.00  0.00    +0.151 C 
ATOM      7  O   UNL     1       0.131   7.382 -10.557  0.00  0.00    -0.296 OA
ATOM      8  C   UNL     1       1.491   5.890 -12.376  0.00  0.00    +0.022 C 
ATOM      9  C   UNL     1       2.577   5.072 -13.007  0.00  0.00    -0.042 C 
ATOM     10  C   UNL     1       2.112   4.212 -13.914  0.00  0.00    +0.029 C 
ATOM     11  C   UNL     1       0.800   4.580 -14.471  0.00  0.00    +0.173 C 
ATOM     12  C   UNL     1       0.587   6.046 -14.633  0.00  0.00    +0.069 C 
ATOM     13  O   UNL     1       0.008   3.702 -14.872  0.00  0.00    -0.291 OA
ATOM     14  C   UNL     1       4.000   5.472 -12.923  0.00  0.00    +0.022 C 
ATOM     15  C   UNL     1       0.441   5.073 -11.788  0.00  0.00    +0.004 C 
ATOM     16  C   UNL     1       0.907   6.828 -13.396  0.00  0.00    +0.012 C 
ATOM     17  C   UNL     1       4.394   5.749 -11.493  0.00  0.00    +0.005 C 
ATOM     18  C   UNL     1       4.650   5.308  -8.750  0.00  0.00    +0.003 C 
ATOM     19  C   UNL     1       2.204   4.588  -8.511  0.00  0.00    +0.003 C 
ATOM     20  C   UNL     1       1.500   7.001  -8.735  0.00  0.00    +0.067 C 
ATOM     21  C   UNL     1       4.759   6.101  -7.444  0.00  0.00    +0.038 C 
ATOM     22  O   UNL     1       2.997   7.365  -6.368  0.00  0.00    -0.218 OA
ENDROOT
BRANCH   1  23
ATOM     23  C   UNL     1       3.176   5.078  -6.083  0.00  0.00    +0.222 C 
ATOM     24  O   UNL     1       4.210   4.713  -5.516  0.00  0.00    -0.290 OA
BRANCH  23  25
ATOM     25  C   UNL     1       2.042   5.242  -5.105  0.00  0.00    +0.275 C 
BRANCH  25  26
ATOM     26  O   UNL     1       2.512   5.231  -3.757  0.00  0.00    -0.440 OA
BRANCH  26  28
ATOM     27  C   UNL     1       3.391   7.393  -2.892  0.00  0.00    +0.121 C 
ATOM     28  C   UNL     1       2.438   6.375  -2.956  0.00  0.00    +0.318 C 
ATOM     29  O   UNL     1       1.421   6.365  -2.196  0.00  0.00    -0.250 OA
ENDBRANCH  26  28
ENDBRANCH  25  26
ENDBRANCH  23  25
ENDBRANCH   1  23
TORSDOF 4
ENDMDL
MODEL 9
REMARK VINA RESULT:      -7.3      1.859      7.346
REMARK  Name = 
REMARK  4 active torsions:
REMARK  status: ('A' for Active; 'I' for Inactive)
REMARK    1  A    between atoms: C_2  and  O_4
REMARK    2  A    between atoms: O_4  and  C_5
REMARK    3  A    between atoms: C_5  and  C_6
REMARK    4  A    between atoms: C_6  and  C_8
REMARK                            x       y       z     vdW  Elec       q    Type
REMARK                         _______ _______ _______ _____ _____    ______ ____
ROOT
ATOM      1  C   UNL     1       3.266   5.584  -4.968  0.00  0.00    +0.181 C 
ATOM      2  C   UNL     1       3.122   5.800  -6.415  0.00  0.00    +0.039 C 
ATOM      3  C   UNL     1       1.706   5.015  -6.605  0.00  0.00    +0.004 C 
ATOM      4  C   UNL     1       1.248   5.959  -7.930  0.00  0.00    +0.008 C 
ATOM      5  C   UNL     1       1.827   4.770  -8.997  0.00  0.00    +0.061 C 
ATOM      6  C   UNL     1       3.359   5.211  -8.757  0.00  0.00    +0.151 C 
ATOM      7  O   UNL     1       4.034   4.719  -9.662  0.00  0.00    -0.296 OA
ATOM      8  C   UNL     1       1.587   5.707 -10.310  0.00  0.00    +0.022 C 
ATOM      9  C   UNL     1       0.185   6.218 -10.170  0.00  0.00    -0.042 C 
ATOM     10  C   UNL     1      -0.158   7.056 -11.149  0.00  0.00    +0.029 C 
ATOM     11  C   UNL     1       0.645   6.906 -12.374  0.00  0.00    +0.173 C 
ATOM     12  C   UNL     1       1.052   5.505 -12.679  0.00  0.00    +0.069 C 
ATOM     13  O   UNL     1       0.845   7.880 -13.129  0.00  0.00    -0.291 OA
ATOM     14  C   UNL     1      -0.803   5.549  -9.293  0.00  0.00    +0.022 C 
ATOM     15  C   UNL     1       2.568   6.777 -10.410  0.00  0.00    +0.004 C 
ATOM     16  C   UNL     1       1.679   4.807 -11.511  0.00  0.00    +0.012 C 
ATOM     17  C   UNL     1      -0.237   5.348  -7.908  0.00  0.00    +0.005 C 
ATOM     18  C   UNL     1       1.023   6.010  -5.509  0.00  0.00    +0.003 C 
ATOM     19  C   UNL     1       2.930   7.231  -6.703  0.00  0.00    +0.003 C 
ATOM     20  C   UNL     1       3.903   5.002  -7.373  0.00  0.00    +0.067 C 
ATOM     21  C   UNL     1       1.859   5.351  -4.407  0.00  0.00    +0.038 C 
ATOM     22  O   UNL     1       4.149   4.589  -4.590  0.00  0.00    -0.218 OA
ENDROOT
BRANCH   1  23
ATOM     23  C   UNL     1       3.655   6.809  -4.178  0.00  0.00    +0.222 C 
ATOM     24  O   UNL     1       2.756   7.457  -3.635  0.00  0.00    -0.290 OA
BRANCH  23  25
ATOM     25  C   UNL     1       4.804   6.569  -3.234  0.00  0.00    +0.275 C 
BRANCH  25  26
ATOM     26  O   UNL     1       4.426   6.815  -1.880  0.00  0.00    -0.440 OA
BRANCH  26  28
ATOM     27  C   UNL     1       3.742   4.526  -1.182  0.00  0.00    +0.121 C 
ATOM     28  C   UNL     1       4.329   5.771  -0.954  0.00  0.00    +0.318 C 
ATOM     29  O   UNL     1       4.768   6.102   0.190  0.00  0.00    -0.250 OA
ENDBRANCH  26  28
ENDBRANCH  25  26
ENDBRANCH  23  25
ENDBRANCH   1  23
TORSDOF 4
ENDMDL
