MODEL 1
REMARK VINA RESULT:      -3.3      0.000      0.000
REMARK  Name = 
REMARK  0 active torsions:
REMARK  status: ('A' for Active; 'I' for Inactive)
REMARK                            x       y       z     vdW  Elec       q    Type
REMARK                         _______ _______ _______ _____ _____    ______ ____
ROOT
ATOM      1  C   UNL     1       7.595   6.200 -10.281  0.00  0.00    +0.058 C 
ATOM      2  C   UNL     1       7.010   5.454 -11.434  0.00  0.00    +0.087 C 
ATOM      3  N   UNL     1       7.778   4.721 -12.375  0.00  0.00    -0.203 NA
ATOM      4  O   UNL     1       7.404   4.900 -13.676  0.00  0.00    -0.403 OA
ATOM      5  O   UNL     1       5.763   5.406 -11.485  0.00  0.00    -0.540 OA
ENDROOT
TORSDOF 0
ENDMDL
MODEL 2
REMARK VINA RESULT:      -3.3     13.207     13.472
REMARK  Name = 
REMARK  0 active torsions:
REMARK  status: ('A' for Active; 'I' for Inactive)
REMARK                            x       y       z     vdW  Elec       q    Type
REMARK                         _______ _______ _______ _____ _____    ______ ____
ROOT
ATOM      1  C   UNL     1      -3.111   6.830  -2.228  0.00  0.00    +0.058 C 
ATOM      2  C   UNL     1      -2.347   5.552  -2.119  0.00  0.00    +0.087 C 
ATOM      3  N   UNL     1      -1.231   5.366  -1.262  0.00  0.00    -0.203 NA
ATOM      4  O   UNL     1      -0.181   4.705  -1.833  0.00  0.00    -0.403 OA
ATOM      5  O   UNL     1      -2.806   4.579  -2.754  0.00  0.00    -0.540 OA
ENDROOT
TORSDOF 0
ENDMDL
MODEL 3
REMARK VINA RESULT:      -3.2     12.071     12.737
REMARK  Name = 
REMARK  0 active torsions:
REMARK  status: ('A' for Active; 'I' for Inactive)
REMARK                            x       y       z     vdW  Elec       q    Type
REMARK                         _______ _______ _______ _____ _____    ______ ____
ROOT
ATOM      1  C   UNL     1      -2.399   6.451  -5.009  0.00  0.00    +0.058 C 
ATOM      2  C   UNL     1      -1.958   5.604  -3.862  0.00  0.00    +0.087 C 
ATOM      3  N   UNL     1      -2.846   4.906  -3.004  0.00  0.00    -0.203 NA
ATOM      4  O   UNL     1      -2.538   4.993  -1.676  0.00  0.00    -0.403 OA
ATOM      5  O   UNL     1      -0.725   5.436  -3.743  0.00  0.00    -0.540 OA
ENDROOT
TORSDOF 0
ENDMDL
MODEL 4
REMARK VINA RESULT:      -3.2      1.535      1.543
REMARK  Name = 
REMARK  0 active torsions:
REMARK  status: ('A' for Active; 'I' for Inactive)
REMARK                            x       y       z     vdW  Elec       q    Type
REMARK                         _______ _______ _______ _____ _____    ______ ____
ROOT
ATOM      1  C   UNL     1       7.015   7.616 -10.990  0.00  0.00    +0.058 C 
ATOM      2  C   UNL     1       7.641   6.292 -11.277  0.00  0.00    +0.087 C 
ATOM      3  N   UNL     1       8.162   5.920 -12.543  0.00  0.00    -0.203 NA
ATOM      4  O   UNL     1       7.836   4.655 -12.942  0.00  0.00    -0.403 OA
ATOM      5  O   UNL     1       7.793   5.530 -10.299  0.00  0.00    -0.540 OA
ENDROOT
TORSDOF 0
ENDMDL
MODEL 5
REMARK VINA RESULT:      -3.0      2.029      2.484
REMARK  Name = 
REMARK  0 active torsions:
REMARK  status: ('A' for Active; 'I' for Inactive)
REMARK                            x       y       z     vdW  Elec       q    Type
REMARK                         _______ _______ _______ _____ _____    ______ ____
ROOT
ATOM      1  C   UNL     1       4.518   5.254 -13.600  0.00  0.00    +0.058 C 
ATOM      2  C   UNL     1       5.877   5.567 -13.067  0.00  0.00    +0.087 C 
ATOM      3  N   UNL     1       7.065   4.921 -13.496  0.00  0.00    -0.203 NA
ATOM      4  O   UNL     1       7.916   4.571 -12.487  0.00  0.00    -0.403 OA
ATOM      5  O   UNL     1       5.950   6.530 -12.275  0.00  0.00    -0.540 OA
ENDROOT
TORSDOF 0
ENDMDL
MODEL 6
REMARK VINA RESULT:      -2.8     11.588     12.254
REMARK  Name = 
REMARK  0 active torsions:
REMARK  status: ('A' for Active; 'I' for Inactive)
REMARK                            x       y       z     vdW  Elec       q    Type
REMARK                         _______ _______ _______ _____ _____    ______ ____
ROOT
ATOM      1  C   UNL     1       0.602   5.379  -3.694  0.00  0.00    +0.058 C 
ATOM      2  C   UNL     1      -0.780   5.715  -3.240  0.00  0.00    +0.087 C 
ATOM      3  N   UNL     1      -1.448   5.056  -2.176  0.00  0.00    -0.203 NA
ATOM      4  O   UNL     1      -2.754   4.747  -2.430  0.00  0.00    -0.403 OA
ATOM      5  O   UNL     1      -1.311   6.708  -3.782  0.00  0.00    -0.540 OA
ENDROOT
TORSDOF 0
ENDMDL
MODEL 7
REMARK VINA RESULT:      -2.7      6.744      6.971
REMARK  Name = 
REMARK  0 active torsions:
REMARK  status: ('A' for Active; 'I' for Inactive)
REMARK                            x       y       z     vdW  Elec       q    Type
REMARK                         _______ _______ _______ _____ _____    ______ ____
ROOT
ATOM      1  C   UNL     1       3.966   5.489  -6.849  0.00  0.00    +0.058 C 
ATOM      2  C   UNL     1       3.217   6.769  -6.679  0.00  0.00    +0.087 C 
ATOM      3  N   UNL     1       2.105   7.149  -7.474  0.00  0.00    -0.203 NA
ATOM      4  O   UNL     1       2.120   8.451  -7.885  0.00  0.00    -0.403 OA
ATOM      5  O   UNL     1       3.548   7.476  -5.704  0.00  0.00    -0.540 OA
ENDROOT
TORSDOF 0
ENDMDL
MODEL 8
REMARK VINA RESULT:      -2.5      2.500      3.135
REMARK  Name = 
REMARK  0 active torsions:
REMARK  status: ('A' for Active; 'I' for Inactive)
REMARK                            x       y       z     vdW  Elec       q    Type
REMARK                         _______ _______ _______ _____ _____    ______ ____
ROOT
ATOM      1  C   UNL     1       6.448   8.102 -11.404  0.00  0.00    +0.058 C 
ATOM      2  C   UNL     1       6.836   6.821 -10.744  0.00  0.00    +0.087 C 
ATOM      3  N   UNL     1       5.911   5.918 -10.160  0.00  0.00    -0.203 NA
ATOM      4  O   UNL     1       6.292   5.422  -8.946  0.00  0.00    -0.403 OA
ATOM      5  O   UNL     1       8.042   6.505 -10.820  0.00  0.00    -0.540 OA
ENDROOT
TORSDOF 0
ENDMDL
MODEL 9
REMARK VINA RESULT:      -2.5     13.596     13.906
REMARK  Name = 
REMARK  0 active torsions:
REMARK  status: ('A' for Active; 'I' for Inactive)
REMARK                            x       y       z     vdW  Elec       q    Type
REMARK                         _______ _______ _______ _____ _____    ______ ____
ROOT
ATOM      1  C   UNL     1      -1.588   6.635   0.347  0.00  0.00    +0.058 C 
ATOM      2  C   UNL     1      -1.507   5.970  -0.987  0.00  0.00    +0.087 C 
ATOM      3  N   UNL     1      -2.580   5.917  -1.913  0.00  0.00    -0.203 NA
ATOM      4  O   UNL     1      -2.760   4.699  -2.505  0.00  0.00    -0.403 OA
ATOM      5  O   UNL     1      -0.384   5.534  -1.318  0.00  0.00    -0.540 OA
ENDROOT
TORSDOF 0
ENDMDL
