MODEL 1
REMARK VINA RESULT:      -8.1      0.000      0.000
REMARK  Name = 
REMARK  8 active torsions:
REMARK  status: ('A' for Active; 'I' for Inactive)
REMARK    1  A    between atoms: C_2  and  C_3
REMARK    2  A    between atoms: C_2  and  N_11
REMARK    3  A    between atoms: C_3  and  C_4
REMARK    4  A    between atoms: C_4  and  C_5
REMARK    5  A    between atoms: N_11  and  C_12
REMARK    6  A    between atoms: C_12  and  C_13
REMARK    7  A    between atoms: C_13  and  C_15
REMARK    8  A    between atoms: C_20  and  C_21
REMARK                            x       y       z     vdW  Elec       q    Type
REMARK                         _______ _______ _______ _____ _____    ______ ____
ROOT
ATOM      1  C   UNL     1       1.940   6.382  -6.022  0.00  0.00    +0.126 C 
ENDROOT
BRANCH   1   2
ATOM      2  C   UNL     1       0.614   6.228  -7.030  0.00  0.00    +0.192 C 
ATOM      3  O   UNL     1       1.091   4.853  -7.532  0.00  0.00    -0.217 OA
BRANCH   2   4
ATOM      4  C   UNL     1      -0.270   5.522  -5.838  0.00  0.00    +0.009 A 
ATOM      5  C   UNL     1      -0.223   6.260  -4.656  0.00  0.00    +0.006 A 
ATOM      6  C   UNL     1      -1.265   6.052  -3.760  0.00  0.00    +0.095 A 
ATOM      7  C   UNL     1      -2.459   5.507  -4.214  0.00  0.00    +0.200 A 
ATOM      8  O   UNL     1      -3.444   5.079  -3.331  0.00  0.00    -0.286 OA
ATOM      9  C   UNL     1      -2.679   5.561  -5.569  0.00  0.00    +0.042 A 
ATOM     10  C   UNL     1      -1.553   5.419  -6.373  0.00  0.00    +0.001 A 
BRANCH   6  11
ATOM     11  C   UNL     1      -1.032   5.910  -2.315  0.00  0.00    +0.287 C 
ATOM     12  O   UNL     1      -1.207   6.921  -1.569  0.00  0.00    -0.267 OA
ATOM     13  N   UNL     1      -0.099   4.876  -1.980  0.00  0.00    -0.084 NA
ENDBRANCH   6  11
ENDBRANCH   2   4
ENDBRANCH   1   2
BRANCH   1  14
ATOM     14  N   UNL     1       2.551   5.076  -6.274  0.00  0.00    -0.216 NA
BRANCH  14  16
ATOM     15  C   UNL     1       3.850   6.823  -5.408  0.00  0.00    +0.019 C 
ATOM     16  C   UNL     1       4.108   5.330  -6.077  0.00  0.00    +0.073 C 
BRANCH  16  17
ATOM     17  C   UNL     1       4.332   5.963  -7.591  0.00  0.00    +0.022 C 
BRANCH  17  18
ATOM     18  C   UNL     1       5.291   5.104  -8.317  0.00  0.00    +0.028 C 
BRANCH  18  19
ATOM     19  C   UNL     1       5.824   5.901  -9.450  0.00  0.00    -0.022 A 
ATOM     20  C   UNL     1       7.174   5.776  -9.766  0.00  0.00    -0.004 A 
ATOM     21  C   UNL     1       7.760   6.930 -10.274  0.00  0.00    -0.000 A 
ATOM     22  C   UNL     1       6.951   7.673 -11.105  0.00  0.00    -0.000 A 
ATOM     23  C   UNL     1       5.592   7.422 -11.250  0.00  0.00    -0.000 A 
ATOM     24  C   UNL     1       5.037   6.556 -10.362  0.00  0.00    -0.004 A 
ENDBRANCH  18  19
ENDBRANCH  17  18
ENDBRANCH  16  17
ENDBRANCH  14  16
ENDBRANCH   1  14
TORSDOF 8
ENDMDL
MODEL 2
REMARK VINA RESULT:      -8.1      3.632      9.370
REMARK  Name = 
REMARK  8 active torsions:
REMARK  status: ('A' for Active; 'I' for Inactive)
REMARK    1  A    between atoms: C_2  and  C_3
REMARK    2  A    between atoms: C_2  and  N_11
REMARK    3  A    between atoms: C_3  and  C_4
REMARK    4  A    between atoms: C_4  and  C_5
REMARK    5  A    between atoms: N_11  and  C_12
REMARK    6  A    between atoms: C_12  and  C_13
REMARK    7  A    between atoms: C_13  and  C_15
REMARK    8  A    between atoms: C_20  and  C_21
REMARK                            x       y       z     vdW  Elec       q    Type
REMARK                         _______ _______ _______ _____ _____    ______ ____
ROOT
ATOM      1  C   UNL     1       3.053   5.713 -10.192  0.00  0.00    +0.126 C 
ENDROOT
BRANCH   1   2
ATOM      2  C   UNL     1       4.241   5.999  -9.049  0.00  0.00    +0.192 C 
ATOM      3  O   UNL     1       4.187   4.542  -8.555  0.00  0.00    -0.217 OA
BRANCH   2   4
ATOM      4  C   UNL     1       5.429   5.626 -10.121  0.00  0.00    +0.009 A 
ATOM      5  C   UNL     1       5.400   6.465 -11.234  0.00  0.00    +0.006 A 
ATOM      6  C   UNL     1       6.585   6.576 -11.951  0.00  0.00    +0.095 A 
ATOM      7  C   UNL     1       7.787   6.241 -11.340  0.00  0.00    +0.200 A 
ATOM      8  O   UNL     1       8.965   6.125 -12.071  0.00  0.00    -0.286 OA
ATOM      9  C   UNL     1       7.782   6.190  -9.968  0.00  0.00    +0.042 A 
ATOM     10  C   UNL     1       6.606   5.731  -9.382  0.00  0.00    +0.001 A 
BRANCH   6  11
ATOM     11  C   UNL     1       6.612   6.549 -13.420  0.00  0.00    +0.287 C 
ATOM     12  O   UNL     1       6.416   7.632 -14.052  0.00  0.00    -0.267 OA
ATOM     13  N   UNL     1       6.271   5.276 -13.980  0.00  0.00    -0.084 NA
ENDBRANCH   6  11
ENDBRANCH   2   4
ENDBRANCH   1   2
BRANCH   1  14
ATOM     14  N   UNL     1       2.222   4.797  -9.409  0.00  0.00    -0.216 NA
BRANCH  14  16
ATOM     15  C   UNL     1       1.212   6.132 -11.050  0.00  0.00    +0.019 C 
ATOM     16  C   UNL     1       0.835   4.768 -10.188  0.00  0.00    +0.073 C 
BRANCH  16  17
ATOM     17  C   UNL     1       0.018   5.631  -9.036  0.00  0.00    +0.022 C 
BRANCH  17  18
ATOM     18  C   UNL     1       0.568   5.276  -7.711  0.00  0.00    +0.028 C 
BRANCH  18  19
ATOM     19  C   UNL     1      -0.375   5.794  -6.689  0.00  0.00    -0.022 A 
ATOM     20  C   UNL     1      -1.635   5.210  -6.600  0.00  0.00    -0.004 A 
ATOM     21  C   UNL     1      -2.650   6.076  -6.207  0.00  0.00    -0.000 A 
ATOM     22  C   UNL     1      -2.283   7.007  -5.261  0.00  0.00    -0.000 A 
ATOM     23  C   UNL     1      -0.960   7.220  -4.891  0.00  0.00    -0.000 A 
ATOM     24  C   UNL     1      -0.011   6.632  -5.666  0.00  0.00    -0.004 A 
ENDBRANCH  18  19
ENDBRANCH  17  18
ENDBRANCH  16  17
ENDBRANCH  14  16
ENDBRANCH   1  14
TORSDOF 8
ENDMDL
MODEL 3
REMARK VINA RESULT:      -8.0      3.966      6.863
REMARK  Name = 
REMARK  8 active torsions:
REMARK  status: ('A' for Active; 'I' for Inactive)
REMARK    1  A    between atoms: C_2  and  C_3
REMARK    2  A    between atoms: C_2  and  N_11
REMARK    3  A    between atoms: C_3  and  C_4
REMARK    4  A    between atoms: C_4  and  C_5
REMARK    5  A    between atoms: N_11  and  C_12
REMARK    6  A    between atoms: C_12  and  C_13
REMARK    7  A    between atoms: C_13  and  C_15
REMARK    8  A    between atoms: C_20  and  C_21
REMARK                            x       y       z     vdW  Elec       q    Type
REMARK                         _______ _______ _______ _____ _____    ______ ____
ROOT
ATOM      1  C   UNL     1       1.643   5.023  -9.396  0.00  0.00    +0.126 C 
ENDROOT
BRANCH   1   2
ATOM      2  C   UNL     1       0.435   6.074  -9.882  0.00  0.00    +0.192 C 
ATOM      3  O   UNL     1       1.115   7.261  -9.176  0.00  0.00    -0.217 OA
BRANCH   2   4
ATOM      4  C   UNL     1       1.226   6.411 -11.282  0.00  0.00    +0.009 A 
ATOM      5  C   UNL     1       1.548   5.251 -11.984  0.00  0.00    +0.006 A 
ATOM      6  C   UNL     1       1.771   5.400 -13.348  0.00  0.00    +0.095 A 
ATOM      7  C   UNL     1       1.268   6.515 -14.005  0.00  0.00    +0.200 A 
ATOM      8  O   UNL     1       1.643   6.821 -15.308  0.00  0.00    -0.286 OA
ATOM      9  C   UNL     1       0.267   7.203 -13.363  0.00  0.00    +0.042 A 
ATOM     10  C   UNL     1       0.358   7.253 -11.975  0.00  0.00    +0.001 A 
BRANCH   6  11
ATOM     11  C   UNL     1       2.889   4.734 -14.032  0.00  0.00    +0.287 C 
ATOM     12  O   UNL     1       2.699   3.581 -14.527  0.00  0.00    -0.267 OA
ATOM     13  N   UNL     1       4.179   5.156 -13.574  0.00  0.00    -0.084 NA
ENDBRANCH   6  11
ENDBRANCH   2   4
ENDBRANCH   1   2
BRANCH   1  14
ATOM     14  N   UNL     1       1.552   5.247  -7.953  0.00  0.00    -0.216 NA
BRANCH  14  16
ATOM     15  C   UNL     1       3.421   6.069  -6.802  0.00  0.00    +0.019 C 
ATOM     16  C   UNL     1       2.888   4.608  -7.374  0.00  0.00    +0.073 C 
BRANCH  16  17
ATOM     17  C   UNL     1       3.735   4.768  -8.788  0.00  0.00    +0.022 C 
BRANCH  17  18
ATOM     18  C   UNL     1       5.154   5.010  -8.455  0.00  0.00    +0.028 C 
BRANCH  18  19
ATOM     19  C   UNL     1       5.712   5.885  -9.516  0.00  0.00    -0.022 A 
ATOM     20  C   UNL     1       7.051   5.731  -9.860  0.00  0.00    -0.004 A 
ATOM     21  C   UNL     1       7.685   6.901 -10.266  0.00  0.00    -0.000 A 
ATOM     22  C   UNL     1       6.903   7.754 -11.013  0.00  0.00    -0.000 A 
ATOM     23  C   UNL     1       5.532   7.579 -11.162  0.00  0.00    -0.000 A 
ATOM     24  C   UNL     1       4.947   6.658 -10.352  0.00  0.00    -0.004 A 
ENDBRANCH  18  19
ENDBRANCH  17  18
ENDBRANCH  16  17
ENDBRANCH  14  16
ENDBRANCH   1  14
TORSDOF 8
ENDMDL
MODEL 4
REMARK VINA RESULT:      -7.9      3.733      7.253
REMARK  Name = 
REMARK  8 active torsions:
REMARK  status: ('A' for Active; 'I' for Inactive)
REMARK    1  A    between atoms: C_2  and  C_3
REMARK    2  A    between atoms: C_2  and  N_11
REMARK    3  A    between atoms: C_3  and  C_4
REMARK    4  A    between atoms: C_4  and  C_5
REMARK    5  A    between atoms: N_11  and  C_12
REMARK    6  A    between atoms: C_12  and  C_13
REMARK    7  A    between atoms: C_13  and  C_15
REMARK    8  A    between atoms: C_20  and  C_21
REMARK                            x       y       z     vdW  Elec       q    Type
REMARK                         _______ _______ _______ _____ _____    ______ ____
ROOT
ATOM      1  C   UNL     1       2.640   6.876  -6.817  0.00  0.00    +0.126 C 
ENDROOT
BRANCH   1   2
ATOM      2  C   UNL     1       3.209   5.442  -6.170  0.00  0.00    +0.192 C 
ATOM      3  O   UNL     1       4.673   5.867  -6.387  0.00  0.00    -0.217 OA
BRANCH   2   4
ATOM      4  C   UNL     1       3.217   6.074  -4.653  0.00  0.00    +0.009 A 
ATOM      5  C   UNL     1       3.653   5.145  -3.711  0.00  0.00    +0.006 A 
ATOM      6  C   UNL     1       4.150   5.663  -2.521  0.00  0.00    +0.095 A 
ATOM      7  C   UNL     1       4.587   6.981  -2.479  0.00  0.00    +0.200 A 
ATOM      8  O   UNL     1       4.886   7.609  -1.275  0.00  0.00    -0.286 OA
ATOM      9  C   UNL     1       4.860   7.572  -3.689  0.00  0.00    +0.042 A 
ATOM     10  C   UNL     1       4.043   7.192  -4.749  0.00  0.00    +0.001 A 
BRANCH   6  11
ATOM     11  C   UNL     1       3.798   5.089  -1.214  0.00  0.00    +0.287 C 
ATOM     12  O   UNL     1       4.551   4.195  -0.720  0.00  0.00    -0.267 OA
ATOM     13  N   UNL     1       2.398   5.147  -0.916  0.00  0.00    -0.084 NA
ENDBRANCH   6  11
ENDBRANCH   2   4
ENDBRANCH   1   2
BRANCH   1  14
ATOM     14  N   UNL     1       1.209   6.650  -6.606  0.00  0.00    -0.216 NA
BRANCH  14  16
ATOM     15  C   UNL     1      -0.093   5.622  -8.261  0.00  0.00    +0.019 C 
ATOM     16  C   UNL     1       0.976   5.152  -7.086  0.00  0.00    +0.073 C 
BRANCH  16  17
ATOM     17  C   UNL     1      -0.235   4.851  -5.998  0.00  0.00    +0.022 C 
BRANCH  17  18
ATOM     18  C   UNL     1      -1.422   5.638  -6.393  0.00  0.00    +0.028 C 
BRANCH  18  19
ATOM     19  C   UNL     1      -2.087   6.087  -5.145  0.00  0.00    -0.022 A 
ATOM     20  C   UNL     1      -2.136   7.452  -4.880  0.00  0.00    -0.004 A 
ATOM     21  C   UNL     1      -2.096   7.783  -3.529  0.00  0.00    -0.000 A 
ATOM     22  C   UNL     1      -2.783   6.922  -2.702  0.00  0.00    -0.000 A 
ATOM     23  C   UNL     1      -3.285   5.702  -3.139  0.00  0.00    -0.000 A 
ATOM     24  C   UNL     1      -2.873   5.280  -4.363  0.00  0.00    -0.004 A 
ENDBRANCH  18  19
ENDBRANCH  17  18
ENDBRANCH  16  17
ENDBRANCH  14  16
ENDBRANCH   1  14
TORSDOF 8
ENDMDL
MODEL 5
REMARK VINA RESULT:      -7.9      3.747      7.633
REMARK  Name = 
REMARK  8 active torsions:
REMARK  status: ('A' for Active; 'I' for Inactive)
REMARK    1  A    between atoms: C_2  and  C_3
REMARK    2  A    between atoms: C_2  and  N_11
REMARK    3  A    between atoms: C_3  and  C_4
REMARK    4  A    between atoms: C_4  and  C_5
REMARK    5  A    between atoms: N_11  and  C_12
REMARK    6  A    between atoms: C_12  and  C_13
REMARK    7  A    between atoms: C_13  and  C_15
REMARK    8  A    between atoms: C_20  and  C_21
REMARK                            x       y       z     vdW  Elec       q    Type
REMARK                         _______ _______ _______ _____ _____    ______ ____
ROOT
ATOM      1  C   UNL     1       2.323   6.692  -8.945  0.00  0.00    +0.126 C 
ENDROOT
BRANCH   1   2
ATOM      2  C   UNL     1       2.129   5.294  -9.842  0.00  0.00    +0.192 C 
ATOM      3  O   UNL     1       1.838   6.097 -11.123  0.00  0.00    -0.217 OA
BRANCH   2   4
ATOM      4  C   UNL     1       3.732   5.243 -10.199  0.00  0.00    +0.009 A 
ATOM      5  C   UNL     1       4.211   6.491 -10.595  0.00  0.00    +0.006 A 
ATOM      6  C   UNL     1       5.579   6.695 -10.463  0.00  0.00    +0.095 A 
ATOM      7  C   UNL     1       6.308   5.893  -9.594  0.00  0.00    +0.200 A 
ATOM      8  O   UNL     1       7.699   5.908  -9.586  0.00  0.00    -0.286 OA
ATOM      9  C   UNL     1       5.589   5.212  -8.642  0.00  0.00    +0.042 A 
ATOM     10  C   UNL     1       4.331   4.767  -9.035  0.00  0.00    +0.001 A 
BRANCH   6  11
ATOM     11  C   UNL     1       6.375   7.349 -11.511  0.00  0.00    +0.287 C 
ATOM     12  O   UNL     1       6.517   8.610 -11.469  0.00  0.00    -0.267 OA
ATOM     13  N   UNL     1       6.405   6.627 -12.748  0.00  0.00    -0.084 NA
ENDBRANCH   6  11
ENDBRANCH   2   4
ENDBRANCH   1   2
BRANCH   1  14
ATOM     14  N   UNL     1       1.027   6.691  -8.266  0.00  0.00    -0.216 NA
BRANCH  14  16
ATOM     15  C   UNL     1      -0.758   5.426  -7.423  0.00  0.00    +0.019 C 
ATOM     16  C   UNL     1       0.842   5.186  -7.784  0.00  0.00    +0.073 C 
BRANCH  16  17
ATOM     17  C   UNL     1       1.316   5.487  -6.226  0.00  0.00    +0.022 C 
BRANCH  17  18
ATOM     18  C   UNL     1       2.434   4.578  -5.897  0.00  0.00    +0.028 C 
BRANCH  18  19
ATOM     19  C   UNL     1       3.468   5.386  -5.203  0.00  0.00    -0.022 A 
ATOM     20  C   UNL     1       4.325   4.738  -4.319  0.00  0.00    -0.004 A 
ATOM     21  C   UNL     1       4.746   5.516  -3.245  0.00  0.00    -0.000 A 
ATOM     22  C   UNL     1       4.980   6.840  -3.544  0.00  0.00    -0.000 A 
ATOM     23  C   UNL     1       4.612   7.411  -4.757  0.00  0.00    -0.000 A 
ATOM     24  C   UNL     1       3.802   6.668  -5.557  0.00  0.00    -0.004 A 
ENDBRANCH  18  19
ENDBRANCH  17  18
ENDBRANCH  16  17
ENDBRANCH  14  16
ENDBRANCH   1  14
TORSDOF 8
ENDMDL
MODEL 6
REMARK VINA RESULT:      -7.8      2.067      4.772
REMARK  Name = 
REMARK  8 active torsions:
REMARK  status: ('A' for Active; 'I' for Inactive)
REMARK    1  A    between atoms: C_2  and  C_3
REMARK    2  A    between atoms: C_2  and  N_11
REMARK    3  A    between atoms: C_3  and  C_4
REMARK    4  A    between atoms: C_4  and  C_5
REMARK    5  A    between atoms: N_11  and  C_12
REMARK    6  A    between atoms: C_12  and  C_13
REMARK    7  A    between atoms: C_13  and  C_15
REMARK    8  A    between atoms: C_20  and  C_21
REMARK                            x       y       z     vdW  Elec       q    Type
REMARK                         _______ _______ _______ _____ _____    ______ ____
ROOT
ATOM      1  C   UNL     1       1.751   4.546  -7.057  0.00  0.00    +0.126 C 
ENDROOT
BRANCH   1   2
ATOM      2  C   UNL     1       1.034   6.025  -6.745  0.00  0.00    +0.192 C 
ATOM      3  O   UNL     1      -0.043   5.786  -7.819  0.00  0.00    -0.217 OA
BRANCH   2   4
ATOM      4  C   UNL     1       0.071   5.367  -5.587  0.00  0.00    +0.009 A 
ATOM      5  C   UNL     1       0.168   6.062  -4.383  0.00  0.00    +0.006 A 
ATOM      6  C   UNL     1      -0.902   5.923  -3.506  0.00  0.00    +0.095 A 
ATOM      7  C   UNL     1      -2.134   5.504  -3.992  0.00  0.00    +0.200 A 
ATOM      8  O   UNL     1      -3.167   5.142  -3.135  0.00  0.00    -0.286 OA
ATOM      9  C   UNL     1      -2.328   5.620  -5.347  0.00  0.00    +0.042 A 
ATOM     10  C   UNL     1      -1.207   5.399  -6.141  0.00  0.00    +0.001 A 
BRANCH   6  11
ATOM     11  C   UNL     1      -0.706   5.716  -2.064  0.00  0.00    +0.287 C 
ATOM     12  O   UNL     1      -0.844   6.707  -1.283  0.00  0.00    -0.267 OA
ATOM     13  N   UNL     1       0.167   4.625  -1.751  0.00  0.00    -0.084 NA
ENDBRANCH   6  11
ENDBRANCH   2   4
ENDBRANCH   1   2
BRANCH   1  14
ATOM     14  N   UNL     1       2.943   4.708  -6.224  0.00  0.00    -0.216 NA
BRANCH  14  16
ATOM     15  C   UNL     1       4.737   5.414  -7.557  0.00  0.00    +0.019 C 
ATOM     16  C   UNL     1       3.535   6.119  -6.661  0.00  0.00    +0.073 C 
BRANCH  16  17
ATOM     17  C   UNL     1       4.510   6.271  -5.332  0.00  0.00    +0.022 C 
BRANCH  17  18
ATOM     18  C   UNL     1       3.966   7.347  -4.477  0.00  0.00    +0.028 C 
BRANCH  18  19
ATOM     19  C   UNL     1       3.923   6.825  -3.088  0.00  0.00    -0.022 A 
ATOM     20  C   UNL     1       3.955   7.740  -2.040  0.00  0.00    -0.004 A 
ATOM     21  C   UNL     1       4.590   7.283  -0.890  0.00  0.00    -0.000 A 
ATOM     22  C   UNL     1       4.381   5.952  -0.602  0.00  0.00    -0.000 A 
ATOM     23  C   UNL     1       3.777   5.077  -1.497  0.00  0.00    -0.000 A 
ATOM     24  C   UNL     1       3.603   5.531  -2.766  0.00  0.00    -0.004 A 
ENDBRANCH  18  19
ENDBRANCH  17  18
ENDBRANCH  16  17
ENDBRANCH  14  16
ENDBRANCH   1  14
TORSDOF 8
ENDMDL
MODEL 7
REMARK VINA RESULT:      -7.8      3.146      9.294
REMARK  Name = 
REMARK  8 active torsions:
REMARK  status: ('A' for Active; 'I' for Inactive)
REMARK    1  A    between atoms: C_2  and  C_3
REMARK    2  A    between atoms: C_2  and  N_11
REMARK    3  A    between atoms: C_3  and  C_4
REMARK    4  A    between atoms: C_4  and  C_5
REMARK    5  A    between atoms: N_11  and  C_12
REMARK    6  A    between atoms: C_12  and  C_13
REMARK    7  A    between atoms: C_13  and  C_15
REMARK    8  A    between atoms: C_20  and  C_21
REMARK                            x       y       z     vdW  Elec       q    Type
REMARK                         _______ _______ _______ _____ _____    ______ ____
ROOT
ATOM      1  C   UNL     1       2.562   5.269  -8.676  0.00  0.00    +0.126 C 
ENDROOT
BRANCH   1   2
ATOM      2  C   UNL     1       3.804   6.376  -8.496  0.00  0.00    +0.192 C 
ATOM      3  O   UNL     1       4.425   5.568  -7.342  0.00  0.00    -0.217 OA
BRANCH   2   4
ATOM      4  C   UNL     1       4.734   5.584  -9.594  0.00  0.00    +0.009 A 
ATOM      5  C   UNL     1       4.737   6.230 -10.829  0.00  0.00    +0.006 A 
ATOM      6  C   UNL     1       5.814   5.956 -11.664  0.00  0.00    +0.095 A 
ATOM      7  C   UNL     1       6.987   5.448 -11.121  0.00  0.00    +0.200 A 
ATOM      8  O   UNL     1       8.007   4.956 -11.929  0.00  0.00    -0.286 OA
ATOM      9  C   UNL     1       7.152   5.605  -9.767  0.00  0.00    +0.042 A 
ATOM     10  C   UNL     1       5.993   5.522  -9.001  0.00  0.00    +0.001 A 
BRANCH   6  11
ATOM     11  C   UNL     1       5.640   5.705 -13.102  0.00  0.00    +0.287 C 
ATOM     12  O   UNL     1       5.854   6.656 -13.915  0.00  0.00    -0.267 OA
ATOM     13  N   UNL     1       4.715   4.653 -13.396  0.00  0.00    -0.084 NA
ENDBRANCH   6  11
ENDBRANCH   2   4
ENDBRANCH   1   2
BRANCH   1  14
ATOM     14  N   UNL     1       2.168   5.163  -7.270  0.00  0.00    -0.216 NA
BRANCH  14  16
ATOM     15  C   UNL     1       1.500   6.747  -5.677  0.00  0.00    +0.019 C 
ATOM     16  C   UNL     1       0.948   6.174  -7.131  0.00  0.00    +0.073 C 
BRANCH  16  17
ATOM     17  C   UNL     1      -0.054   5.074  -6.404  0.00  0.00    +0.022 C 
BRANCH  17  18
ATOM     18  C   UNL     1      -1.449   5.524  -6.588  0.00  0.00    +0.028 C 
BRANCH  18  19
ATOM     19  C   UNL     1      -1.893   6.120  -5.303  0.00  0.00    -0.022 A 
ATOM     20  C   UNL     1      -2.375   7.425  -5.315  0.00  0.00    -0.004 A 
ATOM     21  C   UNL     1      -2.119   8.149  -4.155  0.00  0.00    -0.000 A 
ATOM     22  C   UNL     1      -2.202   7.422  -2.988  0.00  0.00    -0.000 A 
ATOM     23  C   UNL     1      -2.308   6.037  -2.973  0.00  0.00    -0.000 A 
ATOM     24  C   UNL     1      -2.096   5.399  -4.155  0.00  0.00    -0.004 A 
ENDBRANCH  18  19
ENDBRANCH  17  18
ENDBRANCH  16  17
ENDBRANCH  14  16
ENDBRANCH   1  14
TORSDOF 8
ENDMDL
MODEL 8
REMARK VINA RESULT:      -7.7      4.146      8.271
REMARK  Name = 
REMARK  8 active torsions:
REMARK  status: ('A' for Active; 'I' for Inactive)
REMARK    1  A    between atoms: C_2  and  C_3
REMARK    2  A    between atoms: C_2  and  N_11
REMARK    3  A    between atoms: C_3  and  C_4
REMARK    4  A    between atoms: C_4  and  C_5
REMARK    5  A    between atoms: N_11  and  C_12
REMARK    6  A    between atoms: C_12  and  C_13
REMARK    7  A    between atoms: C_13  and  C_15
REMARK    8  A    between atoms: C_20  and  C_21
REMARK                            x       y       z     vdW  Elec       q    Type
REMARK                         _______ _______ _______ _____ _____    ______ ____
ROOT
ATOM      1  C   UNL     1       2.657   4.585  -9.071  0.00  0.00    +0.126 C 
ENDROOT
BRANCH   1   2
ATOM      2  C   UNL     1       3.617   5.899  -8.683  0.00  0.00    +0.192 C 
ATOM      3  O   UNL     1       4.247   5.151  -7.494  0.00  0.00    -0.217 OA
BRANCH   2   4
ATOM      4  C   UNL     1       4.812   5.381  -9.684  0.00  0.00    +0.009 A 
ATOM      5  C   UNL     1       4.882   6.151 -10.844  0.00  0.00    +0.006 A 
ATOM      6  C   UNL     1       6.097   6.137 -11.519  0.00  0.00    +0.095 A 
ATOM      7  C   UNL     1       7.250   5.758 -10.844  0.00  0.00    +0.200 A 
ATOM      8  O   UNL     1       8.441   5.517 -11.519  0.00  0.00    -0.286 OA
ATOM      9  C   UNL     1       7.193   5.789  -9.472  0.00  0.00    +0.042 A 
ATOM     10  C   UNL     1       5.967   5.448  -8.907  0.00  0.00    +0.001 A 
BRANCH   6  11
ATOM     11  C   UNL     1       6.173   6.020 -12.983  0.00  0.00    +0.287 C 
ATOM     12  O   UNL     1       6.371   7.070 -13.667  0.00  0.00    -0.267 OA
ATOM     13  N   UNL     1       5.455   4.899 -13.510  0.00  0.00    -0.084 NA
ENDBRANCH   6  11
ENDBRANCH   2   4
ENDBRANCH   1   2
BRANCH   1  14
ATOM     14  N   UNL     1       1.701   4.688  -7.967  0.00  0.00    -0.216 NA
BRANCH  14  16
ATOM     15  C   UNL     1      -0.478   5.431  -7.527  0.00  0.00    +0.019 C 
ATOM     16  C   UNL     1       0.874   6.008  -8.290  0.00  0.00    +0.073 C 
BRANCH  16  17
ATOM     17  C   UNL     1       0.356   5.482  -9.772  0.00  0.00    +0.022 C 
BRANCH  17  18
ATOM     18  C   UNL     1      -0.149   6.646 -10.529  0.00  0.00    +0.028 C 
BRANCH  18  19
ATOM     19  C   UNL     1       0.364   6.526 -11.916  0.00  0.00    -0.022 A 
ATOM     20  C   UNL     1       0.805   5.279 -12.349  0.00  0.00    -0.004 A 
ATOM     21  C   UNL     1       1.847   5.320 -13.270  0.00  0.00    -0.000 A 
ATOM     22  C   UNL     1       1.774   6.350 -14.182  0.00  0.00    -0.000 A 
ATOM     23  C   UNL     1       0.868   7.397 -14.060  0.00  0.00    -0.000 A 
ATOM     24  C   UNL     1       0.203   7.490 -12.878  0.00  0.00    -0.004 A 
ENDBRANCH  18  19
ENDBRANCH  17  18
ENDBRANCH  16  17
ENDBRANCH  14  16
ENDBRANCH   1  14
TORSDOF 8
ENDMDL
MODEL 9
REMARK VINA RESULT:      -7.6      1.873      3.011
REMARK  Name = 
REMARK  8 active torsions:
REMARK  status: ('A' for Active; 'I' for Inactive)
REMARK    1  A    between atoms: C_2  and  C_3
REMARK    2  A    between atoms: C_2  and  N_11
REMARK    3  A    between atoms: C_3  and  C_4
REMARK    4  A    between atoms: C_4  and  C_5
REMARK    5  A    between atoms: N_11  and  C_12
REMARK    6  A    between atoms: C_12  and  C_13
REMARK    7  A    between atoms: C_13  and  C_15
REMARK    8  A    between atoms: C_20  and  C_21
REMARK                            x       y       z     vdW  Elec       q    Type
REMARK                         _______ _______ _______ _____ _____    ______ ____
ROOT
ATOM      1  C   UNL     1       2.088   5.867  -5.688  0.00  0.00    +0.126 C 
ENDROOT
BRANCH   1   2
ATOM      2  C   UNL     1       2.837   5.423  -4.260  0.00  0.00    +0.192 C 
ATOM      3  O   UNL     1       3.583   6.768  -4.174  0.00  0.00    -0.217 OA
BRANCH   2   4
ATOM      4  C   UNL     1       1.594   6.019  -3.366  0.00  0.00    +0.009 A 
ATOM      5  C   UNL     1       0.408   5.327  -3.608  0.00  0.00    +0.006 A 
ATOM      6  C   UNL     1      -0.560   5.399  -2.614  0.00  0.00    +0.095 A 
ATOM      7  C   UNL     1      -0.187   5.747  -1.321  0.00  0.00    +0.200 A 
ATOM      8  O   UNL     1      -1.135   6.045  -0.348  0.00  0.00    -0.286 OA
ATOM      9  C   UNL     1       1.146   5.625  -1.016  0.00  0.00    +0.042 A 
ATOM     10  C   UNL     1       2.034   5.915  -2.048  0.00  0.00    +0.001 A 
BRANCH   6  11
ATOM     11  C   UNL     1      -1.981   5.612  -2.924  0.00  0.00    +0.287 C 
ATOM     12  O   UNL     1      -2.786   4.642  -2.780  0.00  0.00    -0.267 OA
ATOM     13  N   UNL     1      -2.213   6.651  -3.881  0.00  0.00    -0.084 NA
ENDBRANCH   6  11
ENDBRANCH   2   4
ENDBRANCH   1   2
BRANCH   1  14
ATOM     14  N   UNL     1       2.984   6.960  -6.067  0.00  0.00    -0.216 NA
BRANCH  14  16
ATOM     15  C   UNL     1       1.327   6.324  -7.598  0.00  0.00    +0.019 C 
ATOM     16  C   UNL     1       2.796   7.089  -7.642  0.00  0.00    +0.073 C 
BRANCH  16  17
ATOM     17  C   UNL     1       3.602   5.684  -7.987  0.00  0.00    +0.022 C 
BRANCH  17  18
ATOM     18  C   UNL     1       3.736   5.573  -9.455  0.00  0.00    +0.028 C 
BRANCH  18  19
ATOM     19  C   UNL     1       5.066   6.122  -9.818  0.00  0.00    -0.022 A 
ATOM     20  C   UNL     1       5.113   7.272 -10.599  0.00  0.00    -0.004 A 
ATOM     21  C   UNL     1       6.207   7.348 -11.455  0.00  0.00    -0.000 A 
ATOM     22  C   UNL     1       7.382   6.849 -10.938  0.00  0.00    -0.000 A 
ATOM     23  C   UNL     1       7.433   6.124  -9.754  0.00  0.00    -0.000 A 
ATOM     24  C   UNL     1       6.242   5.725  -9.235  0.00  0.00    -0.004 A 
ENDBRANCH  18  19
ENDBRANCH  17  18
ENDBRANCH  16  17
ENDBRANCH  14  16
ENDBRANCH   1  14
TORSDOF 8
ENDMDL
