MODEL 1
REMARK VINA RESULT:      -8.3      0.000      0.000
REMARK  Name = 
REMARK  12 active torsions:
REMARK  status: ('A' for Active; 'I' for Inactive)
REMARK    1  A    between atoms: C_2  and  O_4
REMARK    2  A    between atoms: O_4  and  C_5
REMARK    3  A    between atoms: C_5  and  C_7
REMARK    4  A    between atoms: C_7  and  N_9
REMARK    5  A    between atoms: N_9  and  P_10
REMARK    6  A    between atoms: P_10  and  C_12
REMARK    7  A    between atoms: P_10  and  O_27
REMARK    8  A    between atoms: C_12  and  O_13
REMARK    9  A    between atoms: O_13  and  C_14
REMARK   10  A    between atoms: C_14  and  C_16
REMARK   11  A    between atoms: C_16  and  N_17
REMARK   12  A    between atoms: O_27  and  C_28
REMARK                            x       y       z     vdW  Elec       q    Type
REMARK                         _______ _______ _______ _____ _____    ______ ____
ROOT
ATOM      1  P   UNL     1       2.465   6.977  -8.271  0.00  0.00    +0.375 P 
ATOM      2  O   UNL     1       2.063   8.414  -7.954  0.00  0.00    -0.254 OA
ENDROOT
BRANCH   1   3
ATOM      3  C   UNL     1       3.351   6.411  -6.780  0.00  0.00    +0.259 C 
BRANCH   3   4
ATOM      4  O   UNL     1       3.122   7.376  -5.780  0.00  0.00    -0.343 OA
BRANCH   4   5
ATOM      5  C   UNL     1       3.383   6.591  -4.473  0.00  0.00    +0.139 C 
ATOM      6  C   UNL     1       4.709   5.813  -5.155  0.00  0.00    +0.034 C 
BRANCH   5   7
ATOM      7  C   UNL     1       2.362   5.349  -4.965  0.00  0.00    +0.138 C 
BRANCH   7   8
ATOM      8  N   UNL     1       1.187   5.608  -4.161  0.00  0.00    -0.292 N 
ATOM      9  C   UNL     1      -0.105   5.506  -4.556  0.00  0.00    +0.167 A 
ATOM     10  N   UNL     1      -0.700   5.389  -5.752  0.00  0.00    -0.205 NA
ATOM     11  C   UNL     1      -2.014   5.698  -5.873  0.00  0.00    +0.202 A 
ATOM     12  N   UNL     1      -2.741   6.093  -4.812  0.00  0.00    -0.204 NA
ATOM     13  C   UNL     1      -2.189   6.179  -3.579  0.00  0.00    +0.192 A 
ATOM     14  N   UNL     1      -2.932   6.597  -2.448  0.00  0.00    -0.105 NA
ATOM     15  C   UNL     1      -0.832   5.908  -3.442  0.00  0.00    +0.152 A 
ATOM     16  N   UNL     1      -0.001   5.861  -2.390  0.00  0.00    -0.219 NA
ATOM     17  C   UNL     1       1.212   5.498  -2.810  0.00  0.00    +0.180 A 
ENDBRANCH   7   8
ENDBRANCH   5   7
ENDBRANCH   4   5
ENDBRANCH   3   4
ENDBRANCH   1   3
BRANCH   1  18
ATOM     18  N   UNL     1       3.607   6.893  -9.579  0.00  0.00    -0.124 NA
BRANCH  18  19
ATOM     19  C   UNL     1       4.053   5.355  -9.662  0.00  0.00    +0.181 C 
ATOM     20  C   UNL     1       4.119   5.416 -11.334  0.00  0.00    +0.031 C 
BRANCH  19  21
ATOM     21  C   UNL     1       5.640   5.765  -9.550  0.00  0.00    +0.333 C 
ATOM     22  O   UNL     1       6.235   5.082  -8.679  0.00  0.00    -0.249 OA
BRANCH  21  23
ATOM     23  O   UNL     1       6.225   5.783 -10.823  0.00  0.00    -0.451 OA
BRANCH  23  25
ATOM     24  C   UNL     1       7.760   6.499 -11.459  0.00  0.00    +0.047 C 
ATOM     25  C   UNL     1       7.302   6.681 -11.067  0.00  0.00    +0.169 C 
ATOM     26  C   UNL     1       6.686   8.055 -11.291  0.00  0.00    +0.047 C 
ENDBRANCH  23  25
ENDBRANCH  21  23
ENDBRANCH  19  21
ENDBRANCH  18  19
ENDBRANCH   1  18
BRANCH   1  27
ATOM     27  O   UNL     1       1.028   6.159  -8.541  0.00  0.00    -0.428 OA
BRANCH  27  28
ATOM     28  C   UNL     1       0.364   5.931  -9.715  0.00  0.00    +0.146 A 
ATOM     29  C   UNL     1       0.421   4.704 -10.364  0.00  0.00    +0.037 A 
ATOM     30  C   UNL     1       0.430   4.595 -11.743  0.00  0.00    +0.003 A 
ATOM     31  C   UNL     1       0.572   5.713 -12.520  0.00  0.00    +0.000 A 
ATOM     32  C   UNL     1       0.379   6.935 -11.933  0.00  0.00    +0.003 A 
ATOM     33  C   UNL     1       0.251   7.021 -10.571  0.00  0.00    +0.037 A 
ENDBRANCH  27  28
ENDBRANCH   1  27
TORSDOF 12
ENDMDL
MODEL 2
REMARK VINA RESULT:      -8.2      1.999      4.684
REMARK  Name = 
REMARK  12 active torsions:
REMARK  status: ('A' for Active; 'I' for Inactive)
REMARK    1  A    between atoms: C_2  and  O_4
REMARK    2  A    between atoms: O_4  and  C_5
REMARK    3  A    between atoms: C_5  and  C_7
REMARK    4  A    between atoms: C_7  and  N_9
REMARK    5  A    between atoms: N_9  and  P_10
REMARK    6  A    between atoms: P_10  and  C_12
REMARK    7  A    between atoms: P_10  and  O_27
REMARK    8  A    between atoms: C_12  and  O_13
REMARK    9  A    between atoms: O_13  and  C_14
REMARK   10  A    between atoms: C_14  and  C_16
REMARK   11  A    between atoms: C_16  and  N_17
REMARK   12  A    between atoms: O_27  and  C_28
REMARK                            x       y       z     vdW  Elec       q    Type
REMARK                         _______ _______ _______ _____ _____    ______ ____
ROOT
ATOM      1  P   UNL     1       2.254   6.077  -9.378  0.00  0.00    +0.375 P 
ATOM      2  O   UNL     1       1.887   4.740  -8.742  0.00  0.00    -0.254 OA
ENDROOT
BRANCH   1   3
ATOM      3  C   UNL     1       2.382   7.232  -7.970  0.00  0.00    +0.259 C 
BRANCH   3   4
ATOM      4  O   UNL     1       3.328   6.687  -7.082  0.00  0.00    -0.343 OA
BRANCH   4   5
ATOM      5  C   UNL     1       2.738   7.028  -5.693  0.00  0.00    +0.139 C 
ATOM      6  C   UNL     1       4.268   7.025  -4.996  0.00  0.00    +0.034 C 
BRANCH   5   7
ATOM      7  C   UNL     1       2.537   5.398  -5.332  0.00  0.00    +0.138 C 
BRANCH   7   8
ATOM      8  N   UNL     1       1.176   5.379  -4.841  0.00  0.00    -0.292 N 
ATOM      9  C   UNL     1       0.772   5.562  -3.561  0.00  0.00    +0.167 A 
ATOM     10  N   UNL     1       1.411   5.576  -2.382  0.00  0.00    -0.205 NA
ATOM     11  C   UNL     1       0.704   5.395  -1.240  0.00  0.00    +0.202 A 
ATOM     12  N   UNL     1      -0.631   5.230  -1.263  0.00  0.00    -0.204 NA
ATOM     13  C   UNL     1      -1.320   5.256  -2.429  0.00  0.00    +0.192 A 
ATOM     14  N   UNL     1      -2.724   5.079  -2.479  0.00  0.00    -0.105 NA
ATOM     15  C   UNL     1      -0.607   5.398  -3.614  0.00  0.00    +0.152 A 
ATOM     16  N   UNL     1      -0.967   5.499  -4.902  0.00  0.00    -0.219 NA
ATOM     17  C   UNL     1       0.125   5.670  -5.647  0.00  0.00    +0.180 A 
ENDBRANCH   7   8
ENDBRANCH   5   7
ENDBRANCH   4   5
ENDBRANCH   3   4
ENDBRANCH   1   3
BRANCH   1  18
ATOM     18  N   UNL     1       0.984   6.687 -10.396  0.00  0.00    -0.124 NA
BRANCH  18  19
ATOM     19  C   UNL     1       1.493   6.461 -11.900  0.00  0.00    +0.181 C 
ATOM     20  C   UNL     1       0.609   5.045 -12.035  0.00  0.00    +0.031 C 
BRANCH  19  21
ATOM     21  C   UNL     1       0.243   7.340 -12.500  0.00  0.00    +0.333 C 
ATOM     22  O   UNL     1      -0.391   7.927 -11.587  0.00  0.00    -0.249 OA
BRANCH  21  23
ATOM     23  O   UNL     1       0.682   8.144 -13.560  0.00  0.00    -0.451 OA
BRANCH  23  25
ATOM     24  C   UNL     1       0.092   7.355 -15.077  0.00  0.00    +0.047 C 
ATOM     25  C   UNL     1       0.628   7.622 -14.883  0.00  0.00    +0.169 C 
ATOM     26  C   UNL     1       1.269   8.661 -15.791  0.00  0.00    +0.047 C 
ENDBRANCH  23  25
ENDBRANCH  21  23
ENDBRANCH  19  21
ENDBRANCH  18  19
ENDBRANCH   1  18
BRANCH   1  27
ATOM     27  O   UNL     1       3.714   5.816 -10.158  0.00  0.00    -0.428 OA
BRANCH  27  28
ATOM     28  C   UNL     1       4.905   6.473 -10.018  0.00  0.00    +0.146 A 
ATOM     29  C   UNL     1       5.312   7.453 -10.913  0.00  0.00    +0.037 A 
ATOM     30  C   UNL     1       6.636   7.622 -11.276  0.00  0.00    +0.003 A 
ATOM     31  C   UNL     1       7.574   6.697 -10.903  0.00  0.00    +0.000 A 
ATOM     32  C   UNL     1       7.246   5.807  -9.917  0.00  0.00    +0.003 A 
ATOM     33  C   UNL     1       5.950   5.730  -9.477  0.00  0.00    +0.037 A 
ENDBRANCH  27  28
ENDBRANCH   1  27
TORSDOF 12
ENDMDL
MODEL 3
REMARK VINA RESULT:      -8.2      2.641      8.230
REMARK  Name = 
REMARK  12 active torsions:
REMARK  status: ('A' for Active; 'I' for Inactive)
REMARK    1  A    between atoms: C_2  and  O_4
REMARK    2  A    between atoms: O_4  and  C_5
REMARK    3  A    between atoms: C_5  and  C_7
REMARK    4  A    between atoms: C_7  and  N_9
REMARK    5  A    between atoms: N_9  and  P_10
REMARK    6  A    between atoms: P_10  and  C_12
REMARK    7  A    between atoms: P_10  and  O_27
REMARK    8  A    between atoms: C_12  and  O_13
REMARK    9  A    between atoms: O_13  and  C_14
REMARK   10  A    between atoms: C_14  and  C_16
REMARK   11  A    between atoms: C_16  and  N_17
REMARK   12  A    between atoms: O_27  and  C_28
REMARK                            x       y       z     vdW  Elec       q    Type
REMARK                         _______ _______ _______ _____ _____    ______ ____
ROOT
ATOM      1  P   UNL     1       0.592   5.988  -5.550  0.00  0.00    +0.375 P 
ATOM      2  O   UNL     1      -0.004   5.056  -6.599  0.00  0.00    -0.254 OA
ENDROOT
BRANCH   1   3
ATOM      3  C   UNL     1       2.096   6.658  -6.337  0.00  0.00    +0.259 C 
BRANCH   3   4
ATOM      4  O   UNL     1       2.628   5.631  -7.139  0.00  0.00    -0.343 OA
BRANCH   4   5
ATOM      5  C   UNL     1       3.518   6.400  -8.144  0.00  0.00    +0.139 C 
ATOM      6  C   UNL     1       2.169   7.065  -8.894  0.00  0.00    +0.034 C 
BRANCH   5   7
ATOM      7  C   UNL     1       3.509   5.100  -9.211  0.00  0.00    +0.138 C 
BRANCH   7   8
ATOM      8  N   UNL     1       4.801   5.242  -9.847  0.00  0.00    -0.292 N 
ATOM      9  C   UNL     1       5.039   5.432 -11.167  0.00  0.00    +0.167 A 
ATOM     10  N   UNL     1       4.282   5.321 -12.269  0.00  0.00    -0.205 NA
ATOM     11  C   UNL     1       4.882   5.194 -13.477  0.00  0.00    +0.202 A 
ATOM     12  N   UNL     1       6.222   5.206 -13.598  0.00  0.00    -0.204 NA
ATOM     13  C   UNL     1       7.021   5.362 -12.515  0.00  0.00    +0.192 A 
ATOM     14  N   UNL     1       8.433   5.373 -12.616  0.00  0.00    -0.105 NA
ATOM     15  C   UNL     1       6.425   5.451 -11.262  0.00  0.00    +0.152 A 
ATOM     16  N   UNL     1       6.903   5.644 -10.024  0.00  0.00    -0.219 NA
ATOM     17  C   UNL     1       5.883   5.696  -9.167  0.00  0.00    +0.180 A 
ENDBRANCH   7   8
ENDBRANCH   5   7
ENDBRANCH   4   5
ENDBRANCH   3   4
ENDBRANCH   1   3
BRANCH   1  18
ATOM     18  N   UNL     1       1.123   5.127  -4.137  0.00  0.00    -0.124 NA
BRANCH  18  19
ATOM     19  C   UNL     1       1.336   6.245  -3.007  0.00  0.00    +0.181 C 
ATOM     20  C   UNL     1       0.475   5.342  -1.888  0.00  0.00    +0.031 C 
BRANCH  19  21
ATOM     21  C   UNL     1       2.748   5.554  -2.530  0.00  0.00    +0.333 C 
ATOM     22  O   UNL     1       2.609   4.907  -1.461  0.00  0.00    -0.249 OA
BRANCH  21  23
ATOM     23  O   UNL     1       3.332   4.862  -3.598  0.00  0.00    -0.451 OA
BRANCH  23  25
ATOM     24  C   UNL     1       4.938   4.849  -4.432  0.00  0.00    +0.047 C 
ATOM     25  C   UNL     1       4.691   5.129  -3.925  0.00  0.00    +0.169 C 
ATOM     26  C   UNL     1       4.888   6.632  -3.784  0.00  0.00    +0.047 C 
ENDBRANCH  23  25
ENDBRANCH  21  23
ENDBRANCH  19  21
ENDBRANCH  18  19
ENDBRANCH   1  18
BRANCH   1  27
ATOM     27  O   UNL     1      -0.582   7.149  -5.264  0.00  0.00    -0.428 OA
BRANCH  27  28
ATOM     28  C   UNL     1      -1.775   7.037  -4.605  0.00  0.00    +0.146 A 
ATOM     29  C   UNL     1      -2.019   7.703  -3.411  0.00  0.00    +0.037 A 
ATOM     30  C   UNL     1      -2.777   7.150  -2.395  0.00  0.00    +0.003 A 
ATOM     31  C   UNL     1      -3.161   5.838  -2.460  0.00  0.00    +0.000 A 
ATOM     32  C   UNL     1      -3.064   5.197  -3.666  0.00  0.00    +0.003 A 
ATOM     33  C   UNL     1      -2.412   5.805  -4.707  0.00  0.00    +0.037 A 
ENDBRANCH  27  28
ENDBRANCH   1  27
TORSDOF 12
ENDMDL
MODEL 4
REMARK VINA RESULT:      -8.1      1.767      4.852
REMARK  Name = 
REMARK  12 active torsions:
REMARK  status: ('A' for Active; 'I' for Inactive)
REMARK    1  A    between atoms: C_2  and  O_4
REMARK    2  A    between atoms: O_4  and  C_5
REMARK    3  A    between atoms: C_5  and  C_7
REMARK    4  A    between atoms: C_7  and  N_9
REMARK    5  A    between atoms: N_9  and  P_10
REMARK    6  A    between atoms: P_10  and  C_12
REMARK    7  A    between atoms: P_10  and  O_27
REMARK    8  A    between atoms: C_12  and  O_13
REMARK    9  A    between atoms: O_13  and  C_14
REMARK   10  A    between atoms: C_14  and  C_16
REMARK   11  A    between atoms: C_16  and  N_17
REMARK   12  A    between atoms: O_27  and  C_28
REMARK                            x       y       z     vdW  Elec       q    Type
REMARK                         _______ _______ _______ _____ _____    ______ ____
ROOT
ATOM      1  P   UNL     1       4.296   6.316 -10.182  0.00  0.00    +0.375 P 
ATOM      2  O   UNL     1       5.261   5.505  -9.324  0.00  0.00    -0.254 OA
ENDROOT
BRANCH   1   3
ATOM      3  C   UNL     1       3.062   6.957  -9.000  0.00  0.00    +0.259 C 
BRANCH   3   4
ATOM      4  O   UNL     1       2.724   5.890  -8.146  0.00  0.00    -0.343 OA
BRANCH   4   5
ATOM      5  C   UNL     1       1.866   6.575  -7.056  0.00  0.00    +0.139 C 
ATOM      6  C   UNL     1       3.239   7.009  -6.189  0.00  0.00    +0.034 C 
BRANCH   5   7
ATOM      7  C   UNL     1       1.738   5.137  -6.194  0.00  0.00    +0.138 C 
BRANCH   7   8
ATOM      8  N   UNL     1       0.430   5.279  -5.593  0.00  0.00    -0.292 N 
ATOM      9  C   UNL     1       0.156   5.450  -4.277  0.00  0.00    +0.167 A 
ATOM     10  N   UNL     1       0.880   5.318  -3.156  0.00  0.00    -0.205 NA
ATOM     11  C   UNL     1       0.245   5.177  -1.967  0.00  0.00    +0.202 A 
ATOM     12  N   UNL     1      -1.097   5.196  -1.885  0.00  0.00    -0.204 NA
ATOM     13  C   UNL     1      -1.864   5.375  -2.987  0.00  0.00    +0.192 A 
ATOM     14  N   UNL     1      -3.279   5.394  -2.926  0.00  0.00    -0.105 NA
ATOM     15  C   UNL     1      -1.232   5.478  -4.221  0.00  0.00    +0.152 A 
ATOM     16  N   UNL     1      -1.673   5.693  -5.470  0.00  0.00    -0.219 NA
ATOM     17  C   UNL     1      -0.629   5.750  -6.296  0.00  0.00    +0.180 A 
ENDBRANCH   7   8
ENDBRANCH   5   7
ENDBRANCH   4   5
ENDBRANCH   3   4
ENDBRANCH   1   3
BRANCH   1  18
ATOM     18  N   UNL     1       3.424   5.318 -11.306  0.00  0.00    -0.124 NA
BRANCH  18  19
ATOM     19  C   UNL     1       2.904   6.314 -12.451  0.00  0.00    +0.181 C 
ATOM     20  C   UNL     1       3.511   5.320 -13.655  0.00  0.00    +0.031 C 
BRANCH  19  21
ATOM     21  C   UNL     1       1.449   5.554 -12.510  0.00  0.00    +0.333 C 
ATOM     22  O   UNL     1       1.351   4.819 -13.524  0.00  0.00    -0.249 OA
BRANCH  21  23
ATOM     23  O   UNL     1       1.171   4.946 -11.279  0.00  0.00    -0.451 OA
BRANCH  23  25
ATOM     24  C   UNL     1      -0.059   5.173  -9.972  0.00  0.00    +0.047 C 
ATOM     25  C   UNL     1      -0.013   5.319 -10.583  0.00  0.00    +0.169 C 
ATOM     26  C   UNL     1      -0.330   6.750 -10.993  0.00  0.00    +0.047 C 
ENDBRANCH  23  25
ENDBRANCH  21  23
ENDBRANCH  19  21
ENDBRANCH  18  19
ENDBRANCH   1  18
BRANCH   1  27
ATOM     27  O   UNL     1       5.228   7.518 -10.887  0.00  0.00    -0.428 OA
BRANCH  27  28
ATOM     28  C   UNL     1       6.409   7.416 -11.567  0.00  0.00    +0.146 A 
ATOM     29  C   UNL     1       6.454   7.081 -12.914  0.00  0.00    +0.037 A 
ATOM     30  C   UNL     1       7.463   6.302 -13.451  0.00  0.00    +0.003 A 
ATOM     31  C   UNL     1       8.359   5.675 -12.628  0.00  0.00    +0.000 A 
ATOM     32  C   UNL     1       8.435   6.087 -11.324  0.00  0.00    +0.003 A 
ATOM     33  C   UNL     1       7.497   6.956 -10.832  0.00  0.00    +0.037 A 
ENDBRANCH  27  28
ENDBRANCH   1  27
TORSDOF 12
ENDMDL
MODEL 5
REMARK VINA RESULT:      -8.0      1.521      2.306
REMARK  Name = 
REMARK  12 active torsions:
REMARK  status: ('A' for Active; 'I' for Inactive)
REMARK    1  A    between atoms: C_2  and  O_4
REMARK    2  A    between atoms: O_4  and  C_5
REMARK    3  A    between atoms: C_5  and  C_7
REMARK    4  A    between atoms: C_7  and  N_9
REMARK    5  A    between atoms: N_9  and  P_10
REMARK    6  A    between atoms: P_10  and  C_12
REMARK    7  A    between atoms: P_10  and  O_27
REMARK    8  A    between atoms: C_12  and  O_13
REMARK    9  A    between atoms: O_13  and  C_14
REMARK   10  A    between atoms: C_14  and  C_16
REMARK   11  A    between atoms: C_16  and  N_17
REMARK   12  A    between atoms: O_27  and  C_28
REMARK                            x       y       z     vdW  Elec       q    Type
REMARK                         _______ _______ _______ _____ _____    ______ ____
ROOT
ATOM      1  P   UNL     1       2.910   5.537  -9.133  0.00  0.00    +0.375 P 
ATOM      2  O   UNL     1       2.816   7.059  -9.149  0.00  0.00    -0.254 OA
ENDROOT
BRANCH   1   3
ATOM      3  C   UNL     1       3.179   5.115  -7.379  0.00  0.00    +0.259 C 
BRANCH   3   4
ATOM      4  O   UNL     1       3.724   6.258  -6.764  0.00  0.00    -0.343 OA
BRANCH   4   5
ATOM      5  C   UNL     1       2.559   6.769  -5.883  0.00  0.00    +0.139 C 
ATOM      6  C   UNL     1       3.605   7.066  -4.600  0.00  0.00    +0.034 C 
BRANCH   5   7
ATOM      7  C   UNL     1       2.253   5.216  -5.314  0.00  0.00    +0.138 C 
BRANCH   7   8
ATOM      8  N   UNL     1       0.859   5.318  -4.943  0.00  0.00    -0.292 N 
ATOM      9  C   UNL     1       0.362   5.506  -3.696  0.00  0.00    +0.167 A 
ATOM     10  N   UNL     1       0.894   5.427  -2.467  0.00  0.00    -0.205 NA
ATOM     11  C   UNL     1       0.075   5.286  -1.396  0.00  0.00    +0.202 A 
ATOM     12  N   UNL     1      -1.262   5.253  -1.538  0.00  0.00    -0.204 NA
ATOM     13  C   UNL     1      -1.840   5.376  -2.757  0.00  0.00    +0.192 A 
ATOM     14  N   UNL     1      -3.245   5.338  -2.932  0.00  0.00    -0.105 NA
ATOM     15  C   UNL     1      -1.015   5.478  -3.872  0.00  0.00    +0.152 A 
ATOM     16  N   UNL     1      -1.250   5.648  -5.182  0.00  0.00    -0.219 NA
ATOM     17  C   UNL     1      -0.085   5.730  -5.825  0.00  0.00    +0.180 A 
ENDBRANCH   7   8
ENDBRANCH   5   7
ENDBRANCH   4   5
ENDBRANCH   3   4
ENDBRANCH   1   3
BRANCH   1  18
ATOM     18  N   UNL     1       4.306   4.960  -9.994  0.00  0.00    -0.124 NA
BRANCH  18  19
ATOM     19  C   UNL     1       5.150   6.271 -10.371  0.00  0.00    +0.181 C 
ATOM     20  C   UNL     1       6.463   5.738  -9.478  0.00  0.00    +0.031 C 
BRANCH  19  21
ATOM     21  C   UNL     1       5.737   5.554 -11.727  0.00  0.00    +0.333 C 
ATOM     22  O   UNL     1       4.831   4.965 -12.370  0.00  0.00    -0.249 OA
BRANCH  21  23
ATOM     23  O   UNL     1       6.518   6.461 -12.455  0.00  0.00    -0.451 OA
BRANCH  23  25
ATOM     24  C   UNL     1       7.674   6.213 -13.824  0.00  0.00    +0.047 C 
ATOM     25  C   UNL     1       7.582   5.960 -13.255  0.00  0.00    +0.169 C 
ATOM     26  C   UNL     1       8.792   5.823 -12.341  0.00  0.00    +0.047 C 
ENDBRANCH  23  25
ENDBRANCH  21  23
ENDBRANCH  19  21
ENDBRANCH  18  19
ENDBRANCH   1  18
BRANCH   1  27
ATOM     27  O   UNL     1       1.442   4.992  -9.731  0.00  0.00    -0.428 OA
BRANCH  27  28
ATOM     28  C   UNL     1       0.759   5.382 -10.849  0.00  0.00    +0.146 A 
ATOM     29  C   UNL     1       1.369   5.449 -12.095  0.00  0.00    +0.037 A 
ATOM     30  C   UNL     1       1.051   6.424 -13.024  0.00  0.00    +0.003 A 
ATOM     31  C   UNL     1       0.250   7.476 -12.671  0.00  0.00    +0.000 A 
ATOM     32  C   UNL     1      -0.475   7.373 -11.514  0.00  0.00    +0.003 A 
ATOM     33  C   UNL     1      -0.235   6.335 -10.652  0.00  0.00    +0.037 A 
ENDBRANCH  27  28
ENDBRANCH   1  27
TORSDOF 12
ENDMDL
MODEL 6
REMARK VINA RESULT:      -8.0      1.569      4.262
REMARK  Name = 
REMARK  12 active torsions:
REMARK  status: ('A' for Active; 'I' for Inactive)
REMARK    1  A    between atoms: C_2  and  O_4
REMARK    2  A    between atoms: O_4  and  C_5
REMARK    3  A    between atoms: C_5  and  C_7
REMARK    4  A    between atoms: C_7  and  N_9
REMARK    5  A    between atoms: N_9  and  P_10
REMARK    6  A    between atoms: P_10  and  C_12
REMARK    7  A    between atoms: P_10  and  O_27
REMARK    8  A    between atoms: C_12  and  O_13
REMARK    9  A    between atoms: O_13  and  C_14
REMARK   10  A    between atoms: C_14  and  C_16
REMARK   11  A    between atoms: C_16  and  N_17
REMARK   12  A    between atoms: O_27  and  C_28
REMARK                            x       y       z     vdW  Elec       q    Type
REMARK                         _______ _______ _______ _____ _____    ______ ____
ROOT
ATOM      1  P   UNL     1       2.738   5.876  -9.266  0.00  0.00    +0.375 P 
ATOM      2  O   UNL     1       2.129   4.573  -8.758  0.00  0.00    -0.254 OA
ENDROOT
BRANCH   1   3
ATOM      3  C   UNL     1       2.695   6.994  -7.825  0.00  0.00    +0.259 C 
BRANCH   3   4
ATOM      4  O   UNL     1       3.614   6.485  -6.887  0.00  0.00    -0.343 OA
BRANCH   4   5
ATOM      5  C   UNL     1       3.042   6.978  -5.537  0.00  0.00    +0.139 C 
ATOM      6  C   UNL     1       4.563   6.914  -4.822  0.00  0.00    +0.034 C 
BRANCH   5   7
ATOM      7  C   UNL     1       2.714   5.402  -5.052  0.00  0.00    +0.138 C 
BRANCH   7   8
ATOM      8  N   UNL     1       1.390   5.546  -4.486  0.00  0.00    -0.292 N 
ATOM      9  C   UNL     1       0.211   5.305  -5.108  0.00  0.00    +0.167 A 
ATOM     10  N   UNL     1      -0.137   5.112  -6.388  0.00  0.00    -0.205 NA
ATOM     11  C   UNL     1      -1.430   5.280  -6.758  0.00  0.00    +0.202 A 
ATOM     12  N   UNL     1      -2.377   5.610  -5.861  0.00  0.00    -0.204 NA
ATOM     13  C   UNL     1      -2.075   5.769  -4.551  0.00  0.00    +0.192 A 
ATOM     14  N   UNL     1      -3.054   6.120  -3.589  0.00  0.00    -0.105 NA
ATOM     15  C   UNL     1      -0.747   5.642  -4.159  0.00  0.00    +0.152 A 
ATOM     16  N   UNL     1      -0.125   5.696  -2.972  0.00  0.00    -0.219 NA
ATOM     17  C   UNL     1       1.174   5.457  -3.150  0.00  0.00    +0.180 A 
ENDBRANCH   7   8
ENDBRANCH   5   7
ENDBRANCH   4   5
ENDBRANCH   3   4
ENDBRANCH   1   3
BRANCH   1  18
ATOM     18  N   UNL     1       1.757   6.621 -10.492  0.00  0.00    -0.124 NA
BRANCH  18  19
ATOM     19  C   UNL     1       0.264   6.104 -10.220  0.00  0.00    +0.181 C 
ATOM     20  C   UNL     1      -0.369   7.227 -11.290  0.00  0.00    +0.031 C 
BRANCH  19  21
ATOM     21  C   UNL     1       0.388   4.984 -11.415  0.00  0.00    +0.333 C 
ATOM     22  O   UNL     1      -0.536   4.135 -11.352  0.00  0.00    -0.249 OA
BRANCH  21  23
ATOM     23  O   UNL     1       0.561   5.615 -12.653  0.00  0.00    -0.451 OA
BRANCH  23  25
ATOM     24  C   UNL     1       0.890   4.775 -14.222  0.00  0.00    +0.047 C 
ATOM     25  C   UNL     1       1.215   4.904 -13.698  0.00  0.00    +0.169 C 
ATOM     26  C   UNL     1       2.594   5.529 -13.859  0.00  0.00    +0.047 C 
ENDBRANCH  23  25
ENDBRANCH  21  23
ENDBRANCH  19  21
ENDBRANCH  18  19
ENDBRANCH   1  18
BRANCH   1  27
ATOM     27  O   UNL     1       4.292   5.482  -9.754  0.00  0.00    -0.428 OA
BRANCH  27  28
ATOM     28  C   UNL     1       5.378   6.292  -9.940  0.00  0.00    +0.146 A 
ATOM     29  C   UNL     1       5.385   7.301 -10.896  0.00  0.00    +0.037 A 
ATOM     30  C   UNL     1       6.521   7.635 -11.611  0.00  0.00    +0.003 A 
ATOM     31  C   UNL     1       7.639   6.849 -11.533  0.00  0.00    +0.000 A 
ATOM     32  C   UNL     1       7.719   5.943 -10.510  0.00  0.00    +0.003 A 
ATOM     33  C   UNL     1       6.620   5.704  -9.728  0.00  0.00    +0.037 A 
ENDBRANCH  27  28
ENDBRANCH   1  27
TORSDOF 12
ENDMDL
MODEL 7
REMARK VINA RESULT:      -7.9      1.731      3.435
REMARK  Name = 
REMARK  12 active torsions:
REMARK  status: ('A' for Active; 'I' for Inactive)
REMARK    1  A    between atoms: C_2  and  O_4
REMARK    2  A    between atoms: O_4  and  C_5
REMARK    3  A    between atoms: C_5  and  C_7
REMARK    4  A    between atoms: C_7  and  N_9
REMARK    5  A    between atoms: N_9  and  P_10
REMARK    6  A    between atoms: P_10  and  C_12
REMARK    7  A    between atoms: P_10  and  O_27
REMARK    8  A    between atoms: C_12  and  O_13
REMARK    9  A    between atoms: O_13  and  C_14
REMARK   10  A    between atoms: C_14  and  C_16
REMARK   11  A    between atoms: C_16  and  N_17
REMARK   12  A    between atoms: O_27  and  C_28
REMARK                            x       y       z     vdW  Elec       q    Type
REMARK                         _______ _______ _______ _____ _____    ______ ____
ROOT
ATOM      1  P   UNL     1       1.689   6.515  -9.216  0.00  0.00    +0.375 P 
ATOM      2  O   UNL     1       2.097   7.738  -8.400  0.00  0.00    -0.254 OA
ENDROOT
BRANCH   1   3
ATOM      3  C   UNL     1       1.024   5.345  -7.983  0.00  0.00    +0.259 C 
BRANCH   3   4
ATOM      4  O   UNL     1      -0.319   5.707  -7.762  0.00  0.00    -0.343 OA
BRANCH   4   5
ATOM      5  C   UNL     1      -0.592   5.175  -6.335  0.00  0.00    +0.139 C 
ATOM      6  C   UNL     1      -2.192   5.688  -6.405  0.00  0.00    +0.034 C 
BRANCH   5   7
ATOM      7  C   UNL     1      -0.120   6.637  -5.654  0.00  0.00    +0.138 C 
BRANCH   7   8
ATOM      8  N   UNL     1       0.744   6.188  -4.583  0.00  0.00    -0.292 N 
ATOM      9  C   UNL     1       2.061   6.468  -4.432  0.00  0.00    +0.167 A 
ATOM     10  N   UNL     1       2.995   6.989  -5.241  0.00  0.00    -0.205 NA
ATOM     11  C   UNL     1       4.306   6.795  -4.955  0.00  0.00    +0.202 A 
ATOM     12  N   UNL     1       4.689   6.115  -3.859  0.00  0.00    -0.204 NA
ATOM     13  C   UNL     1       3.778   5.613  -2.992  0.00  0.00    +0.192 A 
ATOM     14  N   UNL     1       4.157   4.889  -1.835  0.00  0.00    -0.105 NA
ATOM     15  C   UNL     1       2.428   5.765  -3.291  0.00  0.00    +0.152 A 
ATOM     16  N   UNL     1       1.297   5.435  -2.650  0.00  0.00    -0.219 NA
ATOM     17  C   UNL     1       0.254   5.857  -3.364  0.00  0.00    +0.180 A 
ENDBRANCH   7   8
ENDBRANCH   5   7
ENDBRANCH   4   5
ENDBRANCH   3   4
ENDBRANCH   1   3
BRANCH   1  18
ATOM     18  N   UNL     1       3.057   5.731  -9.945  0.00  0.00    -0.124 NA
BRANCH  18  19
ATOM     19  C   UNL     1       4.332   6.608  -9.521  0.00  0.00    +0.181 C 
ATOM     20  C   UNL     1       4.820   5.447  -8.416  0.00  0.00    +0.031 C 
BRANCH  19  21
ATOM     21  C   UNL     1       5.249   5.922 -10.699  0.00  0.00    +0.333 C 
ATOM     22  O   UNL     1       4.549   5.249 -11.498  0.00  0.00    -0.249 OA
BRANCH  21  23
ATOM     23  O   UNL     1       6.091   6.881 -11.276  0.00  0.00    -0.451 OA
BRANCH  23  25
ATOM     24  C   UNL     1       7.709   6.787 -10.473  0.00  0.00    +0.047 C 
ATOM     25  C   UNL     1       7.494   6.775 -11.065  0.00  0.00    +0.169 C 
ATOM     26  C   UNL     1       7.992   5.661 -11.974  0.00  0.00    +0.047 C 
ENDBRANCH  23  25
ENDBRANCH  21  23
ENDBRANCH  19  21
ENDBRANCH  18  19
ENDBRANCH   1  18
BRANCH   1  27
ATOM     27  O   UNL     1       0.535   7.066 -10.300  0.00  0.00    -0.428 OA
BRANCH  27  28
ATOM     28  C   UNL     1       0.133   6.527 -11.490  0.00  0.00    +0.146 A 
ATOM     29  C   UNL     1       0.218   5.164 -11.745  0.00  0.00    +0.037 A 
ATOM     30  C   UNL     1       0.526   4.662 -12.996  0.00  0.00    +0.003 A 
ATOM     31  C   UNL     1       0.943   5.504 -13.991  0.00  0.00    +0.000 A 
ATOM     32  C   UNL     1       0.739   6.848 -13.827  0.00  0.00    +0.003 A 
ATOM     33  C   UNL     1       0.318   7.326 -12.613  0.00  0.00    +0.037 A 
ENDBRANCH  27  28
ENDBRANCH   1  27
TORSDOF 12
ENDMDL
MODEL 8
REMARK VINA RESULT:      -7.8      2.061      5.093
REMARK  Name = 
REMARK  12 active torsions:
REMARK  status: ('A' for Active; 'I' for Inactive)
REMARK    1  A    between atoms: C_2  and  O_4
REMARK    2  A    between atoms: O_4  and  C_5
REMARK    3  A    between atoms: C_5  and  C_7
REMARK    4  A    between atoms: C_7  and  N_9
REMARK    5  A    between atoms: N_9  and  P_10
REMARK    6  A    between atoms: P_10  and  C_12
REMARK    7  A    between atoms: P_10  and  O_27
REMARK    8  A    between atoms: C_12  and  O_13
REMARK    9  A    between atoms: O_13  and  C_14
REMARK   10  A    between atoms: C_14  and  C_16
REMARK   11  A    between atoms: C_16  and  N_17
REMARK   12  A    between atoms: O_27  and  C_28
REMARK                            x       y       z     vdW  Elec       q    Type
REMARK                         _______ _______ _______ _____ _____    ______ ____
ROOT
ATOM      1  P   UNL     1       2.505   5.589  -8.810  0.00  0.00    +0.375 P 
ATOM      2  O   UNL     1       2.936   4.146  -9.049  0.00  0.00    -0.254 OA
ENDROOT
BRANCH   1   3
ATOM      3  C   UNL     1       1.881   5.601  -7.095  0.00  0.00    +0.259 C 
BRANCH   3   4
ATOM      4  O   UNL     1       0.533   6.003  -7.155  0.00  0.00    -0.343 OA
BRANCH   4   5
ATOM      5  C   UNL     1      -0.135   5.145  -6.054  0.00  0.00    +0.139 C 
ATOM      6  C   UNL     1      -1.666   5.486  -6.659  0.00  0.00    +0.034 C 
BRANCH   5   7
ATOM      7  C   UNL     1      -0.216   6.465  -5.016  0.00  0.00    +0.138 C 
BRANCH   7   8
ATOM      8  N   UNL     1       0.507   5.969  -3.865  0.00  0.00    -0.292 N 
ATOM      9  C   UNL     1       1.719   6.387  -3.426  0.00  0.00    +0.167 A 
ATOM     10  N   UNL     1       2.689   7.139  -3.966  0.00  0.00    -0.205 NA
ATOM     11  C   UNL     1       3.944   7.070  -3.458  0.00  0.00    +0.202 A 
ATOM     12  N   UNL     1       4.230   6.283  -2.405  0.00  0.00    -0.204 NA
ATOM     13  C   UNL     1       3.269   5.543  -1.802  0.00  0.00    +0.192 A 
ATOM     14  N   UNL     1       3.547   4.703  -0.696  0.00  0.00    -0.105 NA
ATOM     15  C   UNL     1       1.985   5.568  -2.336  0.00  0.00    +0.152 A 
ATOM     16  N   UNL     1       0.823   5.003  -1.974  0.00  0.00    -0.219 NA
ATOM     17  C   UNL     1      -0.132   5.396  -2.816  0.00  0.00    +0.180 A 
ENDBRANCH   7   8
ENDBRANCH   5   7
ENDBRANCH   4   5
ENDBRANCH   3   4
ENDBRANCH   1   3
BRANCH   1  18
ATOM     18  N   UNL     1       1.166   6.046  -9.820  0.00  0.00    -0.124 NA
BRANCH  18  19
ATOM     19  C   UNL     1       1.338   5.199 -11.171  0.00  0.00    +0.181 C 
ATOM     20  C   UNL     1      -0.141   4.447 -10.942  0.00  0.00    +0.031 C 
BRANCH  19  21
ATOM     21  C   UNL     1       0.635   6.389 -12.057  0.00  0.00    +0.333 C 
ATOM     22  O   UNL     1       0.146   7.285 -11.324  0.00  0.00    -0.249 OA
BRANCH  21  23
ATOM     23  O   UNL     1       1.509   6.825 -13.062  0.00  0.00    -0.451 OA
BRANCH  23  25
ATOM     24  C   UNL     1       0.841   6.087 -14.573  0.00  0.00    +0.047 C 
ATOM     25  C   UNL     1       1.145   6.617 -14.422  0.00  0.00    +0.169 C 
ATOM     26  C   UNL     1       0.563   7.931 -14.926  0.00  0.00    +0.047 C 
ENDBRANCH  23  25
ENDBRANCH  21  23
ENDBRANCH  19  21
ENDBRANCH  18  19
ENDBRANCH   1  18
BRANCH   1  27
ATOM     27  O   UNL     1       3.889   6.510  -9.021  0.00  0.00    -0.428 OA
BRANCH  27  28
ATOM     28  C   UNL     1       4.958   6.298  -9.846  0.00  0.00    +0.146 A 
ATOM     29  C   UNL     1       6.120   5.684  -9.398  0.00  0.00    +0.037 A 
ATOM     30  C   UNL     1       7.375   6.052  -9.851  0.00  0.00    +0.003 A 
ATOM     31  C   UNL     1       7.525   7.171 -10.625  0.00  0.00    +0.000 A 
ATOM     32  C   UNL     1       6.406   7.713 -11.199  0.00  0.00    +0.003 A 
ATOM     33  C   UNL     1       5.167   7.259 -10.830  0.00  0.00    +0.037 A 
ENDBRANCH  27  28
ENDBRANCH   1  27
TORSDOF 12
ENDMDL
MODEL 9
REMARK VINA RESULT:      -7.8      2.132      4.346
REMARK  Name = 
REMARK  12 active torsions:
REMARK  status: ('A' for Active; 'I' for Inactive)
REMARK    1  A    between atoms: C_2  and  O_4
REMARK    2  A    between atoms: O_4  and  C_5
REMARK    3  A    between atoms: C_5  and  C_7
REMARK    4  A    between atoms: C_7  and  N_9
REMARK    5  A    between atoms: N_9  and  P_10
REMARK    6  A    between atoms: P_10  and  C_12
REMARK    7  A    between atoms: P_10  and  O_27
REMARK    8  A    between atoms: C_12  and  O_13
REMARK    9  A    between atoms: O_13  and  C_14
REMARK   10  A    between atoms: C_14  and  C_16
REMARK   11  A    between atoms: C_16  and  N_17
REMARK   12  A    between atoms: O_27  and  C_28
REMARK                            x       y       z     vdW  Elec       q    Type
REMARK                         _______ _______ _______ _____ _____    ______ ____
ROOT
ATOM      1  P   UNL     1       2.937   6.108  -7.101  0.00  0.00    +0.375 P 
ATOM      2  O   UNL     1       2.833   7.630  -7.111  0.00  0.00    -0.254 OA
ENDROOT
BRANCH   1   3
ATOM      3  C   UNL     1       4.380   5.756  -6.041  0.00  0.00    +0.259 C 
BRANCH   3   4
ATOM      4  O   UNL     1       3.892   5.102  -4.894  0.00  0.00    -0.343 OA
BRANCH   4   5
ATOM      5  C   UNL     1       3.633   6.268  -3.911  0.00  0.00    +0.139 C 
ATOM      6  C   UNL     1       5.248   6.732  -3.972  0.00  0.00    +0.034 C 
BRANCH   5   7
ATOM      7  C   UNL     1       3.935   5.276  -2.588  0.00  0.00    +0.138 C 
BRANCH   7   8
ATOM      8  N   UNL     1       3.145   5.920  -1.561  0.00  0.00    -0.292 N 
ATOM      9  C   UNL     1       1.830   5.721  -1.305  0.00  0.00    +0.167 A 
ATOM     10  N   UNL     1       0.837   5.120  -1.977  0.00  0.00    -0.205 NA
ATOM     11  C   UNL     1      -0.449   5.410  -1.663  0.00  0.00    +0.202 A 
ATOM     12  N   UNL     1      -0.751   6.266  -0.670  0.00  0.00    -0.204 NA
ATOM     13  C   UNL     1       0.222   6.857   0.064  0.00  0.00    +0.192 A 
ATOM     14  N   UNL     1      -0.070   7.766   1.111  0.00  0.00    -0.105 NA
ATOM     15  C   UNL     1       1.548   6.605  -0.272  0.00  0.00    +0.152 A 
ATOM     16  N   UNL     1       2.722   6.984   0.256  0.00  0.00    -0.219 NA
ATOM     17  C   UNL     1       3.711   6.413  -0.432  0.00  0.00    +0.180 A 
ENDBRANCH   7   8
ENDBRANCH   5   7
ENDBRANCH   4   5
ENDBRANCH   3   4
ENDBRANCH   1   3
BRANCH   1  18
ATOM     18  N   UNL     1       3.318   5.470  -8.672  0.00  0.00    -0.124 NA
BRANCH  18  19
ATOM     19  C   UNL     1       3.610   6.748  -9.596  0.00  0.00    +0.181 C 
ATOM     20  C   UNL     1       5.007   6.049 -10.201  0.00  0.00    +0.031 C 
BRANCH  19  21
ATOM     21  C   UNL     1       2.720   6.117 -10.824  0.00  0.00    +0.333 C 
ATOM     22  O   UNL     1       3.442   5.800 -11.803  0.00  0.00    -0.249 OA
BRANCH  21  23
ATOM     23  O   UNL     1       1.868   5.117 -10.339  0.00  0.00    -0.451 OA
BRANCH  23  25
ATOM     24  C   UNL     1       0.147   4.621 -10.595  0.00  0.00    +0.047 C 
ATOM     25  C   UNL     1       0.520   5.087 -10.795  0.00  0.00    +0.169 C 
ATOM     26  C   UNL     1      -0.011   6.510 -10.689  0.00  0.00    +0.047 C 
ENDBRANCH  23  25
ENDBRANCH  21  23
ENDBRANCH  19  21
ENDBRANCH  18  19
ENDBRANCH   1  18
BRANCH   1  27
ATOM     27  O   UNL     1       1.489   5.565  -6.456  0.00  0.00    -0.428 OA
BRANCH  27  28
ATOM     28  C   UNL     1       0.267   6.178  -6.422  0.00  0.00    +0.146 A 
ATOM     29  C   UNL     1      -0.126   6.973  -5.353  0.00  0.00    +0.037 A 
ATOM     30  C   UNL     1      -1.432   7.013  -4.900  0.00  0.00    +0.003 A 
ATOM     31  C   UNL     1      -2.353   6.121  -5.379  0.00  0.00    +0.000 A 
ATOM     32  C   UNL     1      -2.047   5.426  -6.519  0.00  0.00    +0.003 A 
ATOM     33  C   UNL     1      -0.776   5.487  -7.029  0.00  0.00    +0.037 A 
ENDBRANCH  27  28
ENDBRANCH   1  27
TORSDOF 12
ENDMDL
