MODEL 1
REMARK VINA RESULT:      -8.4      0.000      0.000
REMARK  Name = 
REMARK  6 active torsions:
REMARK  status: ('A' for Active; 'I' for Inactive)
REMARK    1  A    between atoms: C_2  and  C_3
REMARK    2  A    between atoms: C_3  and  C_4
REMARK    3  A    between atoms: C_4  and  C_5
REMARK    4  A    between atoms: C_5  and  O_6
REMARK    5  A    between atoms: O_6  and  C_7
REMARK    6  A    between atoms: N_14  and  C_15
REMARK                            x       y       z     vdW  Elec       q    Type
REMARK                         _______ _______ _______ _____ _____    ______ ____
ROOT
ATOM      1  C   UNL     1       2.555   4.158  -7.622  0.00  0.00    +0.427 C 
ATOM      2  N   UNL     1       1.661   3.788  -6.624  0.00  0.00    -0.121 NA
ATOM      3  C   UNL     1       0.978   4.790  -5.941  0.00  0.00    +0.191 A 
ATOM      4  C   UNL     1      -0.207   5.269  -6.504  0.00  0.00    +0.191 A 
ATOM      5  F   UNL     1       0.038   5.802  -7.733  0.00  0.00    -0.200 F 
ATOM      6  C   UNL     1      -1.112   6.005  -5.704  0.00  0.00    +0.115 A 
ATOM      7  N   UNL     1      -0.751   6.098  -4.389  0.00  0.00    -0.251 N 
ATOM      8  C   UNL     1       0.595   6.064  -4.197  0.00  0.00    +0.353 A 
ATOM      9  O   UNL     1       1.292   6.995  -3.709  0.00  0.00    -0.244 OA
ATOM     10  N   UNL     1       1.194   4.916  -4.587  0.00  0.00    -0.173 NA
ATOM     11  O   UNL     1       3.515   4.900  -7.266  0.00  0.00    -0.224 OA
ENDROOT
BRANCH   7  12
ATOM     12  C   UNL     1      -1.547   7.313  -3.619  0.00  0.00    +0.242 C 
ATOM     13  C   UNL     1      -3.208   6.653  -3.406  0.00  0.00    +0.234 C 
ATOM     14  O   UNL     1      -3.306   6.875  -1.933  0.00  0.00    -0.216 OA
ATOM     15  C   UNL     1      -2.509   5.138  -3.373  0.00  0.00    +0.214 C 
ATOM     16  O   UNL     1      -2.338   4.948  -1.854  0.00  0.00    -0.218 OA
ATOM     17  C   UNL     1      -1.392   6.418  -3.601  0.00  0.00    +0.150 C 
ATOM     18  C   UNL     1      -2.427   7.514  -4.461  0.00  0.00    +0.035 C 
ATOM     19  O   UNL     1      -1.378   6.917  -2.232  0.00  0.00    -0.333 OA
ENDBRANCH   7  12
BRANCH   1  20
ATOM     20  O   UNL     1       2.456   3.965  -8.975  0.00  0.00    -0.433 OA
BRANCH  20  21
ATOM     21  C   UNL     1       2.102   5.017  -9.809  0.00  0.00    +0.210 C 
BRANCH  21  22
ATOM     22  C   UNL     1       0.820   4.549 -10.457  0.00  0.00    +0.048 C 
BRANCH  22  23
ATOM     23  C   UNL     1       0.421   5.475 -11.570  0.00  0.00    +0.004 C 
BRANCH  23  25
ATOM     24  C   UNL     1      -0.801   7.625 -11.626  0.00  0.00    +0.000 C 
ATOM     25  C   UNL     1       0.228   6.816 -10.896  0.00  0.00    +0.000 C 
ENDBRANCH  23  25
ENDBRANCH  22  23
ENDBRANCH  21  22
ENDBRANCH  20  21
ENDBRANCH   1  20
TORSDOF 6
ENDMDL
MODEL 2
REMARK VINA RESULT:      -8.4      4.580      9.229
REMARK  Name = 
REMARK  6 active torsions:
REMARK  status: ('A' for Active; 'I' for Inactive)
REMARK    1  A    between atoms: C_2  and  C_3
REMARK    2  A    between atoms: C_3  and  C_4
REMARK    3  A    between atoms: C_4  and  C_5
REMARK    4  A    between atoms: C_5  and  O_6
REMARK    5  A    between atoms: O_6  and  C_7
REMARK    6  A    between atoms: N_14  and  C_15
REMARK                            x       y       z     vdW  Elec       q    Type
REMARK                         _______ _______ _______ _____ _____    ______ ____
ROOT
ATOM      1  C   UNL     1       2.328   4.211  -7.503  0.00  0.00    +0.427 C 
ATOM      2  N   UNL     1       3.191   3.783  -8.504  0.00  0.00    -0.121 NA
ATOM      3  C   UNL     1       4.018   4.723  -9.113  0.00  0.00    +0.191 A 
ATOM      4  C   UNL     1       5.240   5.007  -8.501  0.00  0.00    +0.191 A 
ATOM      5  F   UNL     1       5.036   5.496  -7.247  0.00  0.00    -0.200 F 
ATOM      6  C   UNL     1       6.256   5.660  -9.238  0.00  0.00    +0.115 A 
ATOM      7  N   UNL     1       5.945   5.875 -10.552  0.00  0.00    -0.251 N 
ATOM      8  C   UNL     1       4.612   6.031 -10.770  0.00  0.00    +0.353 A 
ATOM      9  O   UNL     1       4.056   7.074 -11.214  0.00  0.00    -0.244 OA
ATOM     10  N   UNL     1       3.856   4.953 -10.461  0.00  0.00    -0.173 NA
ATOM     11  O   UNL     1       1.484   5.094  -7.830  0.00  0.00    -0.224 OA
ENDROOT
BRANCH   7  12
ATOM     12  C   UNL     1       6.914   7.014 -11.233  0.00  0.00    +0.242 C 
ATOM     13  C   UNL     1       8.437   6.118 -11.569  0.00  0.00    +0.234 C 
ATOM     14  O   UNL     1       8.540   6.466 -13.017  0.00  0.00    -0.216 OA
ATOM     15  C   UNL     1       7.498   4.748 -11.718  0.00  0.00    +0.214 C 
ATOM     16  O   UNL     1       7.265   4.739 -13.241  0.00  0.00    -0.218 OA
ATOM     17  C   UNL     1       6.612   6.163 -11.329  0.00  0.00    +0.150 C 
ATOM     18  C   UNL     1       7.832   6.985 -10.409  0.00  0.00    +0.035 C 
ATOM     19  O   UNL     1       6.652   6.791 -12.644  0.00  0.00    -0.333 OA
ENDBRANCH   7  12
BRANCH   1  20
ATOM     20  O   UNL     1       2.365   3.931  -6.162  0.00  0.00    -0.433 OA
BRANCH  20  21
ATOM     21  C   UNL     1       2.475   4.957  -5.232  0.00  0.00    +0.210 C 
BRANCH  21  22
ATOM     22  C   UNL     1       3.718   4.605  -4.449  0.00  0.00    +0.048 C 
BRANCH  22  23
ATOM     23  C   UNL     1       4.071   5.706  -3.493  0.00  0.00    +0.004 C 
BRANCH  23  25
ATOM     24  C   UNL     1       5.300   7.703  -4.283  0.00  0.00    +0.000 C 
ATOM     25  C   UNL     1       3.994   6.969  -4.325  0.00  0.00    +0.000 C 
ENDBRANCH  23  25
ENDBRANCH  22  23
ENDBRANCH  21  22
ENDBRANCH  20  21
ENDBRANCH   1  20
TORSDOF 6
ENDMDL
MODEL 3
REMARK VINA RESULT:      -8.3      2.488      2.981
REMARK  Name = 
REMARK  6 active torsions:
REMARK  status: ('A' for Active; 'I' for Inactive)
REMARK    1  A    between atoms: C_2  and  C_3
REMARK    2  A    between atoms: C_3  and  C_4
REMARK    3  A    between atoms: C_4  and  C_5
REMARK    4  A    between atoms: C_5  and  O_6
REMARK    5  A    between atoms: O_6  and  C_7
REMARK    6  A    between atoms: N_14  and  C_15
REMARK                            x       y       z     vdW  Elec       q    Type
REMARK                         _______ _______ _______ _____ _____    ______ ____
ROOT
ATOM      1  C   UNL     1       3.739   5.322  -6.649  0.00  0.00    +0.427 C 
ATOM      2  N   UNL     1       2.483   4.814  -6.340  0.00  0.00    -0.121 NA
ATOM      3  C   UNL     1       1.656   5.557  -5.503  0.00  0.00    +0.191 A 
ATOM      4  C   UNL     1       0.858   6.543  -6.085  0.00  0.00    +0.191 A 
ATOM      5  F   UNL     1       1.637   7.473  -6.704  0.00  0.00    -0.200 F 
ATOM      6  C   UNL     1      -0.241   7.069  -5.365  0.00  0.00    +0.115 A 
ATOM      7  N   UNL     1      -0.460   6.465  -4.159  0.00  0.00    -0.251 N 
ATOM      8  C   UNL     1       0.673   5.977  -3.588  0.00  0.00    +0.353 A 
ATOM      9  O   UNL     1       1.169   6.361  -2.493  0.00  0.00    -0.244 OA
ATOM     10  N   UNL     1       1.291   5.004  -4.296  0.00  0.00    -0.173 NA
ATOM     11  O   UNL     1       4.514   5.531  -5.672  0.00  0.00    -0.224 OA
ENDROOT
BRANCH   7  12
ATOM     12  C   UNL     1      -1.411   7.381  -3.179  0.00  0.00    +0.242 C 
ATOM     13  C   UNL     1      -3.079   6.885  -3.635  0.00  0.00    +0.234 C 
ATOM     14  O   UNL     1      -3.552   6.544  -2.262  0.00  0.00    -0.216 OA
ATOM     15  C   UNL     1      -2.435   5.401  -4.042  0.00  0.00    +0.214 C 
ATOM     16  O   UNL     1      -2.664   4.632  -2.727  0.00  0.00    -0.218 OA
ATOM     17  C   UNL     1      -1.278   6.535  -3.481  0.00  0.00    +0.150 C 
ATOM     18  C   UNL     1      -2.040   7.985  -4.053  0.00  0.00    +0.035 C 
ATOM     19  O   UNL     1      -1.612   6.475  -2.063  0.00  0.00    -0.333 OA
ENDBRANCH   7  12
BRANCH   1  20
ATOM     20  O   UNL     1       4.204   5.785  -7.852  0.00  0.00    -0.433 OA
BRANCH  20  21
ATOM     21  C   UNL     1       5.129   5.046  -8.578  0.00  0.00    +0.210 C 
BRANCH  21  22
ATOM     22  C   UNL     1       5.585   5.998  -9.659  0.00  0.00    +0.048 C 
BRANCH  22  23
ATOM     23  C   UNL     1       7.059   5.856  -9.901  0.00  0.00    +0.004 C 
BRANCH  23  25
ATOM     24  C   UNL     1       6.327   7.790 -11.259  0.00  0.00    +0.000 C 
ATOM     25  C   UNL     1       7.472   7.179 -10.510  0.00  0.00    +0.000 C 
ENDBRANCH  23  25
ENDBRANCH  22  23
ENDBRANCH  21  22
ENDBRANCH  20  21
ENDBRANCH   1  20
TORSDOF 6
ENDMDL
MODEL 4
REMARK VINA RESULT:      -8.2      4.359      8.965
REMARK  Name = 
REMARK  6 active torsions:
REMARK  status: ('A' for Active; 'I' for Inactive)
REMARK    1  A    between atoms: C_2  and  C_3
REMARK    2  A    between atoms: C_3  and  C_4
REMARK    3  A    between atoms: C_4  and  C_5
REMARK    4  A    between atoms: C_5  and  O_6
REMARK    5  A    between atoms: O_6  and  C_7
REMARK    6  A    between atoms: N_14  and  C_15
REMARK                            x       y       z     vdW  Elec       q    Type
REMARK                         _______ _______ _______ _____ _____    ______ ____
ROOT
ATOM      1  C   UNL     1       2.135   4.343  -7.713  0.00  0.00    +0.427 C 
ATOM      2  N   UNL     1       3.074   3.866  -8.619  0.00  0.00    -0.121 NA
ATOM      3  C   UNL     1       3.969   4.771  -9.183  0.00  0.00    +0.191 A 
ATOM      4  C   UNL     1       5.138   5.056  -8.475  0.00  0.00    +0.191 A 
ATOM      5  F   UNL     1       4.833   5.592  -7.261  0.00  0.00    -0.200 F 
ATOM      6  C   UNL     1       6.227   5.666  -9.141  0.00  0.00    +0.115 A 
ATOM      7  N   UNL     1       6.037   5.840 -10.483  0.00  0.00    -0.251 N 
ATOM      8  C   UNL     1       4.732   6.010 -10.824  0.00  0.00    +0.353 A 
ATOM      9  O   UNL     1       4.238   7.045 -11.350  0.00  0.00    -0.244 OA
ATOM     10  N   UNL     1       3.931   4.956 -10.547  0.00  0.00    -0.173 NA
ATOM     11  O   UNL     1       1.340   5.228  -8.144  0.00  0.00    -0.224 OA
ENDROOT
BRANCH   7  12
ATOM     12  C   UNL     1       7.085   6.939 -11.114  0.00  0.00    +0.242 C 
ATOM     13  C   UNL     1       8.596   5.991 -11.341  0.00  0.00    +0.234 C 
ATOM     14  O   UNL     1       8.802   6.316 -12.783  0.00  0.00    -0.216 OA
ATOM     15  C   UNL     1       7.624   4.649 -11.535  0.00  0.00    +0.214 C 
ATOM     16  O   UNL     1       7.489   4.627 -13.070  0.00  0.00    -0.218 OA
ATOM     17  C   UNL     1       6.762   6.096 -11.220  0.00  0.00    +0.150 C 
ATOM     18  C   UNL     1       7.947   6.892 -10.232  0.00  0.00    +0.035 C 
ATOM     19  O   UNL     1       6.906   6.706 -12.536  0.00  0.00    -0.333 OA
ENDBRANCH   7  12
BRANCH   1  20
ATOM     20  O   UNL     1       2.048   4.109  -6.366  0.00  0.00    -0.433 OA
BRANCH  20  21
ATOM     21  C   UNL     1       2.124   5.163  -5.464  0.00  0.00    +0.210 C 
BRANCH  21  22
ATOM     22  C   UNL     1       0.811   5.096  -4.719  0.00  0.00    +0.048 C 
BRANCH  22  23
ATOM     23  C   UNL     1      -0.035   6.296  -5.030  0.00  0.00    +0.004 C 
BRANCH  23  25
ATOM     24  C   UNL     1      -1.740   5.376  -6.569  0.00  0.00    +0.000 C 
ATOM     25  C   UNL     1      -1.441   5.748  -5.148  0.00  0.00    +0.000 C 
ENDBRANCH  23  25
ENDBRANCH  22  23
ENDBRANCH  21  22
ENDBRANCH  20  21
ENDBRANCH   1  20
TORSDOF 6
ENDMDL
MODEL 5
REMARK VINA RESULT:      -7.9      2.809      3.691
REMARK  Name = 
REMARK  6 active torsions:
REMARK  status: ('A' for Active; 'I' for Inactive)
REMARK    1  A    between atoms: C_2  and  C_3
REMARK    2  A    between atoms: C_3  and  C_4
REMARK    3  A    between atoms: C_4  and  C_5
REMARK    4  A    between atoms: C_5  and  O_6
REMARK    5  A    between atoms: O_6  and  C_7
REMARK    6  A    between atoms: N_14  and  C_15
REMARK                            x       y       z     vdW  Elec       q    Type
REMARK                         _______ _______ _______ _____ _____    ______ ____
ROOT
ATOM      1  C   UNL     1       2.837   4.764  -8.921  0.00  0.00    +0.427 C 
ATOM      2  N   UNL     1       2.306   5.816  -8.185  0.00  0.00    -0.121 NA
ATOM      3  C   UNL     1       1.365   5.527  -7.202  0.00  0.00    +0.191 A 
ATOM      4  C   UNL     1       1.835   5.182  -5.933  0.00  0.00    +0.191 A 
ATOM      5  F   UNL     1       2.604   4.061  -6.006  0.00  0.00    -0.200 F 
ATOM      6  C   UNL     1       0.957   5.233  -4.825  0.00  0.00    +0.115 A 
ATOM      7  N   UNL     1      -0.287   5.717  -5.117  0.00  0.00    -0.251 N 
ATOM      8  C   UNL     1      -0.675   5.467  -6.396  0.00  0.00    +0.353 A 
ATOM      9  O   UNL     1      -1.658   4.756  -6.742  0.00  0.00    -0.244 OA
ATOM     10  N   UNL     1       0.097   6.045  -7.346  0.00  0.00    -0.173 NA
ATOM     11  O   UNL     1       2.011   4.067  -9.579  0.00  0.00    -0.224 OA
ENDROOT
BRANCH   7  12
ATOM     12  C   UNL     1      -1.384   5.330  -3.955  0.00  0.00    +0.242 C 
ATOM     13  C   UNL     1      -1.469   6.820  -2.951  0.00  0.00    +0.234 C 
ATOM     14  O   UNL     1      -2.949   7.000  -3.012  0.00  0.00    -0.216 OA
ATOM     15  C   UNL     1      -1.068   7.670  -4.329  0.00  0.00    +0.214 C 
ATOM     16  O   UNL     1      -2.472   8.045  -4.840  0.00  0.00    -0.218 OA
ATOM     17  C   UNL     1      -1.155   5.973  -4.555  0.00  0.00    +0.150 C 
ATOM     18  C   UNL     1      -0.659   5.476  -2.967  0.00  0.00    +0.035 C 
ATOM     19  O   UNL     1      -2.606   5.845  -4.547  0.00  0.00    -0.333 OA
ENDBRANCH   7  12
BRANCH   1  20
ATOM     20  O   UNL     1       4.115   4.269  -8.910  0.00  0.00    -0.433 OA
BRANCH  20  21
ATOM     21  C   UNL     1       5.156   5.026  -8.388  0.00  0.00    +0.210 C 
BRANCH  21  22
ATOM     22  C   UNL     1       5.702   5.766  -9.586  0.00  0.00    +0.048 C 
BRANCH  22  23
ATOM     23  C   UNL     1       7.200   5.830  -9.530  0.00  0.00    +0.004 C 
BRANCH  23  25
ATOM     24  C   UNL     1       6.745   7.740 -11.036  0.00  0.00    +0.000 C 
ATOM     25  C   UNL     1       7.598   6.528 -10.814  0.00  0.00    +0.000 C 
ENDBRANCH  23  25
ENDBRANCH  22  23
ENDBRANCH  21  22
ENDBRANCH  20  21
ENDBRANCH   1  20
TORSDOF 6
ENDMDL
MODEL 6
REMARK VINA RESULT:      -7.8      2.184      6.981
REMARK  Name = 
REMARK  6 active torsions:
REMARK  status: ('A' for Active; 'I' for Inactive)
REMARK    1  A    between atoms: C_2  and  C_3
REMARK    2  A    between atoms: C_3  and  C_4
REMARK    3  A    between atoms: C_4  and  C_5
REMARK    4  A    between atoms: C_5  and  O_6
REMARK    5  A    between atoms: O_6  and  C_7
REMARK    6  A    between atoms: N_14  and  C_15
REMARK                            x       y       z     vdW  Elec       q    Type
REMARK                         _______ _______ _______ _____ _____    ______ ____
ROOT
ATOM      1  C   UNL     1       0.773   5.783  -1.999  0.00  0.00    +0.427 C 
ATOM      2  N   UNL     1       1.819   6.065  -2.869  0.00  0.00    -0.121 NA
ATOM      3  C   UNL     1       1.668   5.738  -4.214  0.00  0.00    +0.191 A 
ATOM      4  C   UNL     1       1.034   6.666  -5.042  0.00  0.00    +0.191 A 
ATOM      5  F   UNL     1      -0.234   6.898  -4.604  0.00  0.00    -0.200 F 
ATOM      6  C   UNL     1       1.171   6.558  -6.446  0.00  0.00    +0.115 A 
ATOM      7  N   UNL     1       2.015   5.563  -6.852  0.00  0.00    -0.251 N 
ATOM      8  C   UNL     1       2.061   4.512  -5.990  0.00  0.00    +0.353 A 
ATOM      9  O   UNL     1       1.703   3.330  -6.250  0.00  0.00    -0.244 OA
ATOM     10  N   UNL     1       2.529   4.810  -4.756  0.00  0.00    -0.173 NA
ATOM     11  O   UNL     1       0.429   4.570  -1.911  0.00  0.00    -0.224 OA
ENDROOT
BRANCH   7  12
ATOM     12  C   UNL     1       1.789   5.174  -8.433  0.00  0.00    +0.242 C 
ATOM     13  C   UNL     1       2.989   6.203  -9.291  0.00  0.00    +0.234 C 
ATOM     14  O   UNL     1       3.657   5.109 -10.055  0.00  0.00    -0.216 OA
ATOM     15  C   UNL     1       3.916   6.128  -7.905  0.00  0.00    +0.214 C 
ATOM     16  O   UNL     1       4.829   4.936  -8.250  0.00  0.00    -0.218 OA
ATOM     17  C   UNL     1       2.425   5.289  -7.795  0.00  0.00    +0.150 C 
ATOM     18  C   UNL     1       1.485   6.294  -8.852  0.00  0.00    +0.035 C 
ATOM     19  O   UNL     1       2.787   4.133  -8.606  0.00  0.00    -0.333 OA
ENDBRANCH   7  12
BRANCH   1  20
ATOM     20  O   UNL     1      -0.051   6.657  -1.338  0.00  0.00    -0.433 OA
BRANCH  20  21
ATOM     21  C   UNL     1      -1.107   6.182  -0.571  0.00  0.00    +0.210 C 
BRANCH  21  22
ATOM     22  C   UNL     1      -2.222   7.165  -0.842  0.00  0.00    +0.048 C 
BRANCH  22  23
ATOM     23  C   UNL     1      -2.464   7.296  -2.317  0.00  0.00    +0.004 C 
BRANCH  23  25
ATOM     24  C   UNL     1      -3.013   5.250  -3.595  0.00  0.00    +0.000 C 
ATOM     25  C   UNL     1      -3.529   6.263  -2.619  0.00  0.00    +0.000 C 
ENDBRANCH  23  25
ENDBRANCH  22  23
ENDBRANCH  21  22
ENDBRANCH  20  21
ENDBRANCH   1  20
TORSDOF 6
ENDMDL
MODEL 7
REMARK VINA RESULT:      -7.8      3.703      5.116
REMARK  Name = 
REMARK  6 active torsions:
REMARK  status: ('A' for Active; 'I' for Inactive)
REMARK    1  A    between atoms: C_2  and  C_3
REMARK    2  A    between atoms: C_3  and  C_4
REMARK    3  A    between atoms: C_4  and  C_5
REMARK    4  A    between atoms: C_5  and  O_6
REMARK    5  A    between atoms: O_6  and  C_7
REMARK    6  A    between atoms: N_14  and  C_15
REMARK                            x       y       z     vdW  Elec       q    Type
REMARK                         _______ _______ _______ _____ _____    ______ ____
ROOT
ATOM      1  C   UNL     1       2.802   6.861  -8.191  0.00  0.00    +0.427 C 
ATOM      2  N   UNL     1       2.855   7.560  -6.991  0.00  0.00    -0.121 NA
ATOM      3  C   UNL     1       2.869   6.835  -5.803  0.00  0.00    +0.191 A 
ATOM      4  C   UNL     1       4.104   6.387  -5.329  0.00  0.00    +0.191 A 
ATOM      5  F   UNL     1       4.684   5.557  -6.240  0.00  0.00    -0.200 F 
ATOM      6  C   UNL     1       4.228   5.974  -3.982  0.00  0.00    +0.115 A 
ATOM      7  N   UNL     1       3.095   6.146  -3.237  0.00  0.00    -0.251 N 
ATOM      8  C   UNL     1       1.952   6.059  -3.968  0.00  0.00    +0.353 A 
ATOM      9  O   UNL     1       1.050   5.189  -3.822  0.00  0.00    -0.244 OA
ATOM     10  N   UNL     1       1.819   7.003  -4.928  0.00  0.00    -0.173 NA
ATOM     11  O   UNL     1       1.799   6.110  -8.358  0.00  0.00    -0.224 OA
ENDROOT
BRANCH   7  12
ATOM     12  C   UNL     1       3.126   5.252  -1.858  0.00  0.00    +0.242 C 
ATOM     13  C   UNL     1       4.298   6.132  -0.815  0.00  0.00    +0.234 C 
ATOM     14  O   UNL     1       3.411   6.280   0.375  0.00  0.00    -0.216 OA
ATOM     15  C   UNL     1       3.845   7.519  -1.625  0.00  0.00    +0.214 C 
ATOM     16  O   UNL     1       2.749   8.044  -0.678  0.00  0.00    -0.218 OA
ATOM     17  C   UNL     1       3.055   6.100  -2.174  0.00  0.00    +0.150 C 
ATOM     18  C   UNL     1       4.325   4.960  -1.859  0.00  0.00    +0.035 C 
ATOM     19  O   UNL     1       2.130   5.943  -1.058  0.00  0.00    -0.333 OA
ENDBRANCH   7  12
BRANCH   1  20
ATOM     20  O   UNL     1       3.766   6.744  -9.157  0.00  0.00    -0.433 OA
BRANCH  20  21
ATOM     21  C   UNL     1       4.245   5.493  -9.523  0.00  0.00    +0.210 C 
BRANCH  21  22
ATOM     22  C   UNL     1       5.409   5.803 -10.436  0.00  0.00    +0.048 C 
BRANCH  22  23
ATOM     23  C   UNL     1       6.682   5.914  -9.649  0.00  0.00    +0.004 C 
BRANCH  23  25
ATOM     24  C   UNL     1       6.683   7.853 -11.187  0.00  0.00    +0.000 C 
ATOM     25  C   UNL     1       7.541   6.868 -10.452  0.00  0.00    +0.000 C 
ENDBRANCH  23  25
ENDBRANCH  22  23
ENDBRANCH  21  22
ENDBRANCH  20  21
ENDBRANCH   1  20
TORSDOF 6
ENDMDL
MODEL 8
REMARK VINA RESULT:      -7.7      3.612      4.648
REMARK  Name = 
REMARK  6 active torsions:
REMARK  status: ('A' for Active; 'I' for Inactive)
REMARK    1  A    between atoms: C_2  and  C_3
REMARK    2  A    between atoms: C_3  and  C_4
REMARK    3  A    between atoms: C_4  and  C_5
REMARK    4  A    between atoms: C_5  and  O_6
REMARK    5  A    between atoms: O_6  and  C_7
REMARK    6  A    between atoms: N_14  and  C_15
REMARK                            x       y       z     vdW  Elec       q    Type
REMARK                         _______ _______ _______ _____ _____    ______ ____
ROOT
ATOM      1  C   UNL     1       2.858   4.824  -8.734  0.00  0.00    +0.427 C 
ATOM      2  N   UNL     1       2.174   4.790  -7.525  0.00  0.00    -0.121 NA
ATOM      3  C   UNL     1       2.831   5.232  -6.380  0.00  0.00    +0.191 A 
ATOM      4  C   UNL     1       2.796   6.599  -6.097  0.00  0.00    +0.191 A 
ATOM      5  F   UNL     1       3.370   7.304  -7.111  0.00  0.00    -0.200 F 
ATOM      6  C   UNL     1       3.122   7.051  -4.797  0.00  0.00    +0.115 A 
ATOM      7  N   UNL     1       3.363   6.050  -3.899  0.00  0.00    -0.251 N 
ATOM      8  C   UNL     1       3.866   4.924  -4.471  0.00  0.00    +0.353 A 
ATOM      9  O   UNL     1       5.002   4.426  -4.240  0.00  0.00    -0.244 OA
ATOM     10  N   UNL     1       3.045   4.327  -5.365  0.00  0.00    -0.173 NA
ATOM     11  O   UNL     1       3.923   4.145  -8.794  0.00  0.00    -0.224 OA
ENDROOT
BRANCH   7  12
ATOM     12  C   UNL     1       4.170   6.595  -2.574  0.00  0.00    +0.242 C 
ATOM     13  C   UNL     1       2.851   7.083  -1.453  0.00  0.00    +0.234 C 
ATOM     14  O   UNL     1       3.302   6.281  -0.278  0.00  0.00    -0.216 OA
ATOM     15  C   UNL     1       1.910   5.919  -2.191  0.00  0.00    +0.214 C 
ATOM     16  O   UNL     1       2.151   4.729  -1.242  0.00  0.00    -0.218 OA
ATOM     17  C   UNL     1       3.490   6.056  -2.841  0.00  0.00    +0.150 C 
ATOM     18  C   UNL     1       3.737   7.751  -2.563  0.00  0.00    +0.035 C 
ATOM     19  O   UNL     1       4.209   5.393  -1.761  0.00  0.00    -0.333 OA
ENDBRANCH   7  12
BRANCH   1  20
ATOM     20  O   UNL     1       2.629   5.619  -9.826  0.00  0.00    -0.433 OA
BRANCH  20  21
ATOM     21  C   UNL     1       3.629   5.825 -10.767  0.00  0.00    +0.210 C 
BRANCH  21  22
ATOM     22  C   UNL     1       4.361   7.044 -10.257  0.00  0.00    +0.048 C 
BRANCH  22  23
ATOM     23  C   UNL     1       5.683   7.196 -10.951  0.00  0.00    +0.004 C 
BRANCH  23  25
ATOM     24  C   UNL     1       7.135   5.847  -9.470  0.00  0.00    +0.000 C 
ATOM     25  C   UNL     1       6.368   5.860 -10.757  0.00  0.00    +0.000 C 
ENDBRANCH  23  25
ENDBRANCH  22  23
ENDBRANCH  21  22
ENDBRANCH  20  21
ENDBRANCH   1  20
TORSDOF 6
ENDMDL
MODEL 9
REMARK VINA RESULT:      -7.7      3.456      8.145
REMARK  Name = 
REMARK  6 active torsions:
REMARK  status: ('A' for Active; 'I' for Inactive)
REMARK    1  A    between atoms: C_2  and  C_3
REMARK    2  A    between atoms: C_3  and  C_4
REMARK    3  A    between atoms: C_4  and  C_5
REMARK    4  A    between atoms: C_5  and  O_6
REMARK    5  A    between atoms: O_6  and  C_7
REMARK    6  A    between atoms: N_14  and  C_15
REMARK                            x       y       z     vdW  Elec       q    Type
REMARK                         _______ _______ _______ _____ _____    ______ ____
ROOT
ATOM      1  C   UNL     1       1.575   5.089  -6.394  0.00  0.00    +0.427 C 
ATOM      2  N   UNL     1       2.249   6.088  -7.085  0.00  0.00    -0.121 NA
ATOM      3  C   UNL     1       3.156   5.714  -8.071  0.00  0.00    +0.191 A 
ATOM      4  C   UNL     1       2.661   5.481  -9.356  0.00  0.00    +0.191 A 
ATOM      5  F   UNL     1       1.750   4.469  -9.332  0.00  0.00    -0.200 F 
ATOM      6  C   UNL     1       3.552   5.456 -10.454  0.00  0.00    +0.115 A 
ATOM      7  N   UNL     1       4.845   5.760 -10.134  0.00  0.00    -0.251 N 
ATOM      8  C   UNL     1       5.180   5.414  -8.862  0.00  0.00    +0.353 A 
ATOM      9  O   UNL     1       6.057   4.567  -8.536  0.00  0.00    -0.244 OA
ATOM     10  N   UNL     1       4.480   6.054  -7.898  0.00  0.00    -0.173 NA
ATOM     11  O   UNL     1       2.293   4.265  -5.757  0.00  0.00    -0.224 OA
ENDROOT
BRANCH   7  12
ATOM     12  C   UNL     1       5.897   5.275 -11.301  0.00  0.00    +0.242 C 
ATOM     13  C   UNL     1       5.964   6.687 -12.414  0.00  0.00    +0.234 C 
ATOM     14  O   UNL     1       7.447   6.850 -12.416  0.00  0.00    -0.216 OA
ATOM     15  C   UNL     1       5.620   7.640 -11.088  0.00  0.00    +0.214 C 
ATOM     16  O   UNL     1       7.046   8.031 -10.654  0.00  0.00    -0.218 OA
ATOM     17  C   UNL     1       5.695   5.963 -10.743  0.00  0.00    +0.150 C 
ATOM     18  C   UNL     1       5.139   5.359 -12.272  0.00  0.00    +0.035 C 
ATOM     19  O   UNL     1       7.144   5.814 -10.790  0.00  0.00    -0.333 OA
ENDBRANCH   7  12
BRANCH   1  20
ATOM     20  O   UNL     1       0.243   4.768  -6.434  0.00  0.00    -0.433 OA
BRANCH  20  21
ATOM     21  C   UNL     1      -0.687   5.687  -6.904  0.00  0.00    +0.210 C 
BRANCH  21  22
ATOM     22  C   UNL     1      -2.009   5.151  -6.406  0.00  0.00    +0.048 C 
BRANCH  22  23
ATOM     23  C   UNL     1      -2.362   5.762  -5.082  0.00  0.00    +0.004 C 
BRANCH  23  25
ATOM     24  C   UNL     1      -1.838   8.053  -4.310  0.00  0.00    +0.000 C 
ATOM     25  C   UNL     1      -2.509   7.240  -5.374  0.00  0.00    +0.000 C 
ENDBRANCH  23  25
ENDBRANCH  22  23
ENDBRANCH  21  22
ENDBRANCH  20  21
ENDBRANCH   1  20
TORSDOF 6
ENDMDL
