MODEL 1
REMARK VINA RESULT:      -5.8      0.000      0.000
REMARK  Name = 
REMARK  15 active torsions:
REMARK  status: ('A' for Active; 'I' for Inactive)
REMARK    1  A    between atoms: C_2  and  C_3
REMARK    2  A    between atoms: C_3  and  C_4
REMARK    3  A    between atoms: C_4  and  C_5
REMARK    4  A    between atoms: C_5  and  C_6
REMARK    5  A    between atoms: C_6  and  C_7
REMARK    6  A    between atoms: C_7  and  C_8
REMARK    7  A    between atoms: C_8  and  C_9
REMARK    8  A    between atoms: C_9  and  C_10
REMARK    9  A    between atoms: C_10  and  C_11
REMARK   10  A    between atoms: C_11  and  C_12
REMARK   11  A    between atoms: C_12  and  C_13
REMARK   12  A    between atoms: C_13  and  C_14
REMARK   13  A    between atoms: C_14  and  C_15
REMARK   14  A    between atoms: C_15  and  C_16
REMARK   15  A    between atoms: C_16  and  N_17
REMARK                            x       y       z     vdW  Elec       q    Type
REMARK                         _______ _______ _______ _____ _____    ______ ____
ROOT
ATOM      1  C   UNL     1       4.150   5.664  -6.174  0.00  0.00    +0.000 C 
ENDROOT
BRANCH   1   2
ATOM      2  C   UNL     1       3.942   5.969  -7.629  0.00  0.00    +0.000 C 
BRANCH   2   3
ATOM      3  C   UNL     1       2.905   7.052  -7.852  0.00  0.00    +0.000 C 
BRANCH   3   4
ATOM      4  C   UNL     1       2.286   6.884  -9.234  0.00  0.00    +0.007 C 
BRANCH   4   5
ATOM      5  C   UNL     1       2.946   5.758 -10.000  0.00  0.00    +0.085 C 
BRANCH   5   6
ATOM      6  C   UNL     1       3.606   6.227 -11.269  0.00  0.00    +0.322 C 
BRANCH   6   7
ATOM      7  N   UNL     1       5.027   6.468 -11.106  0.00  0.00    -0.160 N 
ATOM      8  C   UNL     1       5.538   7.715 -11.240  0.00  0.00    +0.290 A 
ATOM      9  C   UNL     1       6.891   7.902 -10.987  0.00  0.00    +0.076 A 
ATOM     10  C   UNL     1       7.575   7.009 -10.173  0.00  0.00    +0.013 A 
ATOM     11  C   UNL     1       7.108   5.700 -10.217  0.00  0.00    +0.076 A 
ATOM     12  C   UNL     1       5.864   5.459 -10.781  0.00  0.00    +0.290 A 
ENDBRANCH   6   7
ENDBRANCH   5   6
ENDBRANCH   4   5
ENDBRANCH   3   4
ENDBRANCH   2   3
ENDBRANCH   1   2
BRANCH   1  13
ATOM     13  C   UNL     1       3.816   6.867  -5.316  0.00  0.00    +0.000 C 
BRANCH  13  14
ATOM     14  C   UNL     1       3.013   6.414  -4.109  0.00  0.00    +0.000 C 
BRANCH  14  15
ATOM     15  C   UNL     1       1.547   6.563  -4.485  0.00  0.00    +0.000 C 
BRANCH  15  16
ATOM     16  C   UNL     1       0.966   5.154  -4.467  0.00  0.00    +0.000 C 
BRANCH  16  17
ATOM     17  C   UNL     1       0.398   4.908  -5.846  0.00  0.00    +0.000 C 
BRANCH  17  18
ATOM     18  C   UNL     1      -0.422   6.116  -6.272  0.00  0.00    +0.000 C 
BRANCH  18  19
ATOM     19  C   UNL     1      -1.877   5.778  -5.973  0.00  0.00    +0.000 C 
BRANCH  19  20
ATOM     20  C   UNL     1      -2.477   6.987  -5.269  0.00  0.00    +0.000 C 
BRANCH  20  22
ATOM     21  C   UNL     1      -2.943   5.310  -3.531  0.00  0.00    +0.000 C 
ATOM     22  C   UNL     1      -2.521   6.752  -3.784  0.00  0.00    +0.000 C 
ENDBRANCH  20  22
ENDBRANCH  19  20
ENDBRANCH  18  19
ENDBRANCH  17  18
ENDBRANCH  16  17
ENDBRANCH  15  16
ENDBRANCH  14  15
ENDBRANCH  13  14
ENDBRANCH   1  13
TORSDOF 15
ENDMDL
MODEL 2
REMARK VINA RESULT:      -5.8      2.072      8.367
REMARK  Name = 
REMARK  15 active torsions:
REMARK  status: ('A' for Active; 'I' for Inactive)
REMARK    1  A    between atoms: C_2  and  C_3
REMARK    2  A    between atoms: C_3  and  C_4
REMARK    3  A    between atoms: C_4  and  C_5
REMARK    4  A    between atoms: C_5  and  C_6
REMARK    5  A    between atoms: C_6  and  C_7
REMARK    6  A    between atoms: C_7  and  C_8
REMARK    7  A    between atoms: C_8  and  C_9
REMARK    8  A    between atoms: C_9  and  C_10
REMARK    9  A    between atoms: C_10  and  C_11
REMARK   10  A    between atoms: C_11  and  C_12
REMARK   11  A    between atoms: C_12  and  C_13
REMARK   12  A    between atoms: C_13  and  C_14
REMARK   13  A    between atoms: C_14  and  C_15
REMARK   14  A    between atoms: C_15  and  C_16
REMARK   15  A    between atoms: C_16  and  N_17
REMARK                            x       y       z     vdW  Elec       q    Type
REMARK                         _______ _______ _______ _____ _____    ______ ____
ROOT
ATOM      1  C   UNL     1       2.912   7.202  -7.069  0.00  0.00    +0.000 C 
ENDROOT
BRANCH   1   2
ATOM      2  C   UNL     1       3.816   6.009  -6.944  0.00  0.00    +0.000 C 
BRANCH   2   3
ATOM      3  C   UNL     1       4.177   5.703  -5.505  0.00  0.00    +0.000 C 
BRANCH   3   4
ATOM      4  C   UNL     1       3.217   6.437  -4.575  0.00  0.00    +0.007 C 
BRANCH   4   5
ATOM      5  C   UNL     1       2.134   5.514  -4.061  0.00  0.00    +0.085 C 
BRANCH   5   6
ATOM      6  C   UNL     1       0.864   6.244  -3.714  0.00  0.00    +0.322 C 
BRANCH   6   7
ATOM      7  N   UNL     1      -0.121   6.193  -4.777  0.00  0.00    -0.160 N 
ATOM      8  C   UNL     1       0.004   5.310  -5.797  0.00  0.00    +0.290 A 
ATOM      9  C   UNL     1      -1.014   5.246  -6.740  0.00  0.00    +0.076 A 
ATOM     10  C   UNL     1      -2.293   5.674  -6.411  0.00  0.00    +0.013 A 
ATOM     11  C   UNL     1      -2.344   6.710  -5.485  0.00  0.00    +0.076 A 
ATOM     12  C   UNL     1      -1.202   7.001  -4.753  0.00  0.00    +0.290 A 
ENDBRANCH   6   7
ENDBRANCH   5   6
ENDBRANCH   4   5
ENDBRANCH   3   4
ENDBRANCH   2   3
ENDBRANCH   1   2
BRANCH   1  13
ATOM     13  C   UNL     1       2.189   7.196  -8.401  0.00  0.00    +0.000 C 
BRANCH  13  14
ATOM     14  C   UNL     1       2.470   5.887  -9.117  0.00  0.00    +0.000 C 
BRANCH  14  15
ATOM     15  C   UNL     1       2.859   6.250 -10.542  0.00  0.00    +0.000 C 
BRANCH  15  16
ATOM     16  C   UNL     1       4.120   5.450 -10.848  0.00  0.00    +0.000 C 
BRANCH  16  17
ATOM     17  C   UNL     1       5.264   6.184 -10.188  0.00  0.00    +0.000 C 
BRANCH  17  18
ATOM     18  C   UNL     1       5.442   7.539 -10.858  0.00  0.00    +0.000 C 
BRANCH  18  19
ATOM     19  C   UNL     1       6.680   7.426 -11.737  0.00  0.00    +0.000 C 
BRANCH  19  20
ATOM     20  C   UNL     1       7.767   6.779 -10.890  0.00  0.00    +0.000 C 
BRANCH  20  22
ATOM     21  C   UNL     1       7.835   5.601 -13.048  0.00  0.00    +0.000 C 
ATOM     22  C   UNL     1       8.548   5.793 -11.715  0.00  0.00    +0.000 C 
ENDBRANCH  20  22
ENDBRANCH  19  20
ENDBRANCH  18  19
ENDBRANCH  17  18
ENDBRANCH  16  17
ENDBRANCH  15  16
ENDBRANCH  14  15
ENDBRANCH  13  14
ENDBRANCH   1  13
TORSDOF 15
ENDMDL
MODEL 3
REMARK VINA RESULT:      -5.7      1.142      2.386
REMARK  Name = 
REMARK  15 active torsions:
REMARK  status: ('A' for Active; 'I' for Inactive)
REMARK    1  A    between atoms: C_2  and  C_3
REMARK    2  A    between atoms: C_3  and  C_4
REMARK    3  A    between atoms: C_4  and  C_5
REMARK    4  A    between atoms: C_5  and  C_6
REMARK    5  A    between atoms: C_6  and  C_7
REMARK    6  A    between atoms: C_7  and  C_8
REMARK    7  A    between atoms: C_8  and  C_9
REMARK    8  A    between atoms: C_9  and  C_10
REMARK    9  A    between atoms: C_10  and  C_11
REMARK   10  A    between atoms: C_11  and  C_12
REMARK   11  A    between atoms: C_12  and  C_13
REMARK   12  A    between atoms: C_13  and  C_14
REMARK   13  A    between atoms: C_14  and  C_15
REMARK   14  A    between atoms: C_15  and  C_16
REMARK   15  A    between atoms: C_16  and  N_17
REMARK                            x       y       z     vdW  Elec       q    Type
REMARK                         _______ _______ _______ _____ _____    ______ ____
ROOT
ATOM      1  C   UNL     1       2.068   6.228  -4.587  0.00  0.00    +0.000 C 
ENDROOT
BRANCH   1   2
ATOM      2  C   UNL     1       3.477   5.708  -4.608  0.00  0.00    +0.000 C 
BRANCH   2   3
ATOM      3  C   UNL     1       4.306   6.323  -5.718  0.00  0.00    +0.000 C 
BRANCH   3   4
ATOM      4  C   UNL     1       3.383   6.807  -6.830  0.00  0.00    +0.007 C 
BRANCH   4   5
ATOM      5  C   UNL     1       3.443   5.891  -8.033  0.00  0.00    +0.085 C 
BRANCH   5   6
ATOM      6  C   UNL     1       3.565   6.643  -9.331  0.00  0.00    +0.322 C 
BRANCH   6   7
ATOM      7  N   UNL     1       4.904   6.591  -9.886  0.00  0.00    -0.160 N 
ATOM      8  C   UNL     1       5.311   7.501 -10.804  0.00  0.00    +0.290 A 
ATOM      9  C   UNL     1       6.630   7.455 -11.234  0.00  0.00    +0.076 A 
ATOM     10  C   UNL     1       7.602   6.867 -10.435  0.00  0.00    +0.013 A 
ATOM     11  C   UNL     1       7.152   5.817  -9.644  0.00  0.00    +0.076 A 
ATOM     12  C   UNL     1       5.785   5.655  -9.471  0.00  0.00    +0.290 A 
ENDBRANCH   6   7
ENDBRANCH   5   6
ENDBRANCH   4   5
ENDBRANCH   3   4
ENDBRANCH   2   3
ENDBRANCH   1   2
BRANCH   1  13
ATOM     13  C   UNL     1       1.075   5.093  -4.438  0.00  0.00    +0.000 C 
BRANCH  13  14
ATOM     14  C   UNL     1       0.608   4.651  -5.814  0.00  0.00    +0.000 C 
BRANCH  14  15
ATOM     15  C   UNL     1      -0.020   5.872  -6.468  0.00  0.00    +0.000 C 
BRANCH  15  16
ATOM     16  C   UNL     1      -1.312   5.382  -7.113  0.00  0.00    +0.000 C 
BRANCH  16  17
ATOM     17  C   UNL     1      -2.391   5.518  -6.064  0.00  0.00    +0.000 C 
BRANCH  17  18
ATOM     18  C   UNL     1      -2.209   6.836  -5.326  0.00  0.00    +0.000 C 
BRANCH  18  19
ATOM     19  C   UNL     1      -2.965   6.703  -4.011  0.00  0.00    +0.000 C 
BRANCH  19  20
ATOM     20  C   UNL     1      -2.129   5.807  -3.108  0.00  0.00    +0.000 C 
BRANCH  20  22
ATOM     21  C   UNL     1      -0.911   5.766  -0.971  0.00  0.00    +0.000 C 
ATOM     22  C   UNL     1      -1.332   6.643  -2.144  0.00  0.00    +0.000 C 
ENDBRANCH  20  22
ENDBRANCH  19  20
ENDBRANCH  18  19
ENDBRANCH  17  18
ENDBRANCH  16  17
ENDBRANCH  15  16
ENDBRANCH  14  15
ENDBRANCH  13  14
ENDBRANCH   1  13
TORSDOF 15
ENDMDL
MODEL 4
REMARK VINA RESULT:      -5.6      2.180      3.610
REMARK  Name = 
REMARK  15 active torsions:
REMARK  status: ('A' for Active; 'I' for Inactive)
REMARK    1  A    between atoms: C_2  and  C_3
REMARK    2  A    between atoms: C_3  and  C_4
REMARK    3  A    between atoms: C_4  and  C_5
REMARK    4  A    between atoms: C_5  and  C_6
REMARK    5  A    between atoms: C_6  and  C_7
REMARK    6  A    between atoms: C_7  and  C_8
REMARK    7  A    between atoms: C_8  and  C_9
REMARK    8  A    between atoms: C_9  and  C_10
REMARK    9  A    between atoms: C_10  and  C_11
REMARK   10  A    between atoms: C_11  and  C_12
REMARK   11  A    between atoms: C_12  and  C_13
REMARK   12  A    between atoms: C_13  and  C_14
REMARK   13  A    between atoms: C_14  and  C_15
REMARK   14  A    between atoms: C_15  and  C_16
REMARK   15  A    between atoms: C_16  and  N_17
REMARK                            x       y       z     vdW  Elec       q    Type
REMARK                         _______ _______ _______ _____ _____    ______ ____
ROOT
ATOM      1  C   UNL     1       2.806   6.815  -4.330  0.00  0.00    +0.000 C 
ENDROOT
BRANCH   1   2
ATOM      2  C   UNL     1       3.807   6.921  -5.444  0.00  0.00    +0.000 C 
BRANCH   2   3
ATOM      3  C   UNL     1       4.316   5.568  -5.898  0.00  0.00    +0.000 C 
BRANCH   3   4
ATOM      4  C   UNL     1       4.578   5.603  -7.399  0.00  0.00    +0.007 C 
BRANCH   4   5
ATOM      5  C   UNL     1       3.318   5.928  -8.171  0.00  0.00    +0.085 C 
BRANCH   5   6
ATOM      6  C   UNL     1       2.764   4.738  -8.908  0.00  0.00    +0.322 C 
BRANCH   6   7
ATOM      7  N   UNL     1       1.962   5.114 -10.057  0.00  0.00    -0.160 N 
ATOM      8  C   UNL     1       2.500   5.829 -11.073  0.00  0.00    +0.290 A 
ATOM      9  C   UNL     1       1.709   6.085 -12.187  0.00  0.00    +0.076 A 
ATOM     10  C   UNL     1       0.632   5.259 -12.478  0.00  0.00    +0.013 A 
ATOM     11  C   UNL     1       0.012   4.693 -11.370  0.00  0.00    +0.076 A 
ATOM     12  C   UNL     1       0.672   4.726 -10.151  0.00  0.00    +0.290 A 
ENDBRANCH   6   7
ENDBRANCH   5   6
ENDBRANCH   4   5
ENDBRANCH   3   4
ENDBRANCH   2   3
ENDBRANCH   1   2
BRANCH   1  13
ATOM     13  C   UNL     1       1.404   6.642  -4.877  0.00  0.00    +0.000 C 
BRANCH  13  14
ATOM     14  C   UNL     1       0.915   5.238  -4.569  0.00  0.00    +0.000 C 
BRANCH  14  15
ATOM     15  C   UNL     1       0.648   4.570  -5.909  0.00  0.00    +0.000 C 
BRANCH  15  16
ATOM     16  C   UNL     1      -0.261   5.523  -6.677  0.00  0.00    +0.000 C 
BRANCH  16  17
ATOM     17  C   UNL     1      -1.679   5.132  -6.332  0.00  0.00    +0.000 C 
BRANCH  17  18
ATOM     18  C   UNL     1      -2.523   6.390  -6.187  0.00  0.00    +0.000 C 
BRANCH  18  19
ATOM     19  C   UNL     1      -2.520   6.744  -4.706  0.00  0.00    +0.000 C 
BRANCH  19  20
ATOM     20  C   UNL     1      -2.779   5.453  -3.941  0.00  0.00    +0.000 C 
BRANCH  20  22
ATOM     21  C   UNL     1      -1.634   6.842  -2.264  0.00  0.00    +0.000 C 
ATOM     22  C   UNL     1      -2.602   5.682  -2.465  0.00  0.00    +0.000 C 
ENDBRANCH  20  22
ENDBRANCH  19  20
ENDBRANCH  18  19
ENDBRANCH  17  18
ENDBRANCH  16  17
ENDBRANCH  15  16
ENDBRANCH  14  15
ENDBRANCH  13  14
ENDBRANCH   1  13
TORSDOF 15
ENDMDL
MODEL 5
REMARK VINA RESULT:      -5.6      2.153      7.239
REMARK  Name = 
REMARK  15 active torsions:
REMARK  status: ('A' for Active; 'I' for Inactive)
REMARK    1  A    between atoms: C_2  and  C_3
REMARK    2  A    between atoms: C_3  and  C_4
REMARK    3  A    between atoms: C_4  and  C_5
REMARK    4  A    between atoms: C_5  and  C_6
REMARK    5  A    between atoms: C_6  and  C_7
REMARK    6  A    between atoms: C_7  and  C_8
REMARK    7  A    between atoms: C_8  and  C_9
REMARK    8  A    between atoms: C_9  and  C_10
REMARK    9  A    between atoms: C_10  and  C_11
REMARK   10  A    between atoms: C_11  and  C_12
REMARK   11  A    between atoms: C_12  and  C_13
REMARK   12  A    between atoms: C_13  and  C_14
REMARK   13  A    between atoms: C_14  and  C_15
REMARK   14  A    between atoms: C_15  and  C_16
REMARK   15  A    between atoms: C_16  and  N_17
REMARK                            x       y       z     vdW  Elec       q    Type
REMARK                         _______ _______ _______ _____ _____    ______ ____
ROOT
ATOM      1  C   UNL     1      -2.211   5.808  -6.175  0.00  0.00    +0.000 C 
ENDROOT
BRANCH   1   2
ATOM      2  C   UNL     1      -1.603   6.407  -4.939  0.00  0.00    +0.000 C 
BRANCH   2   3
ATOM      3  C   UNL     1      -2.234   5.878  -3.667  0.00  0.00    +0.000 C 
BRANCH   3   4
ATOM      4  C   UNL     1      -1.138   5.504  -2.676  0.00  0.00    +0.007 C 
BRANCH   4   5
ATOM      5  C   UNL     1       0.200   5.353  -3.365  0.00  0.00    +0.085 C 
BRANCH   5   6
ATOM      6  C   UNL     1       1.318   6.030  -2.618  0.00  0.00    +0.322 C 
BRANCH   6   7
ATOM      7  N   UNL     1       2.552   6.080  -3.380  0.00  0.00    -0.160 N 
ATOM      8  C   UNL     1       3.420   5.041  -3.361  0.00  0.00    +0.290 A 
ATOM      9  C   UNL     1       4.543   5.107  -4.178  0.00  0.00    +0.076 A 
ATOM     10  C   UNL     1       4.536   5.923  -5.301  0.00  0.00    +0.013 A 
ATOM     11  C   UNL     1       3.761   7.071  -5.187  0.00  0.00    +0.076 A 
ATOM     12  C   UNL     1       2.842   7.150  -4.150  0.00  0.00    +0.290 A 
ENDBRANCH   6   7
ENDBRANCH   5   6
ENDBRANCH   4   5
ENDBRANCH   3   4
ENDBRANCH   2   3
ENDBRANCH   1   2
BRANCH   1  13
ATOM     13  C   UNL     1      -1.164   5.079  -6.994  0.00  0.00    +0.000 C 
BRANCH  13  14
ATOM     14  C   UNL     1       0.135   5.864  -6.959  0.00  0.00    +0.000 C 
BRANCH  14  15
ATOM     15  C   UNL     1       1.254   4.841  -6.832  0.00  0.00    +0.000 C 
BRANCH  15  16
ATOM     16  C   UNL     1       2.072   4.956  -8.113  0.00  0.00    +0.000 C 
BRANCH  16  17
ATOM     17  C   UNL     1       1.829   6.346  -8.653  0.00  0.00    +0.000 C 
BRANCH  17  18
ATOM     18  C   UNL     1       3.166   7.037  -8.878  0.00  0.00    +0.000 C 
BRANCH  18  19
ATOM     19  C   UNL     1       4.209   5.933  -8.987  0.00  0.00    +0.000 C 
BRANCH  19  20
ATOM     20  C   UNL     1       5.258   6.411  -9.982  0.00  0.00    +0.000 C 
BRANCH  20  22
ATOM     21  C   UNL     1       7.666   6.508 -10.474  0.00  0.00    +0.000 C 
ATOM     22  C   UNL     1       6.590   5.788  -9.669  0.00  0.00    +0.000 C 
ENDBRANCH  20  22
ENDBRANCH  19  20
ENDBRANCH  18  19
ENDBRANCH  17  18
ENDBRANCH  16  17
ENDBRANCH  15  16
ENDBRANCH  14  15
ENDBRANCH  13  14
ENDBRANCH   1  13
TORSDOF 15
ENDMDL
MODEL 6
REMARK VINA RESULT:      -5.6      1.434      2.604
REMARK  Name = 
REMARK  15 active torsions:
REMARK  status: ('A' for Active; 'I' for Inactive)
REMARK    1  A    between atoms: C_2  and  C_3
REMARK    2  A    between atoms: C_3  and  C_4
REMARK    3  A    between atoms: C_4  and  C_5
REMARK    4  A    between atoms: C_5  and  C_6
REMARK    5  A    between atoms: C_6  and  C_7
REMARK    6  A    between atoms: C_7  and  C_8
REMARK    7  A    between atoms: C_8  and  C_9
REMARK    8  A    between atoms: C_9  and  C_10
REMARK    9  A    between atoms: C_10  and  C_11
REMARK   10  A    between atoms: C_11  and  C_12
REMARK   11  A    between atoms: C_12  and  C_13
REMARK   12  A    between atoms: C_13  and  C_14
REMARK   13  A    between atoms: C_14  and  C_15
REMARK   14  A    between atoms: C_15  and  C_16
REMARK   15  A    between atoms: C_16  and  N_17
REMARK                            x       y       z     vdW  Elec       q    Type
REMARK                         _______ _______ _______ _____ _____    ______ ____
ROOT
ATOM      1  C   UNL     1       3.731   7.572  -3.140  0.00  0.00    +0.000 C 
ENDROOT
BRANCH   1   2
ATOM      2  C   UNL     1       4.580   7.425  -4.370  0.00  0.00    +0.000 C 
BRANCH   2   3
ATOM      3  C   UNL     1       3.763   7.098  -5.603  0.00  0.00    +0.000 C 
BRANCH   3   4
ATOM      4  C   UNL     1       4.206   5.750  -6.161  0.00  0.00    +0.007 C 
BRANCH   4   5
ATOM      5  C   UNL     1       4.058   5.700  -7.666  0.00  0.00    +0.085 C 
BRANCH   5   6
ATOM      6  C   UNL     1       5.235   5.051  -8.344  0.00  0.00    +0.322 C 
BRANCH   6   7
ATOM      7  N   UNL     1       5.756   5.843  -9.442  0.00  0.00    -0.160 N 
ATOM      8  C   UNL     1       4.936   6.628 -10.180  0.00  0.00    +0.290 A 
ATOM      9  C   UNL     1       5.503   7.430 -11.163  0.00  0.00    +0.076 A 
ATOM     10  C   UNL     1       6.840   7.795 -11.075  0.00  0.00    +0.013 A 
ATOM     11  C   UNL     1       7.663   6.859 -10.460  0.00  0.00    +0.076 A 
ATOM     12  C   UNL     1       7.075   5.838  -9.729  0.00  0.00    +0.290 A 
ENDBRANCH   6   7
ENDBRANCH   5   6
ENDBRANCH   4   5
ENDBRANCH   3   4
ENDBRANCH   2   3
ENDBRANCH   1   2
BRANCH   1  13
ATOM     13  C   UNL     1       4.385   6.905  -1.948  0.00  0.00    +0.000 C 
BRANCH  13  14
ATOM     14  C   UNL     1       3.476   5.806  -1.427  0.00  0.00    +0.000 C 
BRANCH  14  15
ATOM     15  C   UNL     1       2.470   5.519  -2.531  0.00  0.00    +0.000 C 
BRANCH  15  16
ATOM     16  C   UNL     1       1.116   5.394  -1.841  0.00  0.00    +0.000 C 
BRANCH  16  17
ATOM     17  C   UNL     1       0.080   5.333  -2.940  0.00  0.00    +0.000 C 
BRANCH  17  18
ATOM     18  C   UNL     1       0.778   5.409  -4.290  0.00  0.00    +0.000 C 
BRANCH  18  19
ATOM     19  C   UNL     1       0.009   6.431  -5.116  0.00  0.00    +0.000 C 
BRANCH  19  20
ATOM     20  C   UNL     1      -0.806   5.651  -6.139  0.00  0.00    +0.000 C 
BRANCH  20  22
ATOM     21  C   UNL     1      -2.436   7.194  -5.134  0.00  0.00    +0.000 C 
ATOM     22  C   UNL     1      -2.274   5.910  -5.937  0.00  0.00    +0.000 C 
ENDBRANCH  20  22
ENDBRANCH  19  20
ENDBRANCH  18  19
ENDBRANCH  17  18
ENDBRANCH  16  17
ENDBRANCH  15  16
ENDBRANCH  14  15
ENDBRANCH  13  14
ENDBRANCH   1  13
TORSDOF 15
ENDMDL
MODEL 7
REMARK VINA RESULT:      -5.6      3.035      5.011
REMARK  Name = 
REMARK  15 active torsions:
REMARK  status: ('A' for Active; 'I' for Inactive)
REMARK    1  A    between atoms: C_2  and  C_3
REMARK    2  A    between atoms: C_3  and  C_4
REMARK    3  A    between atoms: C_4  and  C_5
REMARK    4  A    between atoms: C_5  and  C_6
REMARK    5  A    between atoms: C_6  and  C_7
REMARK    6  A    between atoms: C_7  and  C_8
REMARK    7  A    between atoms: C_8  and  C_9
REMARK    8  A    between atoms: C_9  and  C_10
REMARK    9  A    between atoms: C_10  and  C_11
REMARK   10  A    between atoms: C_11  and  C_12
REMARK   11  A    between atoms: C_12  and  C_13
REMARK   12  A    between atoms: C_13  and  C_14
REMARK   13  A    between atoms: C_14  and  C_15
REMARK   14  A    between atoms: C_15  and  C_16
REMARK   15  A    between atoms: C_16  and  N_17
REMARK                            x       y       z     vdW  Elec       q    Type
REMARK                         _______ _______ _______ _____ _____    ______ ____
ROOT
ATOM      1  C   UNL     1      -0.574   5.484  -8.115  0.00  0.00    +0.000 C 
ENDROOT
BRANCH   1   2
ATOM      2  C   UNL     1       0.925   5.559  -8.079  0.00  0.00    +0.000 C 
BRANCH   2   3
ATOM      3  C   UNL     1       1.464   6.752  -8.843  0.00  0.00    +0.000 C 
BRANCH   3   4
ATOM      4  C   UNL     1       2.436   7.523  -7.958  0.00  0.00    +0.007 C 
BRANCH   4   5
ATOM      5  C   UNL     1       2.605   6.854  -6.611  0.00  0.00    +0.085 C 
BRANCH   5   6
ATOM      6  C   UNL     1       4.018   6.401  -6.360  0.00  0.00    +0.322 C 
BRANCH   6   7
ATOM      7  N   UNL     1       4.358   6.377  -4.950  0.00  0.00    -0.160 N 
ATOM      8  C   UNL     1       4.647   7.523  -4.288  0.00  0.00    +0.290 A 
ATOM      9  C   UNL     1       4.879   7.450  -2.920  0.00  0.00    +0.076 A 
ATOM     10  C   UNL     1       4.365   6.391  -2.184  0.00  0.00    +0.013 A 
ATOM     11  C   UNL     1       4.260   5.191  -2.879  0.00  0.00    +0.076 A 
ATOM     12  C   UNL     1       4.357   5.216  -4.262  0.00  0.00    +0.290 A 
ENDBRANCH   6   7
ENDBRANCH   5   6
ENDBRANCH   4   5
ENDBRANCH   3   4
ENDBRANCH   2   3
ENDBRANCH   1   2
BRANCH   1  13
ATOM     13  C   UNL     1      -1.126   5.051  -6.772  0.00  0.00    +0.000 C 
BRANCH  13  14
ATOM     14  C   UNL     1      -1.842   6.223  -6.123  0.00  0.00    +0.000 C 
BRANCH  14  15
ATOM     15  C   UNL     1      -0.852   6.850  -5.154  0.00  0.00    +0.000 C 
BRANCH  15  16
ATOM     16  C   UNL     1      -0.163   5.686  -4.449  0.00  0.00    +0.000 C 
BRANCH  16  17
ATOM     17  C   UNL     1       0.775   6.296  -3.433  0.00  0.00    +0.000 C 
BRANCH  17  18
ATOM     18  C   UNL     1       0.589   5.594  -2.096  0.00  0.00    +0.000 C 
BRANCH  18  19
ATOM     19  C   UNL     1      -0.878   5.191  -2.020  0.00  0.00    +0.000 C 
BRANCH  19  20
ATOM     20  C   UNL     1      -1.530   6.085  -0.975  0.00  0.00    +0.000 C 
BRANCH  20  22
ATOM     21  C   UNL     1      -3.413   6.332  -2.537  0.00  0.00    +0.000 C 
ATOM     22  C   UNL     1      -2.437   7.083  -1.640  0.00  0.00    +0.000 C 
ENDBRANCH  20  22
ENDBRANCH  19  20
ENDBRANCH  18  19
ENDBRANCH  17  18
ENDBRANCH  16  17
ENDBRANCH  15  16
ENDBRANCH  14  15
ENDBRANCH  13  14
ENDBRANCH   1  13
TORSDOF 15
ENDMDL
MODEL 8
REMARK VINA RESULT:      -5.6      1.178      2.404
REMARK  Name = 
REMARK  15 active torsions:
REMARK  status: ('A' for Active; 'I' for Inactive)
REMARK    1  A    between atoms: C_2  and  C_3
REMARK    2  A    between atoms: C_3  and  C_4
REMARK    3  A    between atoms: C_4  and  C_5
REMARK    4  A    between atoms: C_5  and  C_6
REMARK    5  A    between atoms: C_6  and  C_7
REMARK    6  A    between atoms: C_7  and  C_8
REMARK    7  A    between atoms: C_8  and  C_9
REMARK    8  A    between atoms: C_9  and  C_10
REMARK    9  A    between atoms: C_10  and  C_11
REMARK   10  A    between atoms: C_11  and  C_12
REMARK   11  A    between atoms: C_12  and  C_13
REMARK   12  A    between atoms: C_13  and  C_14
REMARK   13  A    between atoms: C_14  and  C_15
REMARK   14  A    between atoms: C_15  and  C_16
REMARK   15  A    between atoms: C_16  and  N_17
REMARK                            x       y       z     vdW  Elec       q    Type
REMARK                         _______ _______ _______ _____ _____    ______ ____
ROOT
ATOM      1  C   UNL     1       2.148   6.636  -5.764  0.00  0.00    +0.000 C 
ENDROOT
BRANCH   1   2
ATOM      2  C   UNL     1       3.521   6.186  -5.357  0.00  0.00    +0.000 C 
BRANCH   2   3
ATOM      3  C   UNL     1       4.293   5.568  -6.506  0.00  0.00    +0.000 C 
BRANCH   3   4
ATOM      4  C   UNL     1       3.322   4.861  -7.445  0.00  0.00    +0.007 C 
BRANCH   4   5
ATOM      5  C   UNL     1       3.922   4.679  -8.822  0.00  0.00    +0.085 C 
BRANCH   5   6
ATOM      6  C   UNL     1       3.859   5.932  -9.654  0.00  0.00    +0.322 C 
BRANCH   6   7
ATOM      7  N   UNL     1       5.170   6.410 -10.049  0.00  0.00    -0.160 N 
ATOM      8  C   UNL     1       6.293   5.791  -9.614  0.00  0.00    +0.290 A 
ATOM      9  C   UNL     1       7.518   6.238 -10.094  0.00  0.00    +0.076 A 
ATOM     10  C   UNL     1       7.583   6.920 -11.302  0.00  0.00    +0.013 A 
ATOM     11  C   UNL     1       6.461   7.682 -11.605  0.00  0.00    +0.076 A 
ATOM     12  C   UNL     1       5.295   7.461 -10.887  0.00  0.00    +0.290 A 
ENDBRANCH   6   7
ENDBRANCH   5   6
ENDBRANCH   4   5
ENDBRANCH   3   4
ENDBRANCH   2   3
ENDBRANCH   1   2
BRANCH   1  13
ATOM     13  C   UNL     1       1.263   6.838  -4.550  0.00  0.00    +0.000 C 
BRANCH  13  14
ATOM     14  C   UNL     1       2.037   6.465  -3.299  0.00  0.00    +0.000 C 
BRANCH  14  15
ATOM     15  C   UNL     1       1.004   6.065  -2.256  0.00  0.00    +0.000 C 
BRANCH  15  16
ATOM     16  C   UNL     1      -0.018   5.204  -2.989  0.00  0.00    +0.000 C 
BRANCH  16  17
ATOM     17  C   UNL     1      -1.363   5.525  -2.380  0.00  0.00    +0.000 C 
BRANCH  17  18
ATOM     18  C   UNL     1      -2.438   5.405  -3.449  0.00  0.00    +0.000 C 
BRANCH  18  19
ATOM     19  C   UNL     1      -2.760   6.824  -3.899  0.00  0.00    +0.000 C 
BRANCH  19  20
ATOM     20  C   UNL     1      -2.404   6.912  -5.377  0.00  0.00    +0.000 C 
BRANCH  20  22
ATOM     21  C   UNL     1      -1.248   5.357  -6.892  0.00  0.00    +0.000 C 
ATOM     22  C   UNL     1      -2.474   5.548  -6.008  0.00  0.00    +0.000 C 
ENDBRANCH  20  22
ENDBRANCH  19  20
ENDBRANCH  18  19
ENDBRANCH  17  18
ENDBRANCH  16  17
ENDBRANCH  15  16
ENDBRANCH  14  15
ENDBRANCH  13  14
ENDBRANCH   1  13
TORSDOF 15
ENDMDL
MODEL 9
REMARK VINA RESULT:      -5.5      2.245      7.856
REMARK  Name = 
REMARK  15 active torsions:
REMARK  status: ('A' for Active; 'I' for Inactive)
REMARK    1  A    between atoms: C_2  and  C_3
REMARK    2  A    between atoms: C_3  and  C_4
REMARK    3  A    between atoms: C_4  and  C_5
REMARK    4  A    between atoms: C_5  and  C_6
REMARK    5  A    between atoms: C_6  and  C_7
REMARK    6  A    between atoms: C_7  and  C_8
REMARK    7  A    between atoms: C_8  and  C_9
REMARK    8  A    between atoms: C_9  and  C_10
REMARK    9  A    between atoms: C_10  and  C_11
REMARK   10  A    between atoms: C_11  and  C_12
REMARK   11  A    between atoms: C_12  and  C_13
REMARK   12  A    between atoms: C_13  and  C_14
REMARK   13  A    between atoms: C_14  and  C_15
REMARK   14  A    between atoms: C_15  and  C_16
REMARK   15  A    between atoms: C_16  and  N_17
REMARK                            x       y       z     vdW  Elec       q    Type
REMARK                         _______ _______ _______ _____ _____    ______ ____
ROOT
ATOM      1  C   UNL     1       0.121   5.454  -9.004  0.00  0.00    +0.000 C 
ENDROOT
BRANCH   1   2
ATOM      2  C   UNL     1       0.125   5.366  -7.505  0.00  0.00    +0.000 C 
BRANCH   2   3
ATOM      3  C   UNL     1      -1.264   5.501  -6.913  0.00  0.00    +0.000 C 
BRANCH   3   4
ATOM      4  C   UNL     1      -1.159   6.060  -5.499  0.00  0.00    +0.007 C 
BRANCH   4   5
ATOM      5  C   UNL     1       0.084   6.908  -5.332  0.00  0.00    +0.085 C 
BRANCH   5   6
ATOM      6  C   UNL     1       0.795   6.647  -4.031  0.00  0.00    +0.322 C 
BRANCH   6   7
ATOM      7  N   UNL     1       2.236   6.763  -4.147  0.00  0.00    -0.160 N 
ATOM      8  C   UNL     1       2.848   6.628  -5.347  0.00  0.00    +0.290 A 
ATOM      9  C   UNL     1       4.220   6.836  -5.412  0.00  0.00    +0.076 A 
ATOM     10  C   UNL     1       4.852   7.611  -4.450  0.00  0.00    +0.013 A 
ATOM     11  C   UNL     1       4.272   7.564  -3.187  0.00  0.00    +0.076 A 
ATOM     12  C   UNL     1       2.993   7.042  -3.064  0.00  0.00    +0.290 A 
ENDBRANCH   6   7
ENDBRANCH   5   6
ENDBRANCH   4   5
ENDBRANCH   3   4
ENDBRANCH   2   3
ENDBRANCH   1   2
BRANCH   1  13
ATOM     13  C   UNL     1       1.532   5.384  -9.553  0.00  0.00    +0.000 C 
BRANCH  13  14
ATOM     14  C   UNL     1       2.309   4.318  -8.802  0.00  0.00    +0.000 C 
BRANCH  14  15
ATOM     15  C   UNL     1       3.768   4.749  -8.827  0.00  0.00    +0.000 C 
BRANCH  15  16
ATOM     16  C   UNL     1       4.009   5.327 -10.217  0.00  0.00    +0.000 C 
BRANCH  16  17
ATOM     17  C   UNL     1       5.367   5.988 -10.176  0.00  0.00    +0.000 C 
BRANCH  17  18
ATOM     18  C   UNL     1       5.277   7.358 -10.833  0.00  0.00    +0.000 C 
BRANCH  18  19
ATOM     19  C   UNL     1       6.540   7.520 -11.668  0.00  0.00    +0.000 C 
BRANCH  19  20
ATOM     20  C   UNL     1       6.545   6.390 -12.688  0.00  0.00    +0.000 C 
BRANCH  20  22
ATOM     21  C   UNL     1       8.782   5.760 -11.880  0.00  0.00    +0.000 C 
ATOM     22  C   UNL     1       7.955   6.087 -13.117  0.00  0.00    +0.000 C 
ENDBRANCH  20  22
ENDBRANCH  19  20
ENDBRANCH  18  19
ENDBRANCH  17  18
ENDBRANCH  16  17
ENDBRANCH  15  16
ENDBRANCH  14  15
ENDBRANCH  13  14
ENDBRANCH   1  13
TORSDOF 15
ENDMDL
