MODEL 1
REMARK VINA RESULT:      -9.3      0.000      0.000
REMARK  Name = 
REMARK  8 active torsions:
REMARK  status: ('A' for Active; 'I' for Inactive)
REMARK    1  A    between atoms: C_2  and  C_3
REMARK    2  A    between atoms: C_3  and  C_4
REMARK    3  A    between atoms: C_4  and  O_6
REMARK    4  A    between atoms: O_6  and  C_7
REMARK    5  A    between atoms: C_7  and  C_8
REMARK    6  A    between atoms: C_8  and  C_10
REMARK    7  A    between atoms: C_10  and  O_11
REMARK    8  A    between atoms: O_11  and  C_12
REMARK                            x       y       z     vdW  Elec       q    Type
REMARK                         _______ _______ _______ _____ _____    ______ ____
ROOT
ATOM      1  C   UNL     1       1.965   5.649  -8.634  0.00  0.00    +0.190 C 
ATOM      2  C   UNL     1       1.826   5.654  -7.148  0.00  0.00    +0.043 C 
ATOM      3  C   UNL     1       3.283   6.331  -6.971  0.00  0.00    +0.007 C 
ATOM      4  C   UNL     1       2.974   6.802  -5.376  0.00  0.00    +0.036 C 
ATOM      5  C   UNL     1       3.332   5.371  -4.724  0.00  0.00    +0.168 C 
ATOM      6  C   UNL     1       2.000   4.426  -4.909  0.00  0.00    +0.182 C 
ATOM      7  O   UNL     1       1.012   5.574  -4.804  0.00  0.00    -0.220 OA
ATOM      8  F   UNL     1       4.341   4.798  -5.357  0.00  0.00    -0.237 F 
ATOM      9  C   UNL     1       3.346   5.665  -3.311  0.00  0.00    +0.066 C 
ATOM     10  C   UNL     1       3.484   7.107  -3.054  0.00  0.00    -0.003 C 
ATOM     11  C   UNL     1       3.219   7.528  -1.814  0.00  0.00    +0.036 C 
ATOM     12  C   UNL     1       3.118   6.487  -0.767  0.00  0.00    +0.195 C 
ATOM     13  C   UNL     1       4.073   5.407  -1.093  0.00  0.00    +0.038 C 
ATOM     14  O   UNL     1       2.801   6.813   0.392  0.00  0.00    -0.287 OA
ATOM     15  C   UNL     1       4.684   7.925  -3.771  0.00  0.00    +0.180 C 
ATOM     16  F   UNL     1       5.713   6.862  -3.437  0.00  0.00    -0.233 F 
ATOM     17  C   UNL     1       2.007   5.342  -2.625  0.00  0.00    +0.011 C 
ATOM     18  C   UNL     1       4.267   5.025  -2.369  0.00  0.00    -0.017 C 
ATOM     19  C   UNL     1       4.508   7.286  -5.274  0.00  0.00    +0.042 C 
ATOM     20  C   UNL     1       2.722   7.710  -7.600  0.00  0.00    +0.004 C 
ATOM     21  C   UNL     1       0.760   6.622  -6.881  0.00  0.00    +0.004 C 
ATOM     22  C   UNL     1       1.998   4.412  -6.546  0.00  0.00    +0.039 C 
ATOM     23  C   UNL     1       1.979   7.174  -8.827  0.00  0.00    +0.048 C 
ENDROOT
BRANCH   1  24
ATOM     24  C   UNL     1       0.871   5.078  -9.416  0.00  0.00    +0.230 C 
ATOM     25  O   UNL     1       1.133   3.999  -9.958  0.00  0.00    -0.288 OA
BRANCH  24  26
ATOM     26  C   UNL     1      -0.161   5.830 -10.160  0.00  0.00    +0.276 C 
BRANCH  26  27
ATOM     27  O   UNL     1       0.127   6.031 -11.512  0.00  0.00    -0.440 OA
BRANCH  27  28
ATOM     28  C   UNL     1      -0.002   7.232 -12.164  0.00  0.00    +0.318 C 
ATOM     29  O   UNL     1      -0.598   8.130 -11.534  0.00  0.00    -0.250 OA
ATOM     30  C   UNL     1       0.671   7.583 -13.430  0.00  0.00    +0.121 C 
ENDBRANCH  27  28
ENDBRANCH  26  27
ENDBRANCH  24  26
ENDBRANCH   1  24
BRANCH   1  31
ATOM     31  O   UNL     1       3.218   5.258  -9.083  0.00  0.00    -0.448 OA
BRANCH  31  32
ATOM     32  C   UNL     1       3.863   5.663 -10.221  0.00  0.00    +0.317 C 
ATOM     33  O   UNL     1       3.229   5.642 -11.291  0.00  0.00    -0.250 OA
BRANCH  32  34
ATOM     34  C   UNL     1       5.153   6.352 -10.001  0.00  0.00    +0.110 C 
BRANCH  34  36
ATOM     35  C   UNL     1       7.261   5.809  -9.454  0.00  0.00    +0.001 C 
ATOM     36  C   UNL     1       6.052   5.483  -9.148  0.00  0.00    +0.012 C 
ENDBRANCH  34  36
ENDBRANCH  32  34
ENDBRANCH  31  32
ENDBRANCH   1  31
TORSDOF 8
ENDMDL
MODEL 2
REMARK VINA RESULT:      -8.8      2.350      7.361
REMARK  Name = 
REMARK  8 active torsions:
REMARK  status: ('A' for Active; 'I' for Inactive)
REMARK    1  A    between atoms: C_2  and  C_3
REMARK    2  A    between atoms: C_3  and  C_4
REMARK    3  A    between atoms: C_4  and  O_6
REMARK    4  A    between atoms: O_6  and  C_7
REMARK    5  A    between atoms: C_7  and  C_8
REMARK    6  A    between atoms: C_8  and  C_10
REMARK    7  A    between atoms: C_10  and  O_11
REMARK    8  A    between atoms: O_11  and  C_12
REMARK                            x       y       z     vdW  Elec       q    Type
REMARK                         _______ _______ _______ _____ _____    ______ ____
ROOT
ATOM      1  C   UNL     1       2.336   6.236  -3.482  0.00  0.00    +0.190 C 
ATOM      2  C   UNL     1       1.668   5.866  -4.765  0.00  0.00    +0.043 C 
ATOM      3  C   UNL     1       2.939   6.375  -5.623  0.00  0.00    +0.007 C 
ATOM      4  C   UNL     1       2.451   5.544  -7.014  0.00  0.00    +0.036 C 
ATOM      5  C   UNL     1       1.408   6.671  -7.504  0.00  0.00    +0.168 C 
ATOM      6  C   UNL     1       0.027   6.437  -6.644  0.00  0.00    +0.182 C 
ATOM      7  O   UNL     1       0.197   4.932  -6.533  0.00  0.00    -0.220 OA
ATOM      8  F   UNL     1       1.860   7.885  -7.245  0.00  0.00    -0.237 F 
ATOM      9  C   UNL     1       1.061   6.220  -8.831  0.00  0.00    +0.066 C 
ATOM     10  C   UNL     1       2.048   5.266  -9.360  0.00  0.00    -0.003 C 
ATOM     11  C   UNL     1       1.692   4.564 -10.440  0.00  0.00    +0.036 C 
ATOM     12  C   UNL     1       0.490   5.029 -11.166  0.00  0.00    +0.195 C 
ATOM     13  C   UNL     1       0.435   6.503 -11.077  0.00  0.00    +0.038 C 
ATOM     14  O   UNL     1       0.070   4.372 -12.137  0.00  0.00    -0.287 OA
ATOM     15  C   UNL     1       3.618   5.660  -9.334  0.00  0.00    +0.180 C 
ATOM     16  F   UNL     1       3.358   7.055  -9.870  0.00  0.00    -0.233 F 
ATOM     17  C   UNL     1      -0.235   5.390  -8.855  0.00  0.00    +0.011 C 
ATOM     18  C   UNL     1       0.790   7.135  -9.943  0.00  0.00    -0.017 C 
ATOM     19  C   UNL     1       3.663   6.254  -7.803  0.00  0.00    +0.042 C 
ATOM     20  C   UNL     1       3.817   5.139  -5.062  0.00  0.00    +0.004 C 
ATOM     21  C   UNL     1       1.602   4.403  -4.737  0.00  0.00    +0.004 C 
ATOM     22  C   UNL     1       0.664   6.741  -5.167  0.00  0.00    +0.039 C 
ATOM     23  C   UNL     1       3.486   5.218  -3.569  0.00  0.00    +0.048 C 
ENDROOT
BRANCH   1  24
ATOM     24  C   UNL     1       1.596   6.014  -2.243  0.00  0.00    +0.230 C 
ATOM     25  O   UNL     1       1.927   5.002  -1.617  0.00  0.00    -0.288 OA
BRANCH  24  26
ATOM     26  C   UNL     1       0.188   6.382  -1.984  0.00  0.00    +0.276 C 
BRANCH  26  27
ATOM     27  O   UNL     1      -0.733   5.359  -2.219  0.00  0.00    -0.440 OA
BRANCH  27  28
ATOM     28  C   UNL     1      -1.982   5.546  -2.760  0.00  0.00    +0.318 C 
ATOM     29  O   UNL     1      -2.760   4.574  -2.674  0.00  0.00    -0.250 OA
ATOM     30  C   UNL     1      -2.513   6.838  -3.234  0.00  0.00    +0.121 C 
ENDBRANCH  27  28
ENDBRANCH  26  27
ENDBRANCH  24  26
ENDBRANCH   1  24
BRANCH   1  31
ATOM     31  O   UNL     1       2.988   7.459  -3.517  0.00  0.00    -0.448 OA
BRANCH  31  32
ATOM     32  C   UNL     1       4.131   7.817  -2.853  0.00  0.00    +0.317 C 
ATOM     33  O   UNL     1       5.144   8.072  -3.528  0.00  0.00    -0.250 OA
BRANCH  32  34
ATOM     34  C   UNL     1       3.952   8.137  -1.420  0.00  0.00    +0.110 C 
BRANCH  34  36
ATOM     35  C   UNL     1       4.281   7.260   0.620  0.00  0.00    +0.001 C 
ATOM     36  C   UNL     1       4.744   7.158  -0.579  0.00  0.00    +0.012 C 
ENDBRANCH  34  36
ENDBRANCH  32  34
ENDBRANCH  31  32
ENDBRANCH   1  31
TORSDOF 8
ENDMDL
MODEL 3
REMARK VINA RESULT:      -8.6      2.035      4.306
REMARK  Name = 
REMARK  8 active torsions:
REMARK  status: ('A' for Active; 'I' for Inactive)
REMARK    1  A    between atoms: C_2  and  C_3
REMARK    2  A    between atoms: C_3  and  C_4
REMARK    3  A    between atoms: C_4  and  O_6
REMARK    4  A    between atoms: O_6  and  C_7
REMARK    5  A    between atoms: C_7  and  C_8
REMARK    6  A    between atoms: C_8  and  C_10
REMARK    7  A    between atoms: C_10  and  O_11
REMARK    8  A    between atoms: O_11  and  C_12
REMARK                            x       y       z     vdW  Elec       q    Type
REMARK                         _______ _______ _______ _____ _____    ______ ____
ROOT
ATOM      1  C   UNL     1       2.494   5.535  -7.645  0.00  0.00    +0.190 C 
ATOM      2  C   UNL     1       3.250   5.848  -6.397  0.00  0.00    +0.043 C 
ATOM      3  C   UNL     1       1.953   5.543  -5.483  0.00  0.00    +0.007 C 
ATOM      4  C   UNL     1       2.867   5.404  -4.066  0.00  0.00    +0.036 C 
ATOM      5  C   UNL     1       2.949   6.989  -3.784  0.00  0.00    +0.168 C 
ATOM      6  C   UNL     1       4.155   7.573  -4.737  0.00  0.00    +0.182 C 
ATOM      7  O   UNL     1       4.988   6.304  -4.683  0.00  0.00    -0.220 OA
ATOM      8  F   UNL     1       1.823   7.592  -4.121  0.00  0.00    -0.237 F 
ATOM      9  C   UNL     1       3.511   7.042  -2.455  0.00  0.00    +0.066 C 
ATOM     10  C   UNL     1       3.367   5.759  -1.750  0.00  0.00    -0.003 C 
ATOM     11  C   UNL     1       4.096   5.594  -0.642  0.00  0.00    +0.036 C 
ATOM     12  C   UNL     1       4.725   6.806  -0.074  0.00  0.00    +0.195 C 
ATOM     13  C   UNL     1       3.822   7.952  -0.313  0.00  0.00    +0.038 C 
ATOM     14  O   UNL     1       5.473   6.702   0.915  0.00  0.00    -0.287 OA
ATOM     15  C   UNL     1       1.909   5.059  -1.674  0.00  0.00    +0.180 C 
ATOM     16  F   UNL     1       1.218   6.357  -1.303  0.00  0.00    -0.233 F 
ATOM     17  C   UNL     1       5.038   7.235  -2.465  0.00  0.00    +0.011 C 
ATOM     18  C   UNL     1       3.139   8.058  -1.468  0.00  0.00    -0.017 C 
ATOM     19  C   UNL     1       1.486   5.280  -3.246  0.00  0.00    +0.042 C 
ATOM     20  C   UNL     1       2.068   3.970  -5.840  0.00  0.00    +0.004 C 
ATOM     21  C   UNL     1       4.238   4.772  -6.286  0.00  0.00    +0.004 C 
ATOM     22  C   UNL     1       3.463   7.204  -6.173  0.00  0.00    +0.039 C 
ATOM     23  C   UNL     1       2.264   4.042  -7.356  0.00  0.00    +0.048 C 
ENDROOT
BRANCH   1  24
ATOM     24  C   UNL     1       3.198   5.672  -8.918  0.00  0.00    +0.230 C 
ATOM     25  O   UNL     1       3.725   4.633  -9.330  0.00  0.00    -0.288 OA
BRANCH  24  26
ATOM     26  C   UNL     1       3.902   6.876  -9.406  0.00  0.00    +0.276 C 
BRANCH  26  27
ATOM     27  O   UNL     1       4.599   6.697 -10.603  0.00  0.00    -0.440 OA
BRANCH  27  28
ATOM     28  C   UNL     1       5.917   7.031 -10.794  0.00  0.00    +0.318 C 
ATOM     29  O   UNL     1       6.122   8.095 -11.414  0.00  0.00    -0.250 OA
ATOM     30  C   UNL     1       7.062   6.348 -10.161  0.00  0.00    +0.121 C 
ENDBRANCH  27  28
ENDBRANCH  26  27
ENDBRANCH  24  26
ENDBRANCH   1  24
BRANCH   1  31
ATOM     31  O   UNL     1       1.209   6.057  -7.673  0.00  0.00    -0.448 OA
BRANCH  31  32
ATOM     32  C   UNL     1       0.161   5.658  -8.458  0.00  0.00    +0.317 C 
ATOM     33  O   UNL     1       0.339   5.605  -9.688  0.00  0.00    -0.250 OA
BRANCH  32  34
ATOM     34  C   UNL     1      -0.979   5.061  -7.729  0.00  0.00    +0.110 C 
BRANCH  34  36
ATOM     35  C   UNL     1      -2.504   5.795  -6.255  0.00  0.00    +0.001 C 
ATOM     36  C   UNL     1      -1.231   5.842  -6.457  0.00  0.00    +0.012 C 
ENDBRANCH  34  36
ENDBRANCH  32  34
ENDBRANCH  31  32
ENDBRANCH   1  31
TORSDOF 8
ENDMDL
MODEL 4
REMARK VINA RESULT:      -8.6      2.799      7.657
REMARK  Name = 
REMARK  8 active torsions:
REMARK  status: ('A' for Active; 'I' for Inactive)
REMARK    1  A    between atoms: C_2  and  C_3
REMARK    2  A    between atoms: C_3  and  C_4
REMARK    3  A    between atoms: C_4  and  O_6
REMARK    4  A    between atoms: O_6  and  C_7
REMARK    5  A    between atoms: C_7  and  C_8
REMARK    6  A    between atoms: C_8  and  C_10
REMARK    7  A    between atoms: C_10  and  O_11
REMARK    8  A    between atoms: O_11  and  C_12
REMARK                            x       y       z     vdW  Elec       q    Type
REMARK                         _______ _______ _______ _____ _____    ______ ____
ROOT
ATOM      1  C   UNL     1       0.212   5.879  -3.233  0.00  0.00    +0.190 C 
ATOM      2  C   UNL     1       1.378   5.898  -4.164  0.00  0.00    +0.043 C 
ATOM      3  C   UNL     1       0.405   5.956  -5.452  0.00  0.00    +0.007 C 
ATOM      4  C   UNL     1       1.644   6.466  -6.484  0.00  0.00    +0.036 C 
ATOM      5  C   UNL     1       2.240   4.991  -6.744  0.00  0.00    +0.168 C 
ATOM      6  C   UNL     1       3.195   4.637  -5.454  0.00  0.00    +0.182 C 
ATOM      7  O   UNL     1       3.622   6.074  -5.211  0.00  0.00    -0.220 OA
ATOM      8  F   UNL     1       1.274   4.092  -6.808  0.00  0.00    -0.237 F 
ATOM      9  C   UNL     1       3.184   5.219  -7.812  0.00  0.00    +0.066 C 
ATOM     10  C   UNL     1       2.926   6.489  -8.509  0.00  0.00    -0.003 C 
ATOM     11  C   UNL     1       3.892   6.946  -9.310  0.00  0.00    +0.036 C 
ATOM     12  C   UNL     1       4.974   5.997  -9.653  0.00  0.00    +0.195 C 
ATOM     13  C   UNL     1       4.390   4.641  -9.743  0.00  0.00    +0.038 C 
ATOM     14  O   UNL     1       5.937   6.388 -10.338  0.00  0.00    -0.287 OA
ATOM     15  C   UNL     1       1.434   6.801  -9.053  0.00  0.00    +0.180 C 
ATOM     16  F   UNL     1       1.276   5.415  -9.649  0.00  0.00    -0.233 F 
ATOM     17  C   UNL     1       4.621   5.418  -7.300  0.00  0.00    +0.011 C 
ATOM     18  C   UNL     1       3.434   4.248  -8.881  0.00  0.00    -0.017 C 
ATOM     19  C   UNL     1       0.613   6.320  -7.713  0.00  0.00    +0.042 C 
ATOM     20  C   UNL     1      -0.032   7.462  -5.057  0.00  0.00    +0.004 C 
ATOM     21  C   UNL     1       2.018   7.194  -3.928  0.00  0.00    +0.004 C 
ATOM     22  C   UNL     1       2.012   4.670  -4.323  0.00  0.00    +0.039 C 
ATOM     23  C   UNL     1      -0.313   7.287  -3.562  0.00  0.00    +0.048 C 
ENDROOT
BRANCH   1  24
ATOM     24  C   UNL     1       0.488   5.795  -1.801  0.00  0.00    +0.230 C 
ATOM     25  O   UNL     1       0.224   6.820  -1.164  0.00  0.00    -0.288 OA
BRANCH  24  26
ATOM     26  C   UNL     1       1.565   5.013  -1.159  0.00  0.00    +0.276 C 
BRANCH  26  27
ATOM     27  O   UNL     1       2.492   5.776  -0.445  0.00  0.00    -0.440 OA
BRANCH  27  28
ATOM     28  C   UNL     1       3.839   5.812  -0.712  0.00  0.00    +0.318 C 
ATOM     29  O   UNL     1       4.421   4.708  -0.710  0.00  0.00    -0.250 OA
ATOM     30  C   UNL     1       4.576   7.000  -1.183  0.00  0.00    +0.121 C 
ENDBRANCH  27  28
ENDBRANCH  26  27
ENDBRANCH  24  26
ENDBRANCH   1  24
BRANCH   1  31
ATOM     31  O   UNL     1      -0.822   5.048  -3.639  0.00  0.00    -0.448 OA
BRANCH  31  32
ATOM     32  C   UNL     1      -2.129   5.081  -3.233  0.00  0.00    +0.317 C 
ATOM     33  O   UNL     1      -2.373   4.886  -2.029  0.00  0.00    -0.250 OA
BRANCH  32  34
ATOM     34  C   UNL     1      -3.081   5.629  -4.224  0.00  0.00    +0.110 C 
BRANCH  34  36
ATOM     35  C   UNL     1      -2.952   5.976  -6.438  0.00  0.00    +0.001 C 
ATOM     36  C   UNL     1      -2.802   5.023  -5.583  0.00  0.00    +0.012 C 
ENDBRANCH  34  36
ENDBRANCH  32  34
ENDBRANCH  31  32
ENDBRANCH   1  31
TORSDOF 8
ENDMDL
MODEL 5
REMARK VINA RESULT:      -8.3      2.940      7.749
REMARK  Name = 
REMARK  8 active torsions:
REMARK  status: ('A' for Active; 'I' for Inactive)
REMARK    1  A    between atoms: C_2  and  C_3
REMARK    2  A    between atoms: C_3  and  C_4
REMARK    3  A    between atoms: C_4  and  O_6
REMARK    4  A    between atoms: O_6  and  C_7
REMARK    5  A    between atoms: C_7  and  C_8
REMARK    6  A    between atoms: C_8  and  C_10
REMARK    7  A    between atoms: C_10  and  O_11
REMARK    8  A    between atoms: O_11  and  C_12
REMARK                            x       y       z     vdW  Elec       q    Type
REMARK                         _______ _______ _______ _____ _____    ______ ____
ROOT
ATOM      1  C   UNL     1       0.444   5.830  -3.229  0.00  0.00    +0.190 C 
ATOM      2  C   UNL     1       1.576   5.857  -4.201  0.00  0.00    +0.043 C 
ATOM      3  C   UNL     1       0.558   5.954  -5.451  0.00  0.00    +0.007 C 
ATOM      4  C   UNL     1       1.766   6.474  -6.515  0.00  0.00    +0.036 C 
ATOM      5  C   UNL     1       2.335   4.999  -6.829  0.00  0.00    +0.168 C 
ATOM      6  C   UNL     1       3.331   4.606  -5.582  0.00  0.00    +0.182 C 
ATOM      7  O   UNL     1       3.784   6.032  -5.323  0.00  0.00    -0.220 OA
ATOM      8  F   UNL     1       1.358   4.111  -6.878  0.00  0.00    -0.237 F 
ATOM      9  C   UNL     1       3.244   5.240  -7.925  0.00  0.00    +0.066 C 
ATOM     10  C   UNL     1       2.976   6.528  -8.583  0.00  0.00    -0.003 C 
ATOM     11  C   UNL     1       3.918   6.992  -9.409  0.00  0.00    +0.036 C 
ATOM     12  C   UNL     1       4.976   6.040  -9.811  0.00  0.00    +0.195 C 
ATOM     13  C   UNL     1       4.374   4.693  -9.910  0.00  0.00    +0.038 C 
ATOM     14  O   UNL     1       5.919   6.436 -10.521  0.00  0.00    -0.287 OA
ATOM     15  C   UNL     1       1.469   6.868  -9.068  0.00  0.00    +0.180 C 
ATOM     16  F   UNL     1       1.275   5.498  -9.688  0.00  0.00    -0.233 F 
ATOM     17  C   UNL     1       4.701   5.413  -7.460  0.00  0.00    +0.011 C 
ATOM     18  C   UNL     1       3.445   4.291  -9.023  0.00  0.00    -0.017 C 
ATOM     19  C   UNL     1       0.691   6.366  -7.710  0.00  0.00    +0.042 C 
ATOM     20  C   UNL     1       0.153   7.455  -5.008  0.00  0.00    +0.004 C 
ATOM     21  C   UNL     1       2.239   7.141  -3.959  0.00  0.00    +0.004 C 
ATOM     22  C   UNL     1       2.190   4.626  -4.408  0.00  0.00    +0.039 C 
ATOM     23  C   UNL     1      -0.077   7.250  -3.508  0.00  0.00    +0.048 C 
ENDROOT
BRANCH   1  24
ATOM     24  C   UNL     1       0.769   5.711  -1.810  0.00  0.00    +0.230 C 
ATOM     25  O   UNL     1       0.620   4.579  -1.339  0.00  0.00    -0.288 OA
BRANCH  24  26
ATOM     26  C   UNL     1       0.604   6.759  -0.781  0.00  0.00    +0.276 C 
BRANCH  26  27
ATOM     27  O   UNL     1      -0.437   6.528   0.122  0.00  0.00    -0.440 OA
BRANCH  27  28
ATOM     28  C   UNL     1      -1.413   7.442   0.434  0.00  0.00    +0.318 C 
ATOM     29  O   UNL     1      -1.561   8.376  -0.381  0.00  0.00    -0.250 OA
ATOM     30  C   UNL     1      -2.399   7.289   1.521  0.00  0.00    +0.121 C 
ENDBRANCH  27  28
ENDBRANCH  26  27
ENDBRANCH  24  26
ENDBRANCH   1  24
BRANCH   1  31
ATOM     31  O   UNL     1      -0.613   5.020  -3.616  0.00  0.00    -0.448 OA
BRANCH  31  32
ATOM     32  C   UNL     1      -1.931   5.140  -3.265  0.00  0.00    +0.317 C 
ATOM     33  O   UNL     1      -2.251   4.872  -2.093  0.00  0.00    -0.250 OA
BRANCH  32  34
ATOM     34  C   UNL     1      -2.781   5.850  -4.245  0.00  0.00    +0.110 C 
BRANCH  34  36
ATOM     35  C   UNL     1      -2.804   5.948  -6.487  0.00  0.00    +0.001 C 
ATOM     36  C   UNL     1      -2.818   5.071  -5.542  0.00  0.00    +0.012 C 
ENDBRANCH  34  36
ENDBRANCH  32  34
ENDBRANCH  31  32
ENDBRANCH   1  31
TORSDOF 8
ENDMDL
MODEL 6
REMARK VINA RESULT:      -8.3      2.027      4.636
REMARK  Name = 
REMARK  8 active torsions:
REMARK  status: ('A' for Active; 'I' for Inactive)
REMARK    1  A    between atoms: C_2  and  C_3
REMARK    2  A    between atoms: C_3  and  C_4
REMARK    3  A    between atoms: C_4  and  O_6
REMARK    4  A    between atoms: O_6  and  C_7
REMARK    5  A    between atoms: C_7  and  C_8
REMARK    6  A    between atoms: C_8  and  C_10
REMARK    7  A    between atoms: C_10  and  O_11
REMARK    8  A    between atoms: O_11  and  C_12
REMARK                            x       y       z     vdW  Elec       q    Type
REMARK                         _______ _______ _______ _____ _____    ______ ____
ROOT
ATOM      1  C   UNL     1       1.717   5.987 -11.093  0.00  0.00    +0.190 C 
ATOM      2  C   UNL     1       2.423   5.756  -9.798  0.00  0.00    +0.043 C 
ATOM      3  C   UNL     1       1.118   6.202  -8.957  0.00  0.00    +0.007 C 
ATOM      4  C   UNL     1       1.685   5.503  -7.525  0.00  0.00    +0.036 C 
ATOM      5  C   UNL     1       2.627   6.744  -7.114  0.00  0.00    +0.168 C 
ATOM      6  C   UNL     1       4.019   6.582  -7.975  0.00  0.00    +0.182 C 
ATOM      7  O   UNL     1       3.982   5.064  -7.994  0.00  0.00    -0.220 OA
ATOM      8  F   UNL     1       2.068   7.896  -7.441  0.00  0.00    -0.237 F 
ATOM      9  C   UNL     1       3.021   6.407  -5.767  0.00  0.00    +0.066 C 
ATOM     10  C   UNL     1       2.125   5.403  -5.171  0.00  0.00    -0.003 C 
ATOM     11  C   UNL     1       2.548   4.802  -4.056  0.00  0.00    +0.036 C 
ATOM     12  C   UNL     1       3.708   5.413  -3.372  0.00  0.00    +0.195 C 
ATOM     13  C   UNL     1       3.632   6.879  -3.549  0.00  0.00    +0.038 C 
ATOM     14  O   UNL     1       4.191   4.856  -2.368  0.00  0.00    -0.287 OA
ATOM     15  C   UNL     1       0.526   5.655  -5.203  0.00  0.00    +0.180 C 
ATOM     16  F   UNL     1       0.665   7.097  -4.754  0.00  0.00    -0.233 F 
ATOM     17  C   UNL     1       4.385   5.697  -5.708  0.00  0.00    +0.011 C 
ATOM     18  C   UNL     1       3.216   7.407  -4.715  0.00  0.00    -0.017 C 
ATOM     19  C   UNL     1       0.420   6.149  -6.766  0.00  0.00    +0.042 C 
ATOM     20  C   UNL     1       0.349   4.862  -9.434  0.00  0.00    +0.004 C 
ATOM     21  C   UNL     1       2.618   4.306  -9.739  0.00  0.00    +0.004 C 
ATOM     22  C   UNL     1       3.348   6.738  -9.460  0.00  0.00    +0.039 C 
ATOM     23  C   UNL     1       0.663   4.879 -10.932  0.00  0.00    +0.048 C 
ENDROOT
BRANCH   1  24
ATOM     24  C   UNL     1       2.467   5.757 -12.325  0.00  0.00    +0.230 C 
ATOM     25  O   UNL     1       2.158   4.727 -12.933  0.00  0.00    -0.288 OA
BRANCH  24  26
ATOM     26  C   UNL     1       3.868   6.148 -12.586  0.00  0.00    +0.276 C 
BRANCH  26  27
ATOM     27  O   UNL     1       4.794   5.109 -12.468  0.00  0.00    -0.440 OA
BRANCH  27  28
ATOM     28  C   UNL     1       6.119   5.279 -12.152  0.00  0.00    +0.318 C 
ATOM     29  O   UNL     1       6.933   4.698 -12.899  0.00  0.00    -0.250 OA
ATOM     30  C   UNL     1       6.634   6.233 -11.150  0.00  0.00    +0.121 C 
ENDBRANCH  27  28
ENDBRANCH  26  27
ENDBRANCH  24  26
ENDBRANCH   1  24
BRANCH   1  31
ATOM     31  O   UNL     1       0.960   7.148 -11.124  0.00  0.00    -0.448 OA
BRANCH  31  32
ATOM     32  C   UNL     1      -0.003   7.495 -12.034  0.00  0.00    +0.317 C 
ATOM     33  O   UNL     1      -1.186   7.522 -11.652  0.00  0.00    -0.250 OA
BRANCH  32  34
ATOM     34  C   UNL     1       0.505   8.075 -13.296  0.00  0.00    +0.110 C 
BRANCH  34  36
ATOM     35  C   UNL     1       0.963   7.356 -15.372  0.00  0.00    +0.001 C 
ATOM     36  C   UNL     1       0.060   7.219 -14.462  0.00  0.00    +0.012 C 
ENDBRANCH  34  36
ENDBRANCH  32  34
ENDBRANCH  31  32
ENDBRANCH   1  31
TORSDOF 8
ENDMDL
MODEL 7
REMARK VINA RESULT:      -8.2      2.811      5.120
REMARK  Name = 
REMARK  8 active torsions:
REMARK  status: ('A' for Active; 'I' for Inactive)
REMARK    1  A    between atoms: C_2  and  C_3
REMARK    2  A    between atoms: C_3  and  C_4
REMARK    3  A    between atoms: C_4  and  O_6
REMARK    4  A    between atoms: O_6  and  C_7
REMARK    5  A    between atoms: C_7  and  C_8
REMARK    6  A    between atoms: C_8  and  C_10
REMARK    7  A    between atoms: C_10  and  O_11
REMARK    8  A    between atoms: O_11  and  C_12
REMARK                            x       y       z     vdW  Elec       q    Type
REMARK                         _______ _______ _______ _____ _____    ______ ____
ROOT
ATOM      1  C   UNL     1       2.569   5.343  -8.847  0.00  0.00    +0.190 C 
ATOM      2  C   UNL     1       2.026   5.271  -7.459  0.00  0.00    +0.043 C 
ATOM      3  C   UNL     1       0.582   5.805  -7.949  0.00  0.00    +0.007 C 
ATOM      4  C   UNL     1      -0.195   5.283  -6.540  0.00  0.00    +0.036 C 
ATOM      5  C   UNL     1       0.212   6.570  -5.659  0.00  0.00    +0.168 C 
ATOM      6  C   UNL     1       1.750   6.315  -5.138  0.00  0.00    +0.182 C 
ATOM      7  O   UNL     1       1.610   4.806  -5.056  0.00  0.00    -0.220 OA
ATOM      8  F   UNL     1       0.196   7.672  -6.388  0.00  0.00    -0.237 F 
ATOM      9  C   UNL     1      -0.583   6.396  -4.465  0.00  0.00    +0.066 C 
ATOM     10  C   UNL     1      -1.700   5.465  -4.684  0.00  0.00    -0.003 C 
ATOM     11  C   UNL     1      -2.323   5.002  -3.596  0.00  0.00    +0.036 C 
ATOM     12  C   UNL     1      -2.036   5.697  -2.322  0.00  0.00    +0.195 C 
ATOM     13  C   UNL     1      -1.825   7.131  -2.613  0.00  0.00    +0.038 C 
ATOM     14  O   UNL     1      -2.531   5.265  -1.264  0.00  0.00    -0.287 OA
ATOM     15  C   UNL     1      -2.690   5.702  -5.943  0.00  0.00    +0.180 C 
ATOM     16  F   UNL     1      -2.816   7.188  -5.665  0.00  0.00    -0.233 F 
ATOM     17  C   UNL     1       0.195   5.707  -3.331  0.00  0.00    +0.011 C 
ATOM     18  C   UNL     1      -1.166   7.515  -3.722  0.00  0.00    -0.017 C 
ATOM     19  C   UNL     1      -1.533   6.008  -7.069  0.00  0.00    +0.042 C 
ATOM     20  C   UNL     1       0.330   4.414  -8.732  0.00  0.00    +0.004 C 
ATOM     21  C   UNL     1       1.982   3.839  -7.155  0.00  0.00    +0.004 C 
ATOM     22  C   UNL     1       2.453   6.292  -6.616  0.00  0.00    +0.039 C 
ATOM     23  C   UNL     1       1.669   4.256  -9.457  0.00  0.00    +0.048 C 
ENDROOT
BRANCH   1  24
ATOM     24  C   UNL     1       3.968   4.974  -9.049  0.00  0.00    +0.230 C 
ATOM     25  O   UNL     1       4.183   3.758  -9.066  0.00  0.00    -0.288 OA
BRANCH  24  26
ATOM     26  C   UNL     1       5.151   5.734  -8.594  0.00  0.00    +0.276 C 
BRANCH  26  27
ATOM     27  O   UNL     1       5.851   6.385  -9.611  0.00  0.00    -0.440 OA
BRANCH  27  28
ATOM     28  C   UNL     1       7.117   6.048 -10.024  0.00  0.00    +0.318 C 
ATOM     29  O   UNL     1       7.713   5.213  -9.313  0.00  0.00    -0.250 OA
ATOM     30  C   UNL     1       7.717   6.436 -11.315  0.00  0.00    +0.121 C 
ENDBRANCH  27  28
ENDBRANCH  26  27
ENDBRANCH  24  26
ENDBRANCH   1  24
BRANCH   1  31
ATOM     31  O   UNL     1       2.202   6.488  -9.539  0.00  0.00    -0.448 OA
BRANCH  31  32
ATOM     32  C   UNL     1       2.126   6.658 -10.895  0.00  0.00    +0.317 C 
ATOM     33  O   UNL     1       3.145   6.428 -11.571  0.00  0.00    -0.250 OA
BRANCH  32  34
ATOM     34  C   UNL     1       0.758   6.823 -11.433  0.00  0.00    +0.110 C 
BRANCH  34  36
ATOM     35  C   UNL     1       0.525   7.762 -13.458  0.00  0.00    +0.001 C 
ATOM     36  C   UNL     1       0.775   6.612 -12.932  0.00  0.00    +0.012 C 
ENDBRANCH  34  36
ENDBRANCH  32  34
ENDBRANCH  31  32
ENDBRANCH   1  31
TORSDOF 8
ENDMDL
MODEL 8
REMARK VINA RESULT:      -8.1      1.993      4.077
REMARK  Name = 
REMARK  8 active torsions:
REMARK  status: ('A' for Active; 'I' for Inactive)
REMARK    1  A    between atoms: C_2  and  C_3
REMARK    2  A    between atoms: C_3  and  C_4
REMARK    3  A    between atoms: C_4  and  O_6
REMARK    4  A    between atoms: O_6  and  C_7
REMARK    5  A    between atoms: C_7  and  C_8
REMARK    6  A    between atoms: C_8  and  C_10
REMARK    7  A    between atoms: C_10  and  O_11
REMARK    8  A    between atoms: O_11  and  C_12
REMARK                            x       y       z     vdW  Elec       q    Type
REMARK                         _______ _______ _______ _____ _____    ______ ____
ROOT
ATOM      1  C   UNL     1       2.587   5.432  -7.906  0.00  0.00    +0.190 C 
ATOM      2  C   UNL     1       3.249   5.697  -6.594  0.00  0.00    +0.043 C 
ATOM      3  C   UNL     1       1.854   5.507  -5.802  0.00  0.00    +0.007 C 
ATOM      4  C   UNL     1       2.621   5.311  -4.307  0.00  0.00    +0.036 C 
ATOM      5  C   UNL     1       2.804   6.888  -4.024  0.00  0.00    +0.168 C 
ATOM      6  C   UNL     1       4.135   7.363  -4.864  0.00  0.00    +0.182 C 
ATOM      7  O   UNL     1       4.854   6.033  -4.730  0.00  0.00    -0.220 OA
ATOM      8  F   UNL     1       1.766   7.575  -4.465  0.00  0.00    -0.237 F 
ATOM      9  C   UNL     1       3.245   6.910  -2.650  0.00  0.00    +0.066 C 
ATOM     10  C   UNL     1       2.935   5.650  -1.956  0.00  0.00    -0.003 C 
ATOM     11  C   UNL     1       3.543   5.440  -0.785  0.00  0.00    +0.036 C 
ATOM     12  C   UNL     1       4.214   6.604  -0.167  0.00  0.00    +0.195 C 
ATOM     13  C   UNL     1       3.431   7.816  -0.491  0.00  0.00    +0.038 C 
ATOM     14  O   UNL     1       4.858   6.451   0.888  0.00  0.00    -0.287 OA
ATOM     15  C   UNL     1       1.424   5.070  -2.012  0.00  0.00    +0.180 C 
ATOM     16  F   UNL     1       0.809   6.424  -1.711  0.00  0.00    -0.233 F 
ATOM     17  C   UNL     1       4.777   6.981  -2.520  0.00  0.00    +0.011 C 
ATOM     18  C   UNL     1       2.867   7.963  -1.704  0.00  0.00    -0.017 C 
ATOM     19  C   UNL     1       1.165   5.307  -3.617  0.00  0.00    +0.042 C 
ATOM     20  C   UNL     1       1.874   3.927  -6.141  0.00  0.00    +0.004 C 
ATOM     21  C   UNL     1       4.133   4.547  -6.389  0.00  0.00    +0.004 C 
ATOM     22  C   UNL     1       3.549   7.035  -6.357  0.00  0.00    +0.039 C 
ATOM     23  C   UNL     1       2.212   3.966  -7.633  0.00  0.00    +0.048 C 
ENDROOT
BRANCH   1  24
ATOM     24  C   UNL     1       3.413   5.499  -9.109  0.00  0.00    +0.230 C 
ATOM     25  O   UNL     1       3.630   4.408  -9.647  0.00  0.00    -0.288 OA
BRANCH  24  26
ATOM     26  C   UNL     1       4.497   6.468  -9.377  0.00  0.00    +0.276 C 
BRANCH  26  27
ATOM     27  O   UNL     1       5.750   5.892  -9.598  0.00  0.00    -0.440 OA
BRANCH  27  28
ATOM     28  C   UNL     1       6.533   6.133 -10.701  0.00  0.00    +0.318 C 
ATOM     29  O   UNL     1       7.619   6.707 -10.479  0.00  0.00    -0.250 OA
ATOM     30  C   UNL     1       6.279   5.596 -12.052  0.00  0.00    +0.121 C 
ENDBRANCH  27  28
ENDBRANCH  26  27
ENDBRANCH  24  26
ENDBRANCH   1  24
BRANCH   1  31
ATOM     31  O   UNL     1       1.357   6.056  -8.054  0.00  0.00    -0.448 OA
BRANCH  31  32
ATOM     32  C   UNL     1       0.688   6.319  -9.219  0.00  0.00    +0.317 C 
ATOM     33  O   UNL     1       1.092   7.259  -9.926  0.00  0.00    -0.250 OA
BRANCH  32  34
ATOM     34  C   UNL     1      -0.268   5.273  -9.645  0.00  0.00    +0.110 C 
BRANCH  34  36
ATOM     35  C   UNL     1       0.133   4.985 -11.834  0.00  0.00    +0.001 C 
ATOM     36  C   UNL     1       0.372   4.406 -10.708  0.00  0.00    +0.012 C 
ENDBRANCH  34  36
ENDBRANCH  32  34
ENDBRANCH  31  32
ENDBRANCH   1  31
TORSDOF 8
ENDMDL
MODEL 9
REMARK VINA RESULT:      -8.1      2.466      8.599
REMARK  Name = 
REMARK  8 active torsions:
REMARK  status: ('A' for Active; 'I' for Inactive)
REMARK    1  A    between atoms: C_2  and  C_3
REMARK    2  A    between atoms: C_3  and  C_4
REMARK    3  A    between atoms: C_4  and  O_6
REMARK    4  A    between atoms: O_6  and  C_7
REMARK    5  A    between atoms: C_7  and  C_8
REMARK    6  A    between atoms: C_8  and  C_10
REMARK    7  A    between atoms: C_10  and  O_11
REMARK    8  A    between atoms: O_11  and  C_12
REMARK                            x       y       z     vdW  Elec       q    Type
REMARK                         _______ _______ _______ _____ _____    ______ ____
ROOT
ATOM      1  C   UNL     1       3.409   5.869  -1.978  0.00  0.00    +0.190 C 
ATOM      2  C   UNL     1       3.893   5.909  -3.390  0.00  0.00    +0.043 C 
ATOM      3  C   UNL     1       2.380   5.962  -3.953  0.00  0.00    +0.007 C 
ATOM      4  C   UNL     1       2.868   6.496  -5.482  0.00  0.00    +0.036 C 
ATOM      5  C   UNL     1       3.243   5.030  -6.040  0.00  0.00    +0.168 C 
ATOM      6  C   UNL     1       4.744   4.681  -5.468  0.00  0.00    +0.182 C 
ATOM      7  O   UNL     1       5.223   6.122  -5.475  0.00  0.00    -0.220 OA
ATOM      8  F   UNL     1       2.402   4.118  -5.587  0.00  0.00    -0.237 F 
ATOM      9  C   UNL     1       3.465   5.278  -7.445  0.00  0.00    +0.066 C 
ATOM     10  C   UNL     1       2.863   6.548  -7.878  0.00  0.00    -0.003 C 
ATOM     11  C   UNL     1       3.245   7.023  -9.067  0.00  0.00    +0.036 C 
ATOM     12  C   UNL     1       3.981   6.091  -9.949  0.00  0.00    +0.195 C 
ATOM     13  C   UNL     1       3.452   4.729  -9.729  0.00  0.00    +0.038 C 
ATOM     14  O   UNL     1       4.424   6.500 -11.038  0.00  0.00    -0.287 OA
ATOM     15  C   UNL     1       1.309   6.843  -7.534  0.00  0.00    +0.180 C 
ATOM     16  F   UNL     1       0.868   5.459  -7.970  0.00  0.00    -0.233 F 
ATOM     17  C   UNL     1       4.951   5.494  -7.781  0.00  0.00    +0.011 C 
ATOM     18  C   UNL     1       3.111   4.317  -8.493  0.00  0.00    -0.017 C 
ATOM     19  C   UNL     1       1.340   6.343  -5.969  0.00  0.00    +0.042 C 
ATOM     20  C   UNL     1       2.211   7.459  -3.366  0.00  0.00    +0.004 C 
ATOM     21  C   UNL     1       4.549   7.213  -3.516  0.00  0.00    +0.004 C 
ATOM     22  C   UNL     1       4.353   4.691  -3.878  0.00  0.00    +0.039 C 
ATOM     23  C   UNL     1       2.777   7.271  -1.957  0.00  0.00    +0.048 C 
ENDROOT
BRANCH   1  24
ATOM     24  C   UNL     1       4.410   5.780  -0.919  0.00  0.00    +0.230 C 
ATOM     25  O   UNL     1       4.490   4.673  -0.375  0.00  0.00    -0.288 OA
BRANCH  24  26
ATOM     26  C   UNL     1       4.825   6.868  -0.009  0.00  0.00    +0.276 C 
BRANCH  26  27
ATOM     27  O   UNL     1       4.251   6.814   1.263  0.00  0.00    -0.440 OA
BRANCH  27  28
ATOM     28  C   UNL     1       4.798   7.381   2.388  0.00  0.00    +0.318 C 
ATOM     29  O   UNL     1       4.566   6.787   3.461  0.00  0.00    -0.250 OA
ATOM     30  C   UNL     1       5.774   8.488   2.388  0.00  0.00    +0.121 C 
ENDBRANCH  27  28
ENDBRANCH  26  27
ENDBRANCH  24  26
ENDBRANCH   1  24
BRANCH   1  31
ATOM     31  O   UNL     1       2.325   5.026  -1.777  0.00  0.00    -0.448 OA
BRANCH  31  32
ATOM     32  C   UNL     1       1.224   5.253  -0.996  0.00  0.00    +0.317 C 
ATOM     33  O   UNL     1       1.389   5.820   0.099  0.00  0.00    -0.250 OA
BRANCH  32  34
ATOM     34  C   UNL     1      -0.077   5.054  -1.670  0.00  0.00    +0.110 C 
BRANCH  34  36
ATOM     35  C   UNL     1      -2.105   5.943  -1.302  0.00  0.00    +0.001 C 
ATOM     36  C   UNL     1      -0.901   6.319  -1.567  0.00  0.00    +0.012 C 
ENDBRANCH  34  36
ENDBRANCH  32  34
ENDBRANCH  31  32
ENDBRANCH   1  31
TORSDOF 8
ENDMDL
