MODEL 1
REMARK VINA RESULT:      -7.1      0.000      0.000
REMARK  Name = 
REMARK  13 active torsions:
REMARK  status: ('A' for Active; 'I' for Inactive)
REMARK    1  A    between atoms: C_4  and  O_5
REMARK    2  A    between atoms: O_5  and  C_6
REMARK    3  A    between atoms: C_11  and  O_12
REMARK    4  A    between atoms: O_12  and  C_13
REMARK    5  A    between atoms: C_13  and  C_14
REMARK    6  A    between atoms: C_13  and  C_18
REMARK    7  A    between atoms: C_14  and  C_16
REMARK    8  A    between atoms: C_18  and  C_20
REMARK    9  A    between atoms: C_20  and  C_22
REMARK   10  A    between atoms: C_25  and  C_26
REMARK   11  A    between atoms: C_32  and  N_33
REMARK   12  A    between atoms: N_33  and  C_34
REMARK   13  A    between atoms: C_36  and  C_37
REMARK                            x       y       z     vdW  Elec       q    Type
REMARK                         _______ _______ _______ _____ _____    ______ ____
ROOT
ATOM      1  O   UNL     1      -1.444   7.517  -0.716  0.00  0.00    -0.326 OA
ENDROOT
BRANCH   1   9
ATOM      2  C   UNL     1      -2.022   8.673  -4.052  0.00  0.00    +0.034 C 
ATOM      3  C   UNL     1      -1.491   7.608  -2.907  0.00  0.00    +0.136 C 
ATOM      4  C   UNL     1      -1.594   6.343  -4.038  0.00  0.00    +0.133 C 
ATOM      5  C   UNL     1      -2.137   5.007  -3.140  0.00  0.00    +0.205 C 
ATOM      6  O   UNL     1      -3.588   5.426  -3.022  0.00  0.00    -0.219 OA
ATOM      7  C   UNL     1      -1.664   5.296  -1.539  0.00  0.00    +0.239 C 
ATOM      8  O   UNL     1      -0.359   5.979  -1.791  0.00  0.00    -0.215 OA
ATOM      9  C   UNL     1      -2.644   6.645  -1.104  0.00  0.00    +0.269 C 
ATOM     10  O   UNL     1      -2.852   7.327  -2.422  0.00  0.00    -0.330 OA
BRANCH   4  11
ATOM     11  N   UNL     1      -0.082   6.170  -3.847  0.00  0.00    -0.209 NA
BRANCH  11  12
ATOM     12  C   UNL     1       0.535   5.339  -4.981  0.00  0.00    +0.127 C 
ATOM     13  C   UNL     1       2.045   5.662  -4.229  0.00  0.00    +0.205 C 
ATOM     14  O   UNL     1       2.016   7.160  -4.383  0.00  0.00    -0.218 OA
ATOM     15  C   UNL     1       3.043   5.508  -5.588  0.00  0.00    +0.218 C 
ATOM     16  O   UNL     1       3.538   4.190  -5.057  0.00  0.00    -0.217 OA
ATOM     17  C   UNL     1       1.942   4.690  -6.610  0.00  0.00    +0.205 C 
ATOM     18  O   UNL     1       2.972   4.683  -7.721  0.00  0.00    -0.216 OA
ATOM     19  C   UNL     1       1.260   6.078  -7.065  0.00  0.00    +0.018 C 
ATOM     20  C   UNL     1       0.550   6.541  -6.048  0.00  0.00    -0.010 C 
BRANCH  19  21
ATOM     21  C   UNL     1       1.844   6.972  -7.961  0.00  0.00    +0.207 C 
ATOM     22  O   UNL     1       2.001   8.293  -7.560  0.00  0.00    -0.215 OA
ENDBRANCH  19  21
ENDBRANCH  11  12
ENDBRANCH   4  11
ENDBRANCH   1   9
BRANCH   1  23
ATOM     23  C   UNL     1      -1.992   8.027   0.647  0.00  0.00    +0.180 C 
ATOM     24  C   UNL     1      -1.061   9.428   0.449  0.00  0.00    +0.180 C 
ATOM     25  O   UNL     1       0.211   8.723   0.688  0.00  0.00    -0.326 OA
ATOM     26  C   UNL     1       0.351   8.770   2.184  0.00  0.00    +0.270 C 
ATOM     27  C   UNL     1       0.149   7.081   2.265  0.00  0.00    +0.240 C 
ATOM     28  O   UNL     1       1.051   6.690   1.093  0.00  0.00    -0.215 OA
ATOM     29  C   UNL     1      -1.120   6.720   1.231  0.00  0.00    +0.217 C 
ATOM     30  O   UNL     1      -2.067   6.642   2.451  0.00  0.00    -0.218 OA
BRANCH  24  31
ATOM     31  C   UNL     1      -1.385  10.079   1.915  0.00  0.00    +0.214 C 
ATOM     32  O   UNL     1      -2.619  10.043   2.301  0.00  0.00    -0.218 OA
ENDBRANCH  24  31
BRANCH  26  33
ATOM     33  O   UNL     1       1.855   8.683   1.991  0.00  0.00    -0.326 OA
BRANCH  33  34
ATOM     34  C   UNL     1       2.415   9.983   1.570  0.00  0.00    +0.184 C 
BRANCH  34  35
ATOM     35  C   UNL     1       3.033  10.444   3.079  0.00  0.00    +0.219 C 
ATOM     36  O   UNL     1       1.690  11.078   3.321  0.00  0.00    -0.217 OA
BRANCH  35  37
ATOM     37  C   UNL     1       3.641  11.946   2.532  0.00  0.00    +0.248 C 
ATOM     38  O   UNL     1       3.129  12.689   3.749  0.00  0.00    -0.212 OA
BRANCH  37  39
ATOM     39  C   UNL     1       5.036  11.665   3.294  0.00  0.00    +0.243 C 
ATOM     40  O   UNL     1       6.012  12.087   2.703  0.00  0.00    -0.285 OA
ENDBRANCH  37  39
ENDBRANCH  35  37
ENDBRANCH  34  35
BRANCH  34  41
ATOM     41  C   UNL     1       3.832   9.207   1.012  0.00  0.00    +0.214 C 
ATOM     42  O   UNL     1       4.289  10.441   0.287  0.00  0.00    -0.218 OA
BRANCH  41  43
ATOM     43  C   UNL     1       3.036   8.710  -0.335  0.00  0.00    +0.217 C 
ATOM     44  O   UNL     1       3.938   8.640  -1.345  0.00  0.00    -0.217 OA
ENDBRANCH  41  43
ENDBRANCH  34  41
ENDBRANCH  33  34
ENDBRANCH  26  33
ENDBRANCH   1  23
TORSDOF 13
ENDMDL
MODEL 2
REMARK VINA RESULT:      -7.0      3.653      7.021
REMARK  Name = 
REMARK  13 active torsions:
REMARK  status: ('A' for Active; 'I' for Inactive)
REMARK    1  A    between atoms: C_4  and  O_5
REMARK    2  A    between atoms: O_5  and  C_6
REMARK    3  A    between atoms: C_11  and  O_12
REMARK    4  A    between atoms: O_12  and  C_13
REMARK    5  A    between atoms: C_13  and  C_14
REMARK    6  A    between atoms: C_13  and  C_18
REMARK    7  A    between atoms: C_14  and  C_16
REMARK    8  A    between atoms: C_18  and  C_20
REMARK    9  A    between atoms: C_20  and  C_22
REMARK   10  A    between atoms: C_25  and  C_26
REMARK   11  A    between atoms: C_32  and  N_33
REMARK   12  A    between atoms: N_33  and  C_34
REMARK   13  A    between atoms: C_36  and  C_37
REMARK                            x       y       z     vdW  Elec       q    Type
REMARK                         _______ _______ _______ _____ _____    ______ ____
ROOT
ATOM      1  O   UNL     1       0.592   6.311  -7.772  0.00  0.00    -0.326 OA
ENDROOT
BRANCH   1   9
ATOM      2  C   UNL     1       0.199   7.569 -11.099  0.00  0.00    +0.034 C 
ATOM      3  C   UNL     1       0.932   6.694  -9.906  0.00  0.00    +0.136 C 
ATOM      4  C   UNL     1       1.650   5.697 -11.080  0.00  0.00    +0.133 C 
ATOM      5  C   UNL     1       1.630   4.143 -10.395  0.00  0.00    +0.205 C 
ATOM      6  O   UNL     1       0.159   3.852 -10.610  0.00  0.00    -0.219 OA
ATOM      7  C   UNL     1       1.594   4.372  -8.716  0.00  0.00    +0.239 C 
ATOM      8  O   UNL     1       2.453   5.591  -8.620  0.00  0.00    -0.215 OA
ATOM      9  C   UNL     1       0.036   5.065  -8.473  0.00  0.00    +0.269 C 
ATOM     10  O   UNL     1      -0.207   5.770  -9.773  0.00  0.00    -0.330 OA
BRANCH   4  11
ATOM     11  N   UNL     1       3.000   6.187 -10.539  0.00  0.00    -0.209 NA
BRANCH  11  12
ATOM     12  C   UNL     1       3.933   6.625 -11.677  0.00  0.00    +0.127 C 
ATOM     13  C   UNL     1       4.552   5.024 -11.619  0.00  0.00    +0.205 C 
ATOM     14  O   UNL     1       5.080   5.076 -10.210  0.00  0.00    -0.218 OA
ATOM     15  C   UNL     1       6.096   5.327 -12.245  0.00  0.00    +0.218 C 
ATOM     16  O   UNL     1       5.686   4.671 -13.536  0.00  0.00    -0.217 OA
ATOM     17  C   UNL     1       5.790   6.867 -12.922  0.00  0.00    +0.205 C 
ATOM     18  O   UNL     1       7.233   6.961 -13.373  0.00  0.00    -0.216 OA
ATOM     19  C   UNL     1       6.043   7.593 -11.505  0.00  0.00    +0.018 C 
ATOM     20  C   UNL     1       5.015   7.323 -10.714  0.00  0.00    -0.010 C 
BRANCH  19  21
ATOM     21  C   UNL     1       7.306   7.790 -10.949  0.00  0.00    +0.207 C 
ATOM     22  O   UNL     1       7.692   6.974  -9.893  0.00  0.00    -0.215 OA
ENDBRANCH  19  21
ENDBRANCH  11  12
ENDBRANCH   4  11
ENDBRANCH   1   9
BRANCH   1  23
ATOM     23  C   UNL     1      -0.540   6.478  -6.719  0.00  0.00    +0.180 C 
ATOM     24  C   UNL     1       0.423   7.624  -5.928  0.00  0.00    +0.180 C 
ATOM     25  O   UNL     1       1.376   6.614  -5.436  0.00  0.00    -0.326 OA
ATOM     26  C   UNL     1       0.754   6.157  -4.145  0.00  0.00    +0.270 C 
ATOM     27  C   UNL     1       0.469   4.619  -4.817  0.00  0.00    +0.240 C 
ATOM     28  O   UNL     1       1.818   4.422  -5.511  0.00  0.00    -0.215 OA
ATOM     29  C   UNL     1      -0.130   4.893  -6.358  0.00  0.00    +0.217 C 
ATOM     30  O   UNL     1      -1.562   4.651  -5.825  0.00  0.00    -0.218 OA
BRANCH  24  31
ATOM     31  C   UNL     1      -0.561   7.838  -4.638  0.00  0.00    +0.214 C 
ATOM     32  O   UNL     1      -1.822   7.978  -4.892  0.00  0.00    -0.218 OA
ENDBRANCH  24  31
BRANCH  26  33
ATOM     33  O   UNL     1       2.150   5.800  -3.664  0.00  0.00    -0.326 OA
BRANCH  33  34
ATOM     34  C   UNL     1       2.733   6.895  -2.863  0.00  0.00    +0.184 C 
BRANCH  34  35
ATOM     35  C   UNL     1       2.716   6.094  -1.369  0.00  0.00    +0.219 C 
ATOM     36  O   UNL     1       1.228   6.322  -1.380  0.00  0.00    -0.217 OA
BRANCH  35  37
ATOM     37  C   UNL     1       2.923   7.516  -0.442  0.00  0.00    +0.248 C 
ATOM     38  O   UNL     1       2.061   7.001   0.692  0.00  0.00    -0.212 OA
BRANCH  37  39
ATOM     39  C   UNL     1       4.227   6.874   0.262  0.00  0.00    +0.243 C 
ATOM     40  O   UNL     1       4.209   6.934   1.477  0.00  0.00    -0.285 OA
ENDBRANCH  37  39
ENDBRANCH  35  37
ENDBRANCH  34  35
BRANCH  34  41
ATOM     41  C   UNL     1       4.307   6.409  -3.322  0.00  0.00    +0.214 C 
ATOM     42  O   UNL     1       4.919   7.655  -2.746  0.00  0.00    -0.218 OA
BRANCH  41  43
ATOM     43  C   UNL     1       4.124   7.166  -4.766  0.00  0.00    +0.217 C 
ATOM     44  O   UNL     1       4.698   6.386  -5.716  0.00  0.00    -0.217 OA
ENDBRANCH  41  43
ENDBRANCH  34  41
ENDBRANCH  33  34
ENDBRANCH  26  33
ENDBRANCH   1  23
TORSDOF 13
ENDMDL
MODEL 3
REMARK VINA RESULT:      -6.5      2.462      8.972
REMARK  Name = 
REMARK  13 active torsions:
REMARK  status: ('A' for Active; 'I' for Inactive)
REMARK    1  A    between atoms: C_4  and  O_5
REMARK    2  A    between atoms: O_5  and  C_6
REMARK    3  A    between atoms: C_11  and  O_12
REMARK    4  A    between atoms: O_12  and  C_13
REMARK    5  A    between atoms: C_13  and  C_14
REMARK    6  A    between atoms: C_13  and  C_18
REMARK    7  A    between atoms: C_14  and  C_16
REMARK    8  A    between atoms: C_18  and  C_20
REMARK    9  A    between atoms: C_20  and  C_22
REMARK   10  A    between atoms: C_25  and  C_26
REMARK   11  A    between atoms: C_32  and  N_33
REMARK   12  A    between atoms: N_33  and  C_34
REMARK   13  A    between atoms: C_36  and  C_37
REMARK                            x       y       z     vdW  Elec       q    Type
REMARK                         _______ _______ _______ _____ _____    ______ ____
ROOT
ATOM      1  O   UNL     1       1.516   7.498  -0.228  0.00  0.00    -0.326 OA
ENDROOT
BRANCH   1   9
ATOM      2  C   UNL     1       3.823   7.532   2.507  0.00  0.00    +0.034 C 
ATOM      3  C   UNL     1       2.672   8.172   1.510  0.00  0.00    +0.136 C 
ATOM      4  C   UNL     1       2.252   9.292   2.718  0.00  0.00    +0.133 C 
ATOM      5  C   UNL     1       0.565   9.444   2.595  0.00  0.00    +0.205 C 
ATOM      6  O   UNL     1       0.199   8.133   3.258  0.00  0.00    -0.219 OA
ATOM      7  C   UNL     1       0.174   9.032   0.998  0.00  0.00    +0.239 C 
ATOM      8  O   UNL     1       1.370   9.595   0.302  0.00  0.00    -0.215 OA
ATOM      9  C   UNL     1       0.546   7.351   0.950  0.00  0.00    +0.269 C 
ATOM     10  O   UNL     1       1.635   7.236   1.974  0.00  0.00    -0.330 OA
BRANCH   4  11
ATOM     11  N   UNL     1       2.672  10.383   1.725  0.00  0.00    -0.209 NA
BRANCH  11  12
ATOM     12  C   UNL     1       3.365  11.553   2.438  0.00  0.00    +0.127 C 
ATOM     13  C   UNL     1       3.975  11.973   0.888  0.00  0.00    +0.205 C 
ATOM     14  O   UNL     1       4.770  10.716   0.650  0.00  0.00    -0.218 OA
ATOM     15  C   UNL     1       5.368  12.801   1.380  0.00  0.00    +0.218 C 
ATOM     16  O   UNL     1       4.709  14.102   1.008  0.00  0.00    -0.217 OA
ATOM     17  C   UNL     1       4.942  13.047   3.018  0.00  0.00    +0.205 C 
ATOM     18  O   UNL     1       6.270  13.734   3.265  0.00  0.00    -0.216 OA
ATOM     19  C   UNL     1       5.473  11.579   3.425  0.00  0.00    +0.018 C 
ATOM     20  C   UNL     1       4.619  10.686   2.949  0.00  0.00    -0.010 C 
BRANCH  19  21
ATOM     21  C   UNL     1       6.822  11.248   3.545  0.00  0.00    +0.207 C 
ATOM     22  O   UNL     1       7.270  10.090   2.921  0.00  0.00    -0.215 OA
ENDBRANCH  19  21
ENDBRANCH  11  12
ENDBRANCH   4  11
ENDBRANCH   1   9
BRANCH   1  23
ATOM     23  C   UNL     1       1.798   5.986  -0.454  0.00  0.00    +0.180 C 
ATOM     24  C   UNL     1       3.169   6.419  -1.348  0.00  0.00    +0.180 C 
ATOM     25  O   UNL     1       2.378   6.924  -2.484  0.00  0.00    -0.326 OA
ATOM     26  C   UNL     1       2.151   5.692  -3.317  0.00  0.00    +0.270 C 
ATOM     27  C   UNL     1       0.485   5.753  -2.967  0.00  0.00    +0.240 C 
ATOM     28  O   UNL     1       0.270   7.255  -3.156  0.00  0.00    -0.215 OA
ATOM     29  C   UNL     1       0.371   6.080  -1.328  0.00  0.00    +0.217 C 
ATOM     30  O   UNL     1       0.117   4.578  -1.064  0.00  0.00    -0.218 OA
BRANCH  24  31
ATOM     31  C   UNL     1       3.561   4.906  -1.836  0.00  0.00    +0.214 C 
ATOM     32  O   UNL     1       3.861   4.060  -0.904  0.00  0.00    -0.218 OA
ENDBRANCH  24  31
BRANCH  26  33
ATOM     33  O   UNL     1       2.033   6.599  -4.528  0.00  0.00    -0.326 OA
BRANCH  33  34
ATOM     34  C   UNL     1       2.363   5.874  -5.771  0.00  0.00    +0.184 C 
BRANCH  34  35
ATOM     35  C   UNL     1       1.101   6.494  -6.718  0.00  0.00    +0.219 C 
ATOM     36  O   UNL     1       0.231   5.463  -6.049  0.00  0.00    -0.217 OA
BRANCH  35  37
ATOM     37  C   UNL     1       1.362   5.422  -8.024  0.00  0.00    +0.248 C 
ATOM     38  O   UNL     1      -0.119   5.291  -8.319  0.00  0.00    -0.212 OA
BRANCH  37  39
ATOM     39  C   UNL     1       1.450   6.673  -9.041  0.00  0.00    +0.243 C 
ATOM     40  O   UNL     1       2.235   6.509  -9.955  0.00  0.00    -0.285 OA
ENDBRANCH  37  39
ENDBRANCH  35  37
ENDBRANCH  34  35
BRANCH  34  41
ATOM     41  C   UNL     1       3.514   7.071  -6.180  0.00  0.00    +0.214 C 
ATOM     42  O   UNL     1       4.119   6.204  -7.248  0.00  0.00    -0.218 OA
BRANCH  41  43
ATOM     43  C   UNL     1       4.560   6.447  -5.080  0.00  0.00    +0.217 C 
ATOM     44  O   UNL     1       5.260   7.479  -4.546  0.00  0.00    -0.217 OA
ENDBRANCH  41  43
ENDBRANCH  34  41
ENDBRANCH  33  34
ENDBRANCH  26  33
ENDBRANCH   1  23
TORSDOF 13
ENDMDL
MODEL 4
REMARK VINA RESULT:      -6.4      4.085     11.246
REMARK  Name = 
REMARK  13 active torsions:
REMARK  status: ('A' for Active; 'I' for Inactive)
REMARK    1  A    between atoms: C_4  and  O_5
REMARK    2  A    between atoms: O_5  and  C_6
REMARK    3  A    between atoms: C_11  and  O_12
REMARK    4  A    between atoms: O_12  and  C_13
REMARK    5  A    between atoms: C_13  and  C_14
REMARK    6  A    between atoms: C_13  and  C_18
REMARK    7  A    between atoms: C_14  and  C_16
REMARK    8  A    between atoms: C_18  and  C_20
REMARK    9  A    between atoms: C_20  and  C_22
REMARK   10  A    between atoms: C_25  and  C_26
REMARK   11  A    between atoms: C_32  and  N_33
REMARK   12  A    between atoms: N_33  and  C_34
REMARK   13  A    between atoms: C_36  and  C_37
REMARK                            x       y       z     vdW  Elec       q    Type
REMARK                         _______ _______ _______ _____ _____    ______ ____
ROOT
ATOM      1  O   UNL     1       3.772   6.342  -7.322  0.00  0.00    -0.326 OA
ENDROOT
BRANCH   1   9
ATOM      2  C   UNL     1       3.997   7.909  -4.113  0.00  0.00    +0.034 C 
ATOM      3  C   UNL     1       3.324   6.924  -5.255  0.00  0.00    +0.136 C 
ATOM      4  C   UNL     1       2.543   6.042  -4.030  0.00  0.00    +0.133 C 
ATOM      5  C   UNL     1       2.594   4.430  -4.563  0.00  0.00    +0.205 C 
ATOM      6  O   UNL     1       4.051   4.163  -4.246  0.00  0.00    -0.219 OA
ATOM      7  C   UNL     1       2.716   4.499  -6.252  0.00  0.00    +0.239 C 
ATOM      8  O   UNL     1       1.868   5.702  -6.507  0.00  0.00    -0.215 OA
ATOM      9  C   UNL     1       4.287   5.169  -6.480  0.00  0.00    +0.269 C 
ATOM     10  O   UNL     1       4.465   5.994  -5.241  0.00  0.00    -0.330 OA
BRANCH   4  11
ATOM     11  N   UNL     1       1.224   6.476  -4.683  0.00  0.00    -0.209 NA
BRANCH  11  12
ATOM     12  C   UNL     1       0.030   5.710  -4.096  0.00  0.00    +0.127 C 
ATOM     13  C   UNL     1      -0.900   6.468  -5.325  0.00  0.00    +0.205 C 
ATOM     14  O   UNL     1      -0.681   7.890  -4.878  0.00  0.00    -0.218 OA
ATOM     15  C   UNL     1      -2.412   6.425  -4.561  0.00  0.00    +0.218 C 
ATOM     16  O   UNL     1      -2.839   5.330  -5.500  0.00  0.00    -0.217 OA
ATOM     17  C   UNL     1      -2.048   5.263  -3.361  0.00  0.00    +0.205 C 
ATOM     18  O   UNL     1      -3.449   5.396  -2.801  0.00  0.00    -0.216 OA
ATOM     19  C   UNL     1      -1.409   6.388  -2.398  0.00  0.00    +0.018 C 
ATOM     20  C   UNL     1      -0.250   6.764  -2.915  0.00  0.00    -0.010 C 
BRANCH  19  21
ATOM     21  C   UNL     1      -2.166   7.302  -1.666  0.00  0.00    +0.207 C 
ATOM     22  O   UNL     1      -1.495   8.197  -0.842  0.00  0.00    -0.215 OA
ENDBRANCH  19  21
ENDBRANCH  11  12
ENDBRANCH   4  11
ENDBRANCH   1   9
BRANCH   1  23
ATOM     23  C   UNL     1       4.899   6.338  -8.393  0.00  0.00    +0.180 C 
ATOM     24  C   UNL     1       3.969   7.411  -9.315  0.00  0.00    +0.180 C 
ATOM     25  O   UNL     1       2.976   6.383  -9.674  0.00  0.00    -0.326 OA
ATOM     26  C   UNL     1       3.570   5.749 -10.901  0.00  0.00    +0.270 C 
ATOM     27  C   UNL     1       3.808   4.296 -10.046  0.00  0.00    +0.240 C 
ATOM     28  O   UNL     1       2.460   4.234  -9.327  0.00  0.00    -0.215 OA
ATOM     29  C   UNL     1       4.431   4.736  -8.554  0.00  0.00    +0.217 C 
ATOM     30  O   UNL     1       5.848   4.380  -9.061  0.00  0.00    -0.218 OA
BRANCH  24  31
ATOM     31  C   UNL     1       4.948   7.429 -10.627  0.00  0.00    +0.214 C 
ATOM     32  O   UNL     1       6.185   7.747 -10.418  0.00  0.00    -0.218 OA
ENDBRANCH  24  31
BRANCH  26  33
ATOM     33  O   UNL     1       2.159   5.385 -11.328  0.00  0.00    -0.326 OA
BRANCH  33  34
ATOM     34  C   UNL     1       1.535   6.481 -12.096  0.00  0.00    +0.184 C 
BRANCH  34  35
ATOM     35  C   UNL     1       1.522   5.702 -13.602  0.00  0.00    +0.219 C 
ATOM     36  O   UNL     1       3.020   5.848 -13.575  0.00  0.00    -0.217 OA
BRANCH  35  37
ATOM     37  C   UNL     1       1.401   7.146 -14.509  0.00  0.00    +0.248 C 
ATOM     38  O   UNL     1       2.356   6.652 -15.577  0.00  0.00    -0.212 OA
BRANCH  37  39
ATOM     39  C   UNL     1       0.160   6.528 -15.337  0.00  0.00    +0.243 C 
ATOM     40  O   UNL     1       0.238   6.700 -16.539  0.00  0.00    -0.285 OA
ENDBRANCH  37  39
ENDBRANCH  35  37
ENDBRANCH  34  35
BRANCH  34  41
ATOM     41  C   UNL     1      -0.017   5.964 -11.600  0.00  0.00    +0.214 C 
ATOM     42  O   UNL     1      -0.658   7.228 -12.098  0.00  0.00    -0.218 OA
BRANCH  41  43
ATOM     43  C   UNL     1       0.216   6.661 -10.132  0.00  0.00    +0.217 C 
ATOM     44  O   UNL     1      -0.322   5.840  -9.196  0.00  0.00    -0.217 OA
ENDBRANCH  41  43
ENDBRANCH  34  41
ENDBRANCH  33  34
ENDBRANCH  26  33
ENDBRANCH   1  23
TORSDOF 13
ENDMDL
MODEL 5
REMARK VINA RESULT:      -6.4      3.156     10.419
REMARK  Name = 
REMARK  13 active torsions:
REMARK  status: ('A' for Active; 'I' for Inactive)
REMARK    1  A    between atoms: C_4  and  O_5
REMARK    2  A    between atoms: O_5  and  C_6
REMARK    3  A    between atoms: C_11  and  O_12
REMARK    4  A    between atoms: O_12  and  C_13
REMARK    5  A    between atoms: C_13  and  C_14
REMARK    6  A    between atoms: C_13  and  C_18
REMARK    7  A    between atoms: C_14  and  C_16
REMARK    8  A    between atoms: C_18  and  C_20
REMARK    9  A    between atoms: C_20  and  C_22
REMARK   10  A    between atoms: C_25  and  C_26
REMARK   11  A    between atoms: C_32  and  N_33
REMARK   12  A    between atoms: N_33  and  C_34
REMARK   13  A    between atoms: C_36  and  C_37
REMARK                            x       y       z     vdW  Elec       q    Type
REMARK                         _______ _______ _______ _____ _____    ______ ____
ROOT
ATOM      1  O   UNL     1       2.612   6.160  -4.930  0.00  0.00    -0.326 OA
ENDROOT
BRANCH   1   9
ATOM      2  C   UNL     1       5.623   7.655  -3.705  0.00  0.00    +0.034 C 
ATOM      3  C   UNL     1       4.106   7.017  -3.571  0.00  0.00    +0.136 C 
ATOM      4  C   UNL     1       4.397   6.674  -1.932  0.00  0.00    +0.133 C 
ATOM      5  C   UNL     1       3.622   5.188  -1.660  0.00  0.00    +0.205 C 
ATOM      6  O   UNL     1       4.645   4.303  -2.340  0.00  0.00    -0.219 OA
ATOM      7  C   UNL     1       2.392   5.082  -2.821  0.00  0.00    +0.239 C 
ATOM      8  O   UNL     1       1.993   6.520  -2.884  0.00  0.00    -0.215 OA
ATOM      9  C   UNL     1       3.283   4.940  -4.288  0.00  0.00    +0.269 C 
ATOM     10  O   UNL     1       4.551   5.670  -3.964  0.00  0.00    -0.330 OA
BRANCH   4  11
ATOM     11  N   UNL     1       3.231   7.621  -1.620  0.00  0.00    -0.209 NA
BRANCH  11  12
ATOM     12  C   UNL     1       2.955   7.691  -0.112  0.00  0.00    +0.127 C 
ATOM     13  C   UNL     1       2.490   9.320  -0.399  0.00  0.00    +0.205 C 
ATOM     14  O   UNL     1       3.822   9.812  -0.899  0.00  0.00    -0.218 OA
ATOM     15  C   UNL     1       2.798   9.947   1.144  0.00  0.00    +0.218 C 
ATOM     16  O   UNL     1       1.317  10.012   1.398  0.00  0.00    -0.217 OA
ATOM     17  C   UNL     1       2.887   8.469   1.997  0.00  0.00    +0.205 C 
ATOM     18  O   UNL     1       3.189   9.221   3.278  0.00  0.00    -0.216 OA
ATOM     19  C   UNL     1       4.434   8.271   1.589  0.00  0.00    +0.018 C 
ATOM     20  C   UNL     1       4.485   7.961   0.302  0.00  0.00    -0.010 C 
BRANCH  19  21
ATOM     21  C   UNL     1       5.486   8.979   2.168  0.00  0.00    +0.207 C 
ATOM     22  O   UNL     1       6.715   8.343   2.292  0.00  0.00    -0.215 OA
ENDBRANCH  19  21
ENDBRANCH  11  12
ENDBRANCH   4  11
ENDBRANCH   1   9
BRANCH   1  23
ATOM     23  C   UNL     1       1.581   5.392  -5.805  0.00  0.00    +0.180 C 
ATOM     24  C   UNL     1       2.875   4.624  -6.581  0.00  0.00    +0.180 C 
ATOM     25  O   UNL     1       3.286   5.843  -7.299  0.00  0.00    -0.326 OA
ATOM     26  C   UNL     1       2.441   5.808  -8.543  0.00  0.00    +0.270 C 
ATOM     27  C   UNL     1       1.590   7.185  -8.014  0.00  0.00    +0.240 C 
ATOM     28  O   UNL     1       2.780   8.011  -7.524  0.00  0.00    -0.215 OA
ATOM     29  C   UNL     1       1.269   6.933  -6.389  0.00  0.00    +0.217 C 
ATOM     30  O   UNL     1      -0.167   6.494  -6.759  0.00  0.00    -0.218 OA
BRANCH  24  31
ATOM     31  C   UNL     1       1.981   3.837  -7.704  0.00  0.00    +0.214 C 
ATOM     32  O   UNL     1       2.634   3.117  -8.558  0.00  0.00    -0.218 OA
ENDBRANCH  24  31
BRANCH  26  33
ATOM     33  O   UNL     1       3.524   6.617  -9.234  0.00  0.00    -0.326 OA
BRANCH  33  34
ATOM     34  C   UNL     1       4.286   5.784 -10.185  0.00  0.00    +0.184 C 
BRANCH  34  35
ATOM     35  C   UNL     1       3.896   6.654 -11.587  0.00  0.00    +0.219 C 
ATOM     36  O   UNL     1       2.459   6.383 -11.231  0.00  0.00    -0.217 OA
BRANCH  35  37
ATOM     37  C   UNL     1       3.897   5.284 -12.610  0.00  0.00    +0.248 C 
ATOM     38  O   UNL     1       2.873   5.885 -13.552  0.00  0.00    -0.212 OA
BRANCH  37  39
ATOM     39  C   UNL     1       5.084   5.936 -13.490  0.00  0.00    +0.243 C 
ATOM     40  O   UNL     1       5.892   5.126 -13.902  0.00  0.00    -0.285 OA
ENDBRANCH  37  39
ENDBRANCH  35  37
ENDBRANCH  34  35
BRANCH  34  41
ATOM     41  C   UNL     1       5.715   6.647  -9.816  0.00  0.00    +0.214 C 
ATOM     42  O   UNL     1       6.472   5.980 -10.930  0.00  0.00    -0.218 OA
BRANCH  41  43
ATOM     43  C   UNL     1       6.176   5.454  -8.788  0.00  0.00    +0.217 C 
ATOM     44  O   UNL     1       7.479   5.173  -9.039  0.00  0.00    -0.217 OA
ENDBRANCH  41  43
ENDBRANCH  34  41
ENDBRANCH  33  34
ENDBRANCH  26  33
ENDBRANCH   1  23
TORSDOF 13
ENDMDL
MODEL 6
REMARK VINA RESULT:      -6.4      2.771      5.178
REMARK  Name = 
REMARK  13 active torsions:
REMARK  status: ('A' for Active; 'I' for Inactive)
REMARK    1  A    between atoms: C_4  and  O_5
REMARK    2  A    between atoms: O_5  and  C_6
REMARK    3  A    between atoms: C_11  and  O_12
REMARK    4  A    between atoms: O_12  and  C_13
REMARK    5  A    between atoms: C_13  and  C_14
REMARK    6  A    between atoms: C_13  and  C_18
REMARK    7  A    between atoms: C_14  and  C_16
REMARK    8  A    between atoms: C_18  and  C_20
REMARK    9  A    between atoms: C_20  and  C_22
REMARK   10  A    between atoms: C_25  and  C_26
REMARK   11  A    between atoms: C_32  and  N_33
REMARK   12  A    between atoms: N_33  and  C_34
REMARK   13  A    between atoms: C_36  and  C_37
REMARK                            x       y       z     vdW  Elec       q    Type
REMARK                         _______ _______ _______ _____ _____    ______ ____
ROOT
ATOM      1  O   UNL     1       2.509   5.905  -4.164  0.00  0.00    -0.326 OA
ENDROOT
BRANCH   1   9
ATOM      2  C   UNL     1       1.452   8.160  -6.733  0.00  0.00    +0.034 C 
ATOM      3  C   UNL     1       2.079   6.751  -6.142  0.00  0.00    +0.136 C 
ATOM      4  C   UNL     1       1.661   5.960  -7.586  0.00  0.00    +0.133 C 
ATOM      5  C   UNL     1       1.167   4.410  -7.100  0.00  0.00    +0.205 C 
ATOM      6  O   UNL     1      -0.195   4.796  -6.561  0.00  0.00    -0.219 OA
ATOM      7  C   UNL     1       1.943   4.114  -5.623  0.00  0.00    +0.239 C 
ATOM      8  O   UNL     1       3.239   4.809  -5.886  0.00  0.00    -0.215 OA
ATOM      9  C   UNL     1       1.185   5.251  -4.575  0.00  0.00    +0.269 C 
ATOM     10  O   UNL     1       0.807   6.353  -5.518  0.00  0.00    -0.330 OA
BRANCH   4  11
ATOM     11  N   UNL     1       3.161   5.695  -7.770  0.00  0.00    -0.209 NA
BRANCH  11  12
ATOM     12  C   UNL     1       3.724   6.470  -8.969  0.00  0.00    +0.127 C 
ATOM     13  C   UNL     1       3.173   5.151  -9.921  0.00  0.00    +0.205 C 
ATOM     14  O   UNL     1       4.038   4.090  -9.294  0.00  0.00    -0.218 OA
ATOM     15  C   UNL     1       4.249   5.309 -11.220  0.00  0.00    +0.218 C 
ATOM     16  O   UNL     1       3.126   5.843 -12.067  0.00  0.00    -0.217 OA
ATOM     17  C   UNL     1       4.780   6.904 -10.907  0.00  0.00    +0.205 C 
ATOM     18  O   UNL     1       5.711   6.833 -12.100  0.00  0.00    -0.216 OA
ATOM     19  C   UNL     1       5.877   6.381  -9.848  0.00  0.00    +0.018 C 
ATOM     20  C   UNL     1       5.241   5.980  -8.758  0.00  0.00    -0.010 C 
BRANCH  19  21
ATOM     21  C   UNL     1       7.075   5.766 -10.211  0.00  0.00    +0.207 C 
ATOM     22  O   UNL     1       7.824   5.150  -9.216  0.00  0.00    -0.215 OA
ENDBRANCH  19  21
ENDBRANCH  11  12
ENDBRANCH   4  11
ENDBRANCH   1   9
BRANCH   1  23
ATOM     23  C   UNL     1       2.801   5.018  -2.920  0.00  0.00    +0.180 C 
ATOM     24  C   UNL     1       1.434   5.685  -2.176  0.00  0.00    +0.180 C 
ATOM     25  O   UNL     1       2.073   6.997  -1.977  0.00  0.00    -0.326 OA
ATOM     26  C   UNL     1       2.784   6.834  -0.661  0.00  0.00    +0.270 C 
ATOM     27  C   UNL     1       4.289   6.947  -1.451  0.00  0.00    +0.240 C 
ATOM     28  O   UNL     1       3.967   8.116  -2.383  0.00  0.00    -0.215 OA
ATOM     29  C   UNL     1       4.160   5.994  -2.823  0.00  0.00    +0.217 C 
ATOM     30  O   UNL     1       4.913   4.862  -2.086  0.00  0.00    -0.218 OA
BRANCH  24  31
ATOM     31  C   UNL     1       1.643   4.965  -0.721  0.00  0.00    +0.214 C 
ATOM     32  O   UNL     1       2.076   3.746  -0.737  0.00  0.00    -0.218 OA
ENDBRANCH  24  31
BRANCH  26  33
ATOM     33  O   UNL     1       2.657   8.336  -0.471  0.00  0.00    -0.326 OA
BRANCH  33  34
ATOM     34  C   UNL     1       2.610   8.689   0.962  0.00  0.00    +0.184 C 
BRANCH  34  35
ATOM     35  C   UNL     1       3.757   9.935   0.910  0.00  0.00    +0.219 C 
ATOM     36  O   UNL     1       4.792   8.848   1.021  0.00  0.00    -0.217 OA
BRANCH  35  37
ATOM     37  C   UNL     1       3.809  10.153   2.605  0.00  0.00    +0.248 C 
ATOM     38  O   UNL     1       5.310  10.363   2.614  0.00  0.00    -0.212 OA
BRANCH  37  39
ATOM     39  C   UNL     1       3.592  11.742   2.413  0.00  0.00    +0.243 C 
ATOM     40  O   UNL     1       3.068  12.285   3.367  0.00  0.00    -0.285 OA
ENDBRANCH  37  39
ENDBRANCH  35  37
ENDBRANCH  34  35
BRANCH  34  41
ATOM     41  C   UNL     1       1.242   9.677   0.687  0.00  0.00    +0.214 C 
ATOM     42  O   UNL     1       1.026   9.884   2.160  0.00  0.00    -0.218 OA
BRANCH  41  43
ATOM     43  C   UNL     1       0.272   8.353   0.731  0.00  0.00    +0.217 C 
ATOM     44  O   UNL     1      -0.914   8.692   0.167  0.00  0.00    -0.217 OA
ENDBRANCH  41  43
ENDBRANCH  34  41
ENDBRANCH  33  34
ENDBRANCH  26  33
ENDBRANCH   1  23
TORSDOF 13
ENDMDL
MODEL 7
REMARK VINA RESULT:      -6.2      2.455      4.044
REMARK  Name = 
REMARK  13 active torsions:
REMARK  status: ('A' for Active; 'I' for Inactive)
REMARK    1  A    between atoms: C_4  and  O_5
REMARK    2  A    between atoms: O_5  and  C_6
REMARK    3  A    between atoms: C_11  and  O_12
REMARK    4  A    between atoms: O_12  and  C_13
REMARK    5  A    between atoms: C_13  and  C_14
REMARK    6  A    between atoms: C_13  and  C_18
REMARK    7  A    between atoms: C_14  and  C_16
REMARK    8  A    between atoms: C_18  and  C_20
REMARK    9  A    between atoms: C_20  and  C_22
REMARK   10  A    between atoms: C_25  and  C_26
REMARK   11  A    between atoms: C_32  and  N_33
REMARK   12  A    between atoms: N_33  and  C_34
REMARK   13  A    between atoms: C_36  and  C_37
REMARK                            x       y       z     vdW  Elec       q    Type
REMARK                         _______ _______ _______ _____ _____    ______ ____
ROOT
ATOM      1  O   UNL     1       2.470   7.617  -0.402  0.00  0.00    -0.326 OA
ENDROOT
BRANCH   1   9
ATOM      2  C   UNL     1      -0.087   5.373  -1.509  0.00  0.00    +0.034 C 
ATOM      3  C   UNL     1       1.375   6.135  -1.593  0.00  0.00    +0.136 C 
ATOM      4  C   UNL     1       1.974   4.877  -2.566  0.00  0.00    +0.133 C 
ATOM      5  C   UNL     1       3.585   4.678  -2.067  0.00  0.00    +0.205 C 
ATOM      6  O   UNL     1       3.301   3.948  -0.771  0.00  0.00    -0.219 OA
ATOM      7  C   UNL     1       4.060   6.168  -1.414  0.00  0.00    +0.239 C 
ATOM      8  O   UNL     1       3.311   7.082  -2.327  0.00  0.00    -0.215 OA
ATOM      9  C   UNL     1       3.089   6.274   0.004  0.00  0.00    +0.269 C 
ATOM     10  O   UNL     1       1.879   5.476  -0.377  0.00  0.00    -0.330 OA
BRANCH   4  11
ATOM     11  N   UNL     1       2.182   5.939  -3.654  0.00  0.00    -0.209 NA
BRANCH  11  12
ATOM     12  C   UNL     1       2.163   5.316  -5.056  0.00  0.00    +0.127 C 
ATOM     13  C   UNL     1       2.288   6.927  -5.638  0.00  0.00    +0.205 C 
ATOM     14  O   UNL     1       0.989   7.435  -5.070  0.00  0.00    -0.218 OA
ATOM     15  C   UNL     1       1.575   6.704  -7.158  0.00  0.00    +0.218 C 
ATOM     16  O   UNL     1       2.933   6.815  -7.796  0.00  0.00    -0.217 OA
ATOM     17  C   UNL     1       1.675   4.998  -7.229  0.00  0.00    +0.205 C 
ATOM     18  O   UNL     1       0.987   5.009  -8.578  0.00  0.00    -0.216 OA
ATOM     19  C   UNL     1       0.312   4.836  -6.383  0.00  0.00    +0.018 C 
ATOM     20  C   UNL     1       0.563   5.172  -5.127  0.00  0.00    -0.010 C 
BRANCH  19  21
ATOM     21  C   UNL     1      -0.960   5.053  -6.913  0.00  0.00    +0.207 C 
ATOM     22  O   UNL     1      -1.823   5.896  -6.223  0.00  0.00    -0.215 OA
ENDBRANCH  19  21
ENDBRANCH  11  12
ENDBRANCH   4  11
ENDBRANCH   1   9
BRANCH   1  23
ATOM     23  C   UNL     1       2.064   8.096   1.021  0.00  0.00    +0.180 C 
ATOM     24  C   UNL     1       1.747   9.626   0.369  0.00  0.00    +0.180 C 
ATOM     25  O   UNL     1       3.174   9.931   0.160  0.00  0.00    -0.326 OA
ATOM     26  C   UNL     1       3.596  10.514   1.481  0.00  0.00    +0.270 C 
ATOM     27  C   UNL     1       4.593   9.164   1.769  0.00  0.00    +0.240 C 
ATOM     28  O   UNL     1       5.216   9.044   0.377  0.00  0.00    -0.215 OA
ATOM     29  C   UNL     1       3.689   7.823   1.331  0.00  0.00    +0.217 C 
ATOM     30  O   UNL     1       3.357   7.583   2.823  0.00  0.00    -0.218 OA
BRANCH  24  31
ATOM     31  C   UNL     1       1.431  10.374   1.791  0.00  0.00    +0.214 C 
ATOM     32  O   UNL     1       0.218  10.284   2.232  0.00  0.00    -0.218 OA
ENDBRANCH  24  31
BRANCH  26  33
ATOM     33  O   UNL     1       4.674  11.280   0.735  0.00  0.00    -0.326 OA
BRANCH  33  34
ATOM     34  C   UNL     1       4.746  12.681   1.194  0.00  0.00    +0.184 C 
BRANCH  34  35
ATOM     35  C   UNL     1       6.226  12.559   2.011  0.00  0.00    +0.219 C 
ATOM     36  O   UNL     1       5.404  12.355   3.256  0.00  0.00    -0.217 OA
BRANCH  35  37
ATOM     37  C   UNL     1       6.335  14.229   2.360  0.00  0.00    +0.248 C 
ATOM     38  O   UNL     1       6.940  13.987   3.729  0.00  0.00    -0.212 OA
BRANCH  37  39
ATOM     39  C   UNL     1       7.816  14.272   1.718  0.00  0.00    +0.243 C 
ATOM     40  O   UNL     1       8.020  15.248   1.020  0.00  0.00    -0.285 OA
ENDBRANCH  37  39
ENDBRANCH  35  37
ENDBRANCH  34  35
BRANCH  34  41
ATOM     41  C   UNL     1       5.400  13.155  -0.314  0.00  0.00    +0.214 C 
ATOM     42  O   UNL     1       4.940  14.573  -0.131  0.00  0.00    -0.218 OA
BRANCH  41  43
ATOM     43  C   UNL     1       3.980  12.788  -1.050  0.00  0.00    +0.217 C 
ATOM     44  O   UNL     1       3.738  13.746  -1.978  0.00  0.00    -0.217 OA
ENDBRANCH  41  43
ENDBRANCH  34  41
ENDBRANCH  33  34
ENDBRANCH  26  33
ENDBRANCH   1  23
TORSDOF 13
ENDMDL
MODEL 8
REMARK VINA RESULT:      -6.2      5.800     10.697
REMARK  Name = 
REMARK  13 active torsions:
REMARK  status: ('A' for Active; 'I' for Inactive)
REMARK    1  A    between atoms: C_4  and  O_5
REMARK    2  A    between atoms: O_5  and  C_6
REMARK    3  A    between atoms: C_11  and  O_12
REMARK    4  A    between atoms: O_12  and  C_13
REMARK    5  A    between atoms: C_13  and  C_14
REMARK    6  A    between atoms: C_13  and  C_18
REMARK    7  A    between atoms: C_14  and  C_16
REMARK    8  A    between atoms: C_18  and  C_20
REMARK    9  A    between atoms: C_20  and  C_22
REMARK   10  A    between atoms: C_25  and  C_26
REMARK   11  A    between atoms: C_32  and  N_33
REMARK   12  A    between atoms: N_33  and  C_34
REMARK   13  A    between atoms: C_36  and  C_37
REMARK                            x       y       z     vdW  Elec       q    Type
REMARK                         _______ _______ _______ _____ _____    ______ ____
ROOT
ATOM      1  O   UNL     1       1.974   6.233 -10.989  0.00  0.00    -0.326 OA
ENDROOT
BRANCH   1   9
ATOM      2  C   UNL     1      -1.159   7.742 -11.833  0.00  0.00    +0.034 C 
ATOM      3  C   UNL     1       0.318   7.078 -12.155  0.00  0.00    +0.136 C 
ATOM      4  C   UNL     1      -0.199   6.696 -13.728  0.00  0.00    +0.133 C 
ATOM      5  C   UNL     1       0.515   5.192 -14.062  0.00  0.00    +0.205 C 
ATOM      6  O   UNL     1      -0.416   4.341 -13.224  0.00  0.00    -0.219 OA
ATOM      7  C   UNL     1       1.891   5.098 -13.077  0.00  0.00    +0.239 C 
ATOM      8  O   UNL     1       2.311   6.531 -13.109  0.00  0.00    -0.215 OA
ATOM      9  C   UNL     1       1.207   5.007 -11.498  0.00  0.00    +0.269 C 
ATOM     10  O   UNL     1      -0.085   5.748 -11.667  0.00  0.00    -0.330 OA
BRANCH   4  11
ATOM     11  N   UNL     1       0.925   7.617 -14.222  0.00  0.00    -0.209 NA
BRANCH  11  12
ATOM     12  C   UNL     1       0.437   8.540 -15.348  0.00  0.00    +0.127 C 
ATOM     13  C   UNL     1       0.903   7.277 -16.415  0.00  0.00    +0.205 C 
ATOM     14  O   UNL     1       2.372   7.280 -16.082  0.00  0.00    -0.218 OA
ATOM     15  C   UNL     1       1.182   8.208 -17.803  0.00  0.00    +0.218 C 
ATOM     16  O   UNL     1      -0.091   7.672 -18.400  0.00  0.00    -0.217 OA
ATOM     17  C   UNL     1       0.363   9.627 -17.316  0.00  0.00    +0.205 C 
ATOM     18  O   UNL     1       0.747  10.301 -18.617  0.00  0.00    -0.216 OA
ATOM     19  C   UNL     1       1.655  10.151 -16.505  0.00  0.00    +0.018 C 
ATOM     20  C   UNL     1       1.789   9.408 -15.418  0.00  0.00    -0.010 C 
BRANCH  19  21
ATOM     21  C   UNL     1       2.787  10.691 -17.116  0.00  0.00    +0.207 C 
ATOM     22  O   UNL     1       4.022  10.128 -16.819  0.00  0.00    -0.215 OA
ENDBRANCH  19  21
ENDBRANCH  11  12
ENDBRANCH   4  11
ENDBRANCH   1   9
BRANCH   1  23
ATOM     23  C   UNL     1       3.080   5.474 -10.203  0.00  0.00    +0.180 C 
ATOM     24  C   UNL     1       1.860   4.640  -9.375  0.00  0.00    +0.180 C 
ATOM     25  O   UNL     1       1.458   5.823  -8.595  0.00  0.00    -0.326 OA
ATOM     26  C   UNL     1       2.378   5.778  -7.406  0.00  0.00    +0.270 C 
ATOM     27  C   UNL     1       3.152   7.197  -7.940  0.00  0.00    +0.240 C 
ATOM     28  O   UNL     1       1.909   7.999  -8.331  0.00  0.00    -0.215 OA
ATOM     29  C   UNL     1       3.380   7.005  -9.589  0.00  0.00    +0.217 C 
ATOM     30  O   UNL     1       4.849   6.602  -9.321  0.00  0.00    -0.218 OA
BRANCH  24  31
ATOM     31  C   UNL     1       2.846   3.849  -8.335  0.00  0.00    +0.214 C 
ATOM     32  O   UNL     1       4.007   3.506  -8.790  0.00  0.00    -0.218 OA
ENDBRANCH  24  31
BRANCH  26  33
ATOM     33  O   UNL     1       1.316   6.530  -6.624  0.00  0.00    -0.326 OA
BRANCH  33  34
ATOM     34  C   UNL     1       0.756   5.692  -5.545  0.00  0.00    +0.184 C 
BRANCH  34  35
ATOM     35  C   UNL     1       1.305   6.631  -4.244  0.00  0.00    +0.219 C 
ATOM     36  O   UNL     1       2.680   6.454  -4.831  0.00  0.00    -0.217 OA
BRANCH  35  37
ATOM     37  C   UNL     1       1.577   5.297  -3.210  0.00  0.00    +0.248 C 
ATOM     38  O   UNL     1       2.636   6.030  -2.410  0.00  0.00    -0.212 OA
BRANCH  37  39
ATOM     39  C   UNL     1       0.442   5.842  -2.199  0.00  0.00    +0.243 C 
ATOM     40  O   UNL     1      -0.133   4.962  -1.586  0.00  0.00    -0.285 OA
ENDBRANCH  37  39
ENDBRANCH  35  37
ENDBRANCH  34  35
BRANCH  34  41
ATOM     41  C   UNL     1      -0.760   6.466  -5.712  0.00  0.00    +0.214 C 
ATOM     42  O   UNL     1      -1.359   5.654  -4.599  0.00  0.00    -0.218 OA
BRANCH  41  43
ATOM     43  C   UNL     1      -1.227   5.325  -6.796  0.00  0.00    +0.217 C 
ATOM     44  O   UNL     1      -2.548   5.088  -6.601  0.00  0.00    -0.217 OA
ENDBRANCH  41  43
ENDBRANCH  34  41
ENDBRANCH  33  34
ENDBRANCH  26  33
ENDBRANCH   1  23
TORSDOF 13
ENDMDL
MODEL 9
REMARK VINA RESULT:      -6.2      2.833      5.621
REMARK  Name = 
REMARK  13 active torsions:
REMARK  status: ('A' for Active; 'I' for Inactive)
REMARK    1  A    between atoms: C_4  and  O_5
REMARK    2  A    between atoms: O_5  and  C_6
REMARK    3  A    between atoms: C_11  and  O_12
REMARK    4  A    between atoms: O_12  and  C_13
REMARK    5  A    between atoms: C_13  and  C_14
REMARK    6  A    between atoms: C_13  and  C_18
REMARK    7  A    between atoms: C_14  and  C_16
REMARK    8  A    between atoms: C_18  and  C_20
REMARK    9  A    between atoms: C_20  and  C_22
REMARK   10  A    between atoms: C_25  and  C_26
REMARK   11  A    between atoms: C_32  and  N_33
REMARK   12  A    between atoms: N_33  and  C_34
REMARK   13  A    between atoms: C_36  and  C_37
REMARK                            x       y       z     vdW  Elec       q    Type
REMARK                         _______ _______ _______ _____ _____    ______ ____
ROOT
ATOM      1  O   UNL     1       3.533   6.234  -4.451  0.00  0.00    -0.326 OA
ENDROOT
BRANCH   1   9
ATOM      2  C   UNL     1       1.131   7.437  -6.814  0.00  0.00    +0.034 C 
ATOM      3  C   UNL     1       2.384   6.491  -6.302  0.00  0.00    +0.136 C 
ATOM      4  C   UNL     1       2.019   5.355  -7.512  0.00  0.00    +0.133 C 
ATOM      5  C   UNL     1       2.309   3.846  -6.788  0.00  0.00    +0.205 C 
ATOM      6  O   UNL     1       1.058   3.793  -5.935  0.00  0.00    -0.219 OA
ATOM      7  C   UNL     1       3.437   4.129  -5.555  0.00  0.00    +0.239 C 
ATOM      8  O   UNL     1       4.253   5.194  -6.212  0.00  0.00    -0.215 OA
ATOM      9  C   UNL     1       2.530   5.074  -4.436  0.00  0.00    +0.269 C 
ATOM     10  O   UNL     1       1.547   5.769  -5.329  0.00  0.00    -0.330 OA
BRANCH   4  11
ATOM     11  N   UNL     1       3.420   5.634  -8.070  0.00  0.00    -0.209 NA
BRANCH  11  12
ATOM     12  C   UNL     1       3.556   5.138  -9.517  0.00  0.00    +0.127 C 
ATOM     13  C   UNL     1       4.677   6.423  -9.721  0.00  0.00    +0.205 C 
ATOM     14  O   UNL     1       3.722   7.554  -9.445  0.00  0.00    -0.218 OA
ATOM     15  C   UNL     1       4.510   6.644 -11.392  0.00  0.00    +0.218 C 
ATOM     16  O   UNL     1       5.854   5.999 -11.597  0.00  0.00    -0.217 OA
ATOM     17  C   UNL     1       3.737   5.163 -11.758  0.00  0.00    +0.205 C 
ATOM     18  O   UNL     1       3.653   5.564 -13.217  0.00  0.00    -0.216 OA
ATOM     19  C   UNL     1       2.293   5.766 -11.369  0.00  0.00    +0.018 C 
ATOM     20  C   UNL     1       2.242   5.896 -10.052  0.00  0.00    -0.010 C 
BRANCH  19  21
ATOM     21  C   UNL     1       1.578   6.650 -12.176  0.00  0.00    +0.207 C 
ATOM     22  O   UNL     1       0.262   6.932 -11.833  0.00  0.00    -0.215 OA
ENDBRANCH  19  21
ENDBRANCH  11  12
ENDBRANCH   4  11
ENDBRANCH   1   9
BRANCH   1  23
ATOM     23  C   UNL     1       4.465   5.716  -3.318  0.00  0.00    +0.180 C 
ATOM     24  C   UNL     1       3.085   5.237  -2.461  0.00  0.00    +0.180 C 
ATOM     25  O   UNL     1       2.690   6.622  -2.148  0.00  0.00    -0.326 OA
ATOM     26  C   UNL     1       3.449   6.916  -0.883  0.00  0.00    +0.270 C 
ATOM     27  C   UNL     1       4.401   8.060  -1.709  0.00  0.00    +0.240 C 
ATOM     28  O   UNL     1       3.289   8.749  -2.502  0.00  0.00    -0.215 OA
ATOM     29  C   UNL     1       4.815   7.348  -3.168  0.00  0.00    +0.217 C 
ATOM     30  O   UNL     1       6.200   6.990  -2.579  0.00  0.00    -0.218 OA
BRANCH  24  31
ATOM     31  C   UNL     1       3.862   4.775  -1.096  0.00  0.00    +0.214 C 
ATOM     32  O   UNL     1       3.425   3.702  -0.520  0.00  0.00    -0.218 OA
ENDBRANCH  24  31
BRANCH  26  33
ATOM     33  O   UNL     1       2.365   7.920  -0.532  0.00  0.00    -0.326 OA
BRANCH  33  34
ATOM     34  C   UNL     1       1.969   7.803   0.886  0.00  0.00    +0.184 C 
BRANCH  34  35
ATOM     35  C   UNL     1       2.107   9.447   1.278  0.00  0.00    +0.219 C 
ATOM     36  O   UNL     1       3.587   9.192   1.383  0.00  0.00    -0.217 OA
BRANCH  35  37
ATOM     37  C   UNL     1       1.949   9.206   2.963  0.00  0.00    +0.248 C 
ATOM     38  O   UNL     1       2.995  10.252   3.294  0.00  0.00    -0.212 OA
BRANCH  37  39
ATOM     39  C   UNL     1       0.801  10.339   3.024  0.00  0.00    +0.243 C 
ATOM     40  O   UNL     1      -0.135  10.052   3.746  0.00  0.00    -0.285 OA
ENDBRANCH  37  39
ENDBRANCH  35  37
ENDBRANCH  34  35
BRANCH  34  41
ATOM     41  C   UNL     1       0.319   7.851   0.444  0.00  0.00    +0.214 C 
ATOM     42  O   UNL     1      -0.117   7.401   1.809  0.00  0.00    -0.218 OA
BRANCH  41  43
ATOM     43  C   UNL     1       0.401   6.286  -0.046  0.00  0.00    +0.217 C 
ATOM     44  O   UNL     1      -0.739   6.007  -0.726  0.00  0.00    -0.217 OA
ENDBRANCH  41  43
ENDBRANCH  34  41
ENDBRANCH  33  34
ENDBRANCH  26  33
ENDBRANCH   1  23
TORSDOF 13
ENDMDL
