MODEL 1
REMARK VINA RESULT:      -8.5      0.000      0.000
REMARK  Name = 
REMARK  9 active torsions:
REMARK  status: ('A' for Active; 'I' for Inactive)
REMARK    1  A    between atoms: C_2  and  O_3
REMARK    2  A    between atoms: O_3  and  C_4
REMARK    3  A    between atoms: C_4  and  O_6
REMARK    4  A    between atoms: O_6  and  C_7
REMARK    5  A    between atoms: C_7  and  C_8
REMARK    6  A    between atoms: C_8  and  C_10
REMARK    7  A    between atoms: C_10  and  O_11
REMARK    8  A    between atoms: O_11  and  C_12
REMARK    9  A    between atoms: C_12  and  C_14
REMARK                            x       y       z     vdW  Elec       q    Type
REMARK                         _______ _______ _______ _____ _____    ______ ____
ROOT
ATOM      1  C   UNL     1       2.888   5.531  -7.895  0.00  0.00    +0.193 C 
ATOM      2  C   UNL     1       3.278   5.876  -6.522  0.00  0.00    +0.043 C 
ATOM      3  C   UNL     1       1.784   6.110  -5.892  0.00  0.00    +0.004 C 
ATOM      4  C   UNL     1       2.297   5.711  -4.309  0.00  0.00    +0.003 C 
ATOM      5  C   UNL     1       2.882   7.271  -4.031  0.00  0.00    +0.038 C 
ATOM      6  C   UNL     1       4.442   6.857  -4.665  0.00  0.00    +0.153 C 
ATOM      7  O   UNL     1       4.917   8.314  -4.520  0.00  0.00    -0.223 OA
ATOM      8  C   UNL     1       3.295   6.962  -2.515  0.00  0.00    +0.036 C 
ATOM      9  C   UNL     1       2.088   6.638  -1.733  0.00  0.00    -0.038 C 
ATOM     10  C   UNL     1       2.339   6.463  -0.432  0.00  0.00    +0.034 C 
ATOM     11  C   UNL     1       3.500   7.099   0.207  0.00  0.00    +0.195 C 
ATOM     12  C   UNL     1       4.168   8.100  -0.636  0.00  0.00    +0.038 C 
ATOM     13  O   UNL     1       4.047   6.608   1.242  0.00  0.00    -0.287 OA
ATOM     14  C   UNL     1       0.972   5.781  -2.242  0.00  0.00    +0.022 C 
ATOM     15  C   UNL     1       4.264   5.876  -2.402  0.00  0.00    +0.009 C 
ATOM     16  C   UNL     1       3.860   8.211  -1.930  0.00  0.00    -0.020 C 
ATOM     17  C   UNL     1       0.841   6.080  -3.706  0.00  0.00    +0.004 C 
ATOM     18  C   UNL     1       1.404   4.551  -6.235  0.00  0.00    +0.004 C 
ATOM     19  C   UNL     1       3.828   4.636  -5.920  0.00  0.00    +0.004 C 
ATOM     20  C   UNL     1       3.944   7.143  -6.238  0.00  0.00    +0.037 C 
ATOM     21  C   UNL     1       1.634   4.677  -7.726  0.00  0.00    +0.048 C 
ENDROOT
BRANCH   1  22
ATOM     22  C   UNL     1       3.981   4.670  -8.465  0.00  0.00    +0.230 C 
ATOM     23  O   UNL     1       3.635   3.579  -8.914  0.00  0.00    -0.288 OA
BRANCH  22  24
ATOM     24  C   UNL     1       5.242   5.344  -8.820  0.00  0.00    +0.276 C 
BRANCH  24  25
ATOM     25  O   UNL     1       5.507   5.413 -10.189  0.00  0.00    -0.440 OA
BRANCH  25  26
ATOM     26  C   UNL     1       5.928   6.658 -10.665  0.00  0.00    +0.317 C 
ATOM     27  O   UNL     1       5.107   7.619 -10.753  0.00  0.00    -0.250 OA
BRANCH  26  28
ATOM     28  C   UNL     1       7.371   7.044 -10.687  0.00  0.00    +0.110 C 
ATOM     29  C   UNL     1       8.166   5.923 -11.328  0.00  0.00    +0.012 C 
ENDBRANCH  26  28
ENDBRANCH  25  26
ENDBRANCH  24  25
ENDBRANCH  22  24
ENDBRANCH   1  22
BRANCH   1  30
ATOM     30  O   UNL     1       2.691   6.578  -8.794  0.00  0.00    -0.418 OA
BRANCH  30  31
ATOM     31  C   UNL     1       1.832   6.276  -9.857  0.00  0.00    +0.512 C 
ATOM     32  O   UNL     1       2.260   5.832 -10.966  0.00  0.00    -0.203 OA
BRANCH  31  33
ATOM     33  O   UNL     1       0.471   6.560  -9.827  0.00  0.00    -0.418 OA
BRANCH  33  35
ATOM     34  C   UNL     1      -0.666   7.639 -11.644  0.00  0.00    +0.051 C 
ATOM     35  C   UNL     1      -0.292   6.365 -11.016  0.00  0.00    +0.212 C 
ENDBRANCH  33  35
ENDBRANCH  31  33
ENDBRANCH  30  31
ENDBRANCH   1  30
TORSDOF 9
ENDMDL
MODEL 2
REMARK VINA RESULT:      -8.1      2.398      8.523
REMARK  Name = 
REMARK  9 active torsions:
REMARK  status: ('A' for Active; 'I' for Inactive)
REMARK    1  A    between atoms: C_2  and  O_3
REMARK    2  A    between atoms: O_3  and  C_4
REMARK    3  A    between atoms: C_4  and  O_6
REMARK    4  A    between atoms: O_6  and  C_7
REMARK    5  A    between atoms: C_7  and  C_8
REMARK    6  A    between atoms: C_8  and  C_10
REMARK    7  A    between atoms: C_10  and  O_11
REMARK    8  A    between atoms: O_11  and  C_12
REMARK    9  A    between atoms: C_12  and  C_14
REMARK                            x       y       z     vdW  Elec       q    Type
REMARK                         _______ _______ _______ _____ _____    ______ ____
ROOT
ATOM      1  C   UNL     1       3.342   6.114  -6.196  0.00  0.00    +0.193 C 
ATOM      2  C   UNL     1       2.720   5.996  -7.521  0.00  0.00    +0.043 C 
ATOM      3  C   UNL     1       4.005   6.433  -8.437  0.00  0.00    +0.004 C 
ATOM      4  C   UNL     1       3.455   5.536  -9.787  0.00  0.00    +0.003 C 
ATOM      5  C   UNL     1       2.421   6.778 -10.279  0.00  0.00    +0.038 C 
ATOM      6  C   UNL     1       1.125   6.157  -9.309  0.00  0.00    +0.153 C 
ATOM      7  O   UNL     1       0.241   7.362  -9.671  0.00  0.00    -0.223 OA
ATOM      8  C   UNL     1       1.949   6.007 -11.601  0.00  0.00    +0.036 C 
ATOM      9  C   UNL     1       3.103   5.813 -12.496  0.00  0.00    -0.038 C 
ATOM     10  C   UNL     1       2.770   5.261 -13.667  0.00  0.00    +0.034 C 
ATOM     11  C   UNL     1       1.412   5.403 -14.211  0.00  0.00    +0.195 C 
ATOM     12  C   UNL     1       0.584   6.382 -13.493  0.00  0.00    +0.038 C 
ATOM     13  O   UNL     1       0.918   4.549 -15.008  0.00  0.00    -0.287 OA
ATOM     14  C   UNL     1       4.466   5.419 -12.022  0.00  0.00    +0.022 C 
ATOM     15  C   UNL     1       1.324   4.719 -11.312  0.00  0.00    +0.009 C 
ATOM     16  C   UNL     1       0.988   6.886 -12.325  0.00  0.00    -0.020 C 
ATOM     17  C   UNL     1       4.668   6.098 -10.699  0.00  0.00    +0.004 C 
ATOM     18  C   UNL     1       4.851   5.157  -7.847  0.00  0.00    +0.004 C 
ATOM     19  C   UNL     1       2.484   4.548  -7.743  0.00  0.00    +0.004 C 
ATOM     20  C   UNL     1       1.692   6.942  -7.943  0.00  0.00    +0.037 C 
ATOM     21  C   UNL     1       4.761   5.589  -6.400  0.00  0.00    +0.048 C 
ENDROOT
BRANCH   1  22
ATOM     22  C   UNL     1       2.611   5.176  -5.276  0.00  0.00    +0.230 C 
ATOM     23  O   UNL     1       3.274   4.257  -4.798  0.00  0.00    -0.288 OA
BRANCH  22  24
ATOM     24  C   UNL     1       1.341   5.658  -4.705  0.00  0.00    +0.276 C 
BRANCH  24  25
ATOM     25  O   UNL     1       0.196   5.048  -5.219  0.00  0.00    -0.440 OA
BRANCH  25  26
ATOM     26  C   UNL     1      -0.850   5.910  -5.564  0.00  0.00    +0.317 C 
ATOM     27  O   UNL     1      -1.947   5.443  -5.995  0.00  0.00    -0.250 OA
BRANCH  26  28
ATOM     28  C   UNL     1      -0.904   7.317  -5.069  0.00  0.00    +0.110 C 
ATOM     29  C   UNL     1      -2.349   7.677  -4.781  0.00  0.00    +0.012 C 
ENDBRANCH  26  28
ENDBRANCH  25  26
ENDBRANCH  24  25
ENDBRANCH  22  24
ENDBRANCH   1  22
BRANCH   1  30
ATOM     30  O   UNL     1       3.329   7.367  -5.585  0.00  0.00    -0.418 OA
BRANCH  30  31
ATOM     31  C   UNL     1       4.202   7.490  -4.498  0.00  0.00    +0.512 C 
ATOM     32  O   UNL     1       5.460   7.546  -4.645  0.00  0.00    -0.203 OA
BRANCH  31  33
ATOM     33  O   UNL     1       3.769   7.428  -3.177  0.00  0.00    -0.418 OA
BRANCH  33  35
ATOM     34  C   UNL     1       3.494   5.696  -1.541  0.00  0.00    +0.051 C 
ATOM     35  C   UNL     1       4.438   6.541  -2.283  0.00  0.00    +0.212 C 
ENDBRANCH  33  35
ENDBRANCH  31  33
ENDBRANCH  30  31
ENDBRANCH   1  30
TORSDOF 9
ENDMDL
MODEL 3
REMARK VINA RESULT:      -8.1      1.521      2.028
REMARK  Name = 
REMARK  9 active torsions:
REMARK  status: ('A' for Active; 'I' for Inactive)
REMARK    1  A    between atoms: C_2  and  O_3
REMARK    2  A    between atoms: O_3  and  C_4
REMARK    3  A    between atoms: C_4  and  O_6
REMARK    4  A    between atoms: O_6  and  C_7
REMARK    5  A    between atoms: C_7  and  C_8
REMARK    6  A    between atoms: C_8  and  C_10
REMARK    7  A    between atoms: C_10  and  O_11
REMARK    8  A    between atoms: O_11  and  C_12
REMARK    9  A    between atoms: C_12  and  C_14
REMARK                            x       y       z     vdW  Elec       q    Type
REMARK                         _______ _______ _______ _____ _____    ______ ____
ROOT
ATOM      1  C   UNL     1       1.102   5.943  -8.874  0.00  0.00    +0.193 C 
ATOM      2  C   UNL     1       1.787   5.979  -7.576  0.00  0.00    +0.043 C 
ATOM      3  C   UNL     1       0.523   6.442  -6.643  0.00  0.00    +0.004 C 
ATOM      4  C   UNL     1       1.176   5.702  -5.244  0.00  0.00    +0.003 C 
ATOM      5  C   UNL     1       2.166   7.031  -4.919  0.00  0.00    +0.038 C 
ATOM      6  C   UNL     1       3.448   6.381  -5.889  0.00  0.00    +0.153 C 
ATOM      7  O   UNL     1       4.285   7.656  -5.683  0.00  0.00    -0.223 OA
ATOM      8  C   UNL     1       2.734   6.411  -3.556  0.00  0.00    +0.036 C 
ATOM      9  C   UNL     1       1.631   6.249  -2.593  0.00  0.00    -0.038 C 
ATOM     10  C   UNL     1       2.041   5.826  -1.393  0.00  0.00    +0.034 C 
ATOM     11  C   UNL     1       3.413   6.081  -0.930  0.00  0.00    +0.195 C 
ATOM     12  C   UNL     1       4.159   7.025  -1.774  0.00  0.00    +0.038 C 
ATOM     13  O   UNL     1       3.984   5.329  -0.082  0.00  0.00    -0.287 OA
ATOM     14  C   UNL     1       0.269   5.750  -2.962  0.00  0.00    +0.022 C 
ATOM     15  C   UNL     1       3.409   5.131  -3.755  0.00  0.00    +0.009 C 
ATOM     16  C   UNL     1       3.679   7.397  -2.963  0.00  0.00    -0.020 C 
ATOM     17  C   UNL     1      -0.024   6.291  -4.330  0.00  0.00    +0.004 C 
ATOM     18  C   UNL     1      -0.283   5.077  -7.072  0.00  0.00    +0.004 C 
ATOM     19  C   UNL     1       2.105   4.571  -7.233  0.00  0.00    +0.004 C 
ATOM     20  C   UNL     1       2.783   7.007  -7.293  0.00  0.00    +0.037 C 
ATOM     21  C   UNL     1      -0.278   5.375  -8.555  0.00  0.00    +0.048 C 
ENDROOT
BRANCH   1  22
ATOM     22  C   UNL     1       1.839   4.957  -9.739  0.00  0.00    +0.230 C 
ATOM     23  O   UNL     1       1.175   4.023 -10.184  0.00  0.00    -0.288 OA
BRANCH  22  24
ATOM     24  C   UNL     1       3.121   5.402 -10.311  0.00  0.00    +0.276 C 
BRANCH  24  25
ATOM     25  O   UNL     1       4.229   4.638  -9.936  0.00  0.00    -0.440 OA
BRANCH  25  26
ATOM     26  C   UNL     1       5.253   5.331  -9.284  0.00  0.00    +0.317 C 
ATOM     27  O   UNL     1       5.608   4.995  -8.115  0.00  0.00    -0.250 OA
BRANCH  26  28
ATOM     28  C   UNL     1       6.233   6.173 -10.033  0.00  0.00    +0.110 C 
ATOM     29  C   UNL     1       7.637   5.760  -9.632  0.00  0.00    +0.012 C 
ENDBRANCH  26  28
ENDBRANCH  25  26
ENDBRANCH  24  25
ENDBRANCH  22  24
ENDBRANCH   1  22
BRANCH   1  30
ATOM     30  O   UNL     1       1.025   7.133  -9.598  0.00  0.00    -0.418 OA
BRANCH  30  31
ATOM     31  C   UNL     1       0.325   7.032 -10.806  0.00  0.00    +0.512 C 
ATOM     32  O   UNL     1      -0.917   6.777 -10.847  0.00  0.00    -0.203 OA
BRANCH  31  33
ATOM     33  O   UNL     1       0.955   7.070 -12.045  0.00  0.00    -0.418 OA
BRANCH  33  35
ATOM     34  C   UNL     1       1.743   5.470 -13.650  0.00  0.00    +0.051 C 
ATOM     35  C   UNL     1       0.576   6.111 -13.032  0.00  0.00    +0.212 C 
ENDBRANCH  33  35
ENDBRANCH  31  33
ENDBRANCH  30  31
ENDBRANCH   1  30
TORSDOF 9
ENDMDL
MODEL 4
REMARK VINA RESULT:      -7.6      2.342      4.669
REMARK  Name = 
REMARK  9 active torsions:
REMARK  status: ('A' for Active; 'I' for Inactive)
REMARK    1  A    between atoms: C_2  and  O_3
REMARK    2  A    between atoms: O_3  and  C_4
REMARK    3  A    between atoms: C_4  and  O_6
REMARK    4  A    between atoms: O_6  and  C_7
REMARK    5  A    between atoms: C_7  and  C_8
REMARK    6  A    between atoms: C_8  and  C_10
REMARK    7  A    between atoms: C_10  and  O_11
REMARK    8  A    between atoms: O_11  and  C_12
REMARK    9  A    between atoms: C_12  and  C_14
REMARK                            x       y       z     vdW  Elec       q    Type
REMARK                         _______ _______ _______ _____ _____    ______ ____
ROOT
ATOM      1  C   UNL     1       2.098   5.965  -8.075  0.00  0.00    +0.193 C 
ATOM      2  C   UNL     1       1.143   6.110  -6.970  0.00  0.00    +0.043 C 
ATOM      3  C   UNL     1       2.027   5.406  -5.785  0.00  0.00    +0.004 C 
ATOM      4  C   UNL     1       1.246   6.303  -4.553  0.00  0.00    +0.003 C 
ATOM      5  C   UNL     1      -0.057   5.229  -4.501  0.00  0.00    +0.038 C 
ATOM      6  C   UNL     1      -0.909   6.119  -5.722  0.00  0.00    +0.153 C 
ATOM      7  O   UNL     1      -2.027   5.063  -5.749  0.00  0.00    -0.223 OA
ATOM      8  C   UNL     1      -0.775   5.990  -3.289  0.00  0.00    +0.036 C 
ATOM      9  C   UNL     1       0.084   5.931  -2.093  0.00  0.00    -0.038 C 
ATOM     10  C   UNL     1      -0.489   6.462  -1.009  0.00  0.00    +0.034 C 
ATOM     11  C   UNL     1      -1.953   6.522  -0.881  0.00  0.00    +0.195 C 
ATOM     12  C   UNL     1      -2.671   5.743  -1.900  0.00  0.00    +0.038 C 
ATOM     13  O   UNL     1      -2.527   7.400  -0.167  0.00  0.00    -0.287 OA
ATOM     14  C   UNL     1       1.569   6.113  -2.126  0.00  0.00    +0.022 C 
ATOM     15  C   UNL     1      -1.092   7.381  -3.602  0.00  0.00    +0.009 C 
ATOM     16  C   UNL     1      -2.022   5.247  -2.956  0.00  0.00    -0.020 C 
ATOM     17  C   UNL     1       2.045   5.489  -3.405  0.00  0.00    +0.004 C 
ATOM     18  C   UNL     1       3.185   6.552  -5.979  0.00  0.00    +0.004 C 
ATOM     19  C   UNL     1       1.067   7.561  -6.670  0.00  0.00    +0.004 C 
ATOM     20  C   UNL     1      -0.091   5.331  -6.952  0.00  0.00    +0.037 C 
ATOM     21  C   UNL     1       3.458   6.227  -7.431  0.00  0.00    +0.048 C 
ENDROOT
BRANCH   1  22
ATOM     22  C   UNL     1       1.813   7.067  -9.058  0.00  0.00    +0.230 C 
ATOM     23  O   UNL     1       2.681   7.930  -9.174  0.00  0.00    -0.288 OA
BRANCH  22  24
ATOM     24  C   UNL     1       0.771   6.806 -10.066  0.00  0.00    +0.276 C 
BRANCH  24  25
ATOM     25  O   UNL     1       1.228   6.759 -11.384  0.00  0.00    -0.440 OA
BRANCH  25  26
ATOM     26  C   UNL     1       0.841   5.636 -12.122  0.00  0.00    +0.317 C 
ATOM     27  O   UNL     1       0.062   4.775 -11.614  0.00  0.00    -0.250 OA
BRANCH  26  28
ATOM     28  C   UNL     1       0.957   5.595 -13.610  0.00  0.00    +0.110 C 
ATOM     29  C   UNL     1       0.690   4.178 -14.082  0.00  0.00    +0.012 C 
ENDBRANCH  26  28
ENDBRANCH  25  26
ENDBRANCH  24  25
ENDBRANCH  22  24
ENDBRANCH   1  22
BRANCH   1  30
ATOM     30  O   UNL     1       2.080   4.771  -8.794  0.00  0.00    -0.418 OA
BRANCH  30  31
ATOM     31  C   UNL     1       3.305   4.429  -9.379  0.00  0.00    +0.512 C 
ATOM     32  O   UNL     1       4.104   3.604  -8.841  0.00  0.00    -0.203 OA
BRANCH  31  33
ATOM     33  O   UNL     1       3.795   5.060 -10.518  0.00  0.00    -0.418 OA
BRANCH  33  35
ATOM     34  C   UNL     1       5.270   6.869 -11.072  0.00  0.00    +0.051 C 
ATOM     35  C   UNL     1       5.146   5.517 -10.514  0.00  0.00    +0.212 C 
ENDBRANCH  33  35
ENDBRANCH  31  33
ENDBRANCH  30  31
ENDBRANCH   1  30
TORSDOF 9
ENDMDL
MODEL 5
REMARK VINA RESULT:      -7.5      2.348      8.317
REMARK  Name = 
REMARK  9 active torsions:
REMARK  status: ('A' for Active; 'I' for Inactive)
REMARK    1  A    between atoms: C_2  and  O_3
REMARK    2  A    between atoms: O_3  and  C_4
REMARK    3  A    between atoms: C_4  and  O_6
REMARK    4  A    between atoms: O_6  and  C_7
REMARK    5  A    between atoms: C_7  and  C_8
REMARK    6  A    between atoms: C_8  and  C_10
REMARK    7  A    between atoms: C_10  and  O_11
REMARK    8  A    between atoms: O_11  and  C_12
REMARK    9  A    between atoms: C_12  and  C_14
REMARK                            x       y       z     vdW  Elec       q    Type
REMARK                         _______ _______ _______ _____ _____    ______ ____
ROOT
ATOM      1  C   UNL     1       2.783   5.883  -7.375  0.00  0.00    +0.193 C 
ATOM      2  C   UNL     1       3.705   6.071  -8.501  0.00  0.00    +0.043 C 
ATOM      3  C   UNL     1       2.929   5.153  -9.613  0.00  0.00    +0.004 C 
ATOM      4  C   UNL     1       3.571   6.048 -10.923  0.00  0.00    +0.003 C 
ATOM      5  C   UNL     1       5.013   5.169 -10.906  0.00  0.00    +0.038 C 
ATOM      6  C   UNL     1       5.732   6.269  -9.774  0.00  0.00    +0.153 C 
ATOM      7  O   UNL     1       6.990   5.388  -9.677  0.00  0.00    -0.223 OA
ATOM      8  C   UNL     1       5.613   5.922 -12.186  0.00  0.00    +0.036 C 
ATOM      9  C   UNL     1       4.768   5.643 -13.361  0.00  0.00    -0.038 C 
ATOM     10  C   UNL     1       5.258   6.159 -14.493  0.00  0.00    +0.034 C 
ATOM     11  C   UNL     1       6.697   6.415 -14.645  0.00  0.00    +0.195 C 
ATOM     12  C   UNL     1       7.521   5.834 -13.577  0.00  0.00    +0.038 C 
ATOM     13  O   UNL     1       7.138   7.304 -15.437  0.00  0.00    -0.287 OA
ATOM     14  C   UNL     1       3.272   5.614 -13.323  0.00  0.00    +0.022 C 
ATOM     15  C   UNL     1       5.728   7.365 -11.992  0.00  0.00    +0.009 C 
ATOM     16  C   UNL     1       6.953   5.339 -12.475  0.00  0.00    -0.020 C 
ATOM     17  C   UNL     1       2.893   5.037 -11.991  0.00  0.00    +0.004 C 
ATOM     18  C   UNL     1       1.618   6.135  -9.496  0.00  0.00    +0.004 C 
ATOM     19  C   UNL     1       3.572   7.488  -8.919  0.00  0.00    +0.004 C 
ATOM     20  C   UNL     1       5.038   5.476  -8.473  0.00  0.00    +0.037 C 
ATOM     21  C   UNL     1       1.398   5.895  -8.018  0.00  0.00    +0.048 C 
ENDROOT
BRANCH   1  22
ATOM     22  C   UNL     1       2.910   7.092  -6.488  0.00  0.00    +0.230 C 
ATOM     23  O   UNL     1       1.923   7.823  -6.421  0.00  0.00    -0.288 OA
BRANCH  22  24
ATOM     24  C   UNL     1       3.989   7.071  -5.486  0.00  0.00    +0.276 C 
BRANCH  24  25
ATOM     25  O   UNL     1       3.590   7.384  -4.186  0.00  0.00    -0.440 OA
BRANCH  25  26
ATOM     26  C   UNL     1       4.090   6.552  -3.179  0.00  0.00    +0.317 C 
ATOM     27  O   UNL     1       4.549   5.406  -3.467  0.00  0.00    -0.250 OA
BRANCH  26  28
ATOM     28  C   UNL     1       4.497   7.088  -1.846  0.00  0.00    +0.110 C 
ATOM     29  C   UNL     1       3.846   8.444  -1.647  0.00  0.00    +0.012 C 
ENDBRANCH  26  28
ENDBRANCH  25  26
ENDBRANCH  24  25
ENDBRANCH  22  24
ENDBRANCH   1  22
BRANCH   1  30
ATOM     30  O   UNL     1       2.973   4.767  -6.561  0.00  0.00    -0.418 OA
BRANCH  30  31
ATOM     31  C   UNL     1       1.829   4.352  -5.870  0.00  0.00    +0.512 C 
ATOM     32  O   UNL     1       1.041   3.473  -6.333  0.00  0.00    -0.203 OA
BRANCH  31  33
ATOM     33  O   UNL     1       1.399   4.962  -4.695  0.00  0.00    -0.418 OA
BRANCH  33  35
ATOM     34  C   UNL     1      -0.156   6.630  -3.951  0.00  0.00    +0.051 C 
ATOM     35  C   UNL     1       0.022   5.313  -4.575  0.00  0.00    +0.212 C 
ENDBRANCH  33  35
ENDBRANCH  31  33
ENDBRANCH  30  31
ENDBRANCH   1  30
TORSDOF 9
ENDMDL
MODEL 6
REMARK VINA RESULT:      -7.2      2.296      3.769
REMARK  Name = 
REMARK  9 active torsions:
REMARK  status: ('A' for Active; 'I' for Inactive)
REMARK    1  A    between atoms: C_2  and  O_3
REMARK    2  A    between atoms: O_3  and  C_4
REMARK    3  A    between atoms: C_4  and  O_6
REMARK    4  A    between atoms: O_6  and  C_7
REMARK    5  A    between atoms: C_7  and  C_8
REMARK    6  A    between atoms: C_8  and  C_10
REMARK    7  A    between atoms: C_10  and  O_11
REMARK    8  A    between atoms: O_11  and  C_12
REMARK    9  A    between atoms: C_12  and  C_14
REMARK                            x       y       z     vdW  Elec       q    Type
REMARK                         _______ _______ _______ _____ _____    ______ ____
ROOT
ATOM      1  C   UNL     1       1.650   5.994 -11.352  0.00  0.00    +0.193 C 
ATOM      2  C   UNL     1       1.859   5.971  -9.899  0.00  0.00    +0.043 C 
ATOM      3  C   UNL     1       0.299   6.115  -9.422  0.00  0.00    +0.004 C 
ATOM      4  C   UNL     1       0.590   5.314  -7.938  0.00  0.00    +0.003 C 
ATOM      5  C   UNL     1       1.158   6.727  -7.207  0.00  0.00    +0.038 C 
ATOM      6  C   UNL     1       2.782   6.407  -7.725  0.00  0.00    +0.153 C 
ATOM      7  O   UNL     1       3.256   7.758  -7.162  0.00  0.00    -0.223 OA
ATOM      8  C   UNL     1       1.359   6.035  -5.777  0.00  0.00    +0.036 C 
ATOM      9  C   UNL     1       0.055   5.588  -5.259  0.00  0.00    -0.038 C 
ATOM     10  C   UNL     1       0.127   5.086  -4.022  0.00  0.00    +0.034 C 
ATOM     11  C   UNL     1       1.203   5.487  -3.105  0.00  0.00    +0.195 C 
ATOM     12  C   UNL     1       1.993   6.631  -3.580  0.00  0.00    +0.038 C 
ATOM     13  O   UNL     1       1.599   4.731  -2.165  0.00  0.00    -0.287 OA
ATOM     14  C   UNL     1      -0.997   4.938  -6.101  0.00  0.00    +0.022 C 
ATOM     15  C   UNL     1       2.287   4.908  -5.820  0.00  0.00    +0.009 C 
ATOM     16  C   UNL     1       1.862   7.072  -4.833  0.00  0.00    -0.020 C 
ATOM     17  C   UNL     1      -0.928   5.594  -7.448  0.00  0.00    +0.004 C 
ATOM     18  C   UNL     1      -0.058   4.708 -10.189  0.00  0.00    +0.004 C 
ATOM     19  C   UNL     1       2.304   4.595  -9.563  0.00  0.00    +0.004 C 
ATOM     20  C   UNL     1       2.502   7.094  -9.225  0.00  0.00    +0.037 C 
ATOM     21  C   UNL     1       0.371   5.186 -11.560  0.00  0.00    +0.048 C 
ENDROOT
BRANCH   1  22
ATOM     22  C   UNL     1       2.796   5.247 -11.978  0.00  0.00    +0.230 C 
ATOM     23  O   UNL     1       2.514   4.517 -12.927  0.00  0.00    -0.288 OA
BRANCH  22  24
ATOM     24  C   UNL     1       4.150   5.755 -11.703  0.00  0.00    +0.276 C 
BRANCH  24  25
ATOM     25  O   UNL     1       5.165   5.163 -12.458  0.00  0.00    -0.440 OA
BRANCH  25  26
ATOM     26  C   UNL     1       6.470   5.398 -12.015  0.00  0.00    +0.317 C 
ATOM     27  O   UNL     1       7.434   4.719 -12.478  0.00  0.00    -0.250 OA
BRANCH  26  28
ATOM     28  C   UNL     1       6.852   6.673 -11.338  0.00  0.00    +0.110 C 
ATOM     29  C   UNL     1       7.437   6.346  -9.977  0.00  0.00    +0.012 C 
ENDBRANCH  26  28
ENDBRANCH  25  26
ENDBRANCH  24  25
ENDBRANCH  22  24
ENDBRANCH   1  22
BRANCH   1  30
ATOM     30  O   UNL     1       1.591   7.238 -11.977  0.00  0.00    -0.418 OA
BRANCH  30  31
ATOM     31  C   UNL     1       0.396   7.488 -12.660  0.00  0.00    +0.512 C 
ATOM     32  O   UNL     1      -0.640   7.923 -12.071  0.00  0.00    -0.203 OA
BRANCH  31  33
ATOM     33  O   UNL     1       0.211   7.156 -13.998  0.00  0.00    -0.418 OA
BRANCH  33  35
ATOM     34  C   UNL     1       1.091   7.851 -16.120  0.00  0.00    +0.051 C 
ATOM     35  C   UNL     1       1.349   7.144 -14.859  0.00  0.00    +0.212 C 
ENDBRANCH  33  35
ENDBRANCH  31  33
ENDBRANCH  30  31
ENDBRANCH   1  30
TORSDOF 9
ENDMDL
MODEL 7
REMARK VINA RESULT:      -7.2      2.342      8.175
REMARK  Name = 
REMARK  9 active torsions:
REMARK  status: ('A' for Active; 'I' for Inactive)
REMARK    1  A    between atoms: C_2  and  O_3
REMARK    2  A    between atoms: O_3  and  C_4
REMARK    3  A    between atoms: C_4  and  O_6
REMARK    4  A    between atoms: O_6  and  C_7
REMARK    5  A    between atoms: C_7  and  C_8
REMARK    6  A    between atoms: C_8  and  C_10
REMARK    7  A    between atoms: C_10  and  O_11
REMARK    8  A    between atoms: O_11  and  C_12
REMARK    9  A    between atoms: C_12  and  C_14
REMARK                            x       y       z     vdW  Elec       q    Type
REMARK                         _______ _______ _______ _____ _____    ______ ____
ROOT
ATOM      1  C   UNL     1       2.104   5.939  -7.499  0.00  0.00    +0.193 C 
ATOM      2  C   UNL     1       3.129   6.095  -8.539  0.00  0.00    +0.043 C 
ATOM      3  C   UNL     1       2.392   5.259  -9.739  0.00  0.00    +0.004 C 
ATOM      4  C   UNL     1       3.197   6.144 -10.964  0.00  0.00    +0.003 C 
ATOM      5  C   UNL     1       4.575   5.173 -10.856  0.00  0.00    +0.038 C 
ATOM      6  C   UNL     1       5.264   6.194  -9.635  0.00  0.00    +0.153 C 
ATOM      7  O   UNL     1       6.451   5.232  -9.462  0.00  0.00    -0.223 OA
ATOM      8  C   UNL     1       5.325   5.919 -12.058  0.00  0.00    +0.036 C 
ATOM      9  C   UNL     1       4.567   5.726 -13.307  0.00  0.00    -0.038 C 
ATOM     10  C   UNL     1       5.181   6.238 -14.378  0.00  0.00    +0.034 C 
ATOM     11  C   UNL     1       6.641   6.405 -14.403  0.00  0.00    +0.195 C 
ATOM     12  C   UNL     1       7.335   5.743 -13.290  0.00  0.00    +0.038 C 
ATOM     13  O   UNL     1       7.202   7.284 -15.127  0.00  0.00    -0.287 OA
ATOM     14  C   UNL     1       3.074   5.793 -13.392  0.00  0.00    +0.022 C 
ATOM     15  C   UNL     1       5.514   7.345 -11.810  0.00  0.00    +0.009 C 
ATOM     16  C   UNL     1       6.646   5.258 -12.254  0.00  0.00    -0.020 C 
ATOM     17  C   UNL     1       2.549   5.207 -12.115  0.00  0.00    +0.004 C 
ATOM     18  C   UNL     1       1.141   6.320  -9.700  0.00  0.00    +0.004 C 
ATOM     19  C   UNL     1       3.120   7.529  -8.922  0.00  0.00    +0.004 C 
ATOM     20  C   UNL     1       4.414   5.415  -8.421  0.00  0.00    +0.037 C 
ATOM     21  C   UNL     1       0.782   6.057  -8.253  0.00  0.00    +0.048 C 
ENDROOT
BRANCH   1  22
ATOM     22  C   UNL     1       2.232   7.113  -6.568  0.00  0.00    +0.230 C 
ATOM     23  O   UNL     1       1.186   7.685  -6.269  0.00  0.00    -0.288 OA
BRANCH  22  24
ATOM     24  C   UNL     1       3.476   7.209  -5.785  0.00  0.00    +0.276 C 
BRANCH  24  25
ATOM     25  O   UNL     1       3.296   7.395  -4.414  0.00  0.00    -0.440 OA
BRANCH  25  26
ATOM     26  C   UNL     1       4.250   6.794  -3.587  0.00  0.00    +0.317 C 
ATOM     27  O   UNL     1       4.984   7.505  -2.837  0.00  0.00    -0.250 OA
BRANCH  26  28
ATOM     28  C   UNL     1       4.178   5.347  -3.227  0.00  0.00    +0.110 C 
ATOM     29  C   UNL     1       4.997   4.554  -4.228  0.00  0.00    +0.012 C 
ENDBRANCH  26  28
ENDBRANCH  25  26
ENDBRANCH  24  25
ENDBRANCH  22  24
ENDBRANCH   1  22
BRANCH   1  30
ATOM     30  O   UNL     1       2.155   4.792  -6.708  0.00  0.00    -0.418 OA
BRANCH  30  31
ATOM     31  C   UNL     1       1.073   4.642  -5.833  0.00  0.00    +0.512 C 
ATOM     32  O   UNL     1      -0.111   4.461  -6.249  0.00  0.00    -0.203 OA
BRANCH  31  33
ATOM     33  O   UNL     1       1.190   4.813  -4.458  0.00  0.00    -0.418 OA
BRANCH  33  35
ATOM     34  C   UNL     1       0.496   6.128  -2.576  0.00  0.00    +0.051 C 
ATOM     35  C   UNL     1       0.076   5.338  -3.739  0.00  0.00    +0.212 C 
ENDBRANCH  33  35
ENDBRANCH  31  33
ENDBRANCH  30  31
ENDBRANCH   1  30
TORSDOF 9
ENDMDL
MODEL 8
REMARK VINA RESULT:      -6.8      2.595      4.266
REMARK  Name = 
REMARK  9 active torsions:
REMARK  status: ('A' for Active; 'I' for Inactive)
REMARK    1  A    between atoms: C_2  and  O_3
REMARK    2  A    between atoms: O_3  and  C_4
REMARK    3  A    between atoms: C_4  and  O_6
REMARK    4  A    between atoms: O_6  and  C_7
REMARK    5  A    between atoms: C_7  and  C_8
REMARK    6  A    between atoms: C_8  and  C_10
REMARK    7  A    between atoms: C_10  and  O_11
REMARK    8  A    between atoms: O_11  and  C_12
REMARK    9  A    between atoms: C_12  and  C_14
REMARK                            x       y       z     vdW  Elec       q    Type
REMARK                         _______ _______ _______ _____ _____    ______ ____
ROOT
ATOM      1  C   UNL     1       2.339   5.582  -8.707  0.00  0.00    +0.193 C 
ATOM      2  C   UNL     1       1.685   5.729  -7.400  0.00  0.00    +0.043 C 
ATOM      3  C   UNL     1       0.136   5.866  -7.913  0.00  0.00    +0.004 C 
ATOM      4  C   UNL     1      -0.493   5.247  -6.445  0.00  0.00    +0.003 C 
ATOM      5  C   UNL     1      -0.395   6.754  -5.688  0.00  0.00    +0.038 C 
ATOM      6  C   UNL     1       1.225   6.440  -5.153  0.00  0.00    +0.153 C 
ATOM      7  O   UNL     1       1.339   7.862  -4.577  0.00  0.00    -0.223 OA
ATOM      8  C   UNL     1      -1.062   6.234  -4.328  0.00  0.00    +0.036 C 
ATOM      9  C   UNL     1      -2.445   5.798  -4.595  0.00  0.00    -0.038 C 
ATOM     10  C   UNL     1      -3.103   5.440  -3.488  0.00  0.00    +0.034 C 
ATOM     11  C   UNL     1      -2.725   5.982  -2.175  0.00  0.00    +0.195 C 
ATOM     12  C   UNL     1      -1.769   7.095  -2.244  0.00  0.00    +0.038 C 
ATOM     13  O   UNL     1      -2.957   5.350  -1.099  0.00  0.00    -0.287 OA
ATOM     14  C   UNL     1      -2.853   5.019  -5.805  0.00  0.00    +0.022 C 
ATOM     15  C   UNL     1      -0.311   5.145  -3.709  0.00  0.00    +0.009 C 
ATOM     16  C   UNL     1      -1.151   7.388  -3.390  0.00  0.00    -0.020 C 
ATOM     17  C   UNL     1      -2.010   5.523  -6.939  0.00  0.00    +0.004 C 
ATOM     18  C   UNL     1       0.233   4.371  -8.581  0.00  0.00    +0.004 C 
ATOM     19  C   UNL     1       1.817   4.418  -6.718  0.00  0.00    +0.004 C 
ATOM     20  C   UNL     1       1.869   6.945  -6.613  0.00  0.00    +0.037 C 
ATOM     21  C   UNL     1       1.378   4.709  -9.510  0.00  0.00    +0.048 C 
ENDROOT
BRANCH   1  22
ATOM     22  C   UNL     1       3.613   4.814  -8.483  0.00  0.00    +0.230 C 
ATOM     23  O   UNL     1       3.756   3.793  -9.153  0.00  0.00    -0.288 OA
BRANCH  22  24
ATOM     24  C   UNL     1       4.721   5.538  -7.838  0.00  0.00    +0.276 C 
BRANCH  24  25
ATOM     25  O   UNL     1       5.226   4.934  -6.685  0.00  0.00    -0.440 OA
BRANCH  25  26
ATOM     26  C   UNL     1       4.840   5.516  -5.474  0.00  0.00    +0.317 C 
ATOM     27  O   UNL     1       4.699   4.800  -4.437  0.00  0.00    -0.250 OA
BRANCH  26  28
ATOM     28  C   UNL     1       4.982   6.982  -5.226  0.00  0.00    +0.110 C 
ATOM     29  C   UNL     1       4.793   7.245  -3.744  0.00  0.00    +0.012 C 
ENDBRANCH  26  28
ENDBRANCH  25  26
ENDBRANCH  24  25
ENDBRANCH  22  24
ENDBRANCH   1  22
BRANCH   1  30
ATOM     30  O   UNL     1       2.686   6.746  -9.391  0.00  0.00    -0.418 OA
BRANCH  30  31
ATOM     31  C   UNL     1       2.714   6.613 -10.784  0.00  0.00    +0.512 C 
ATOM     32  O   UNL     1       3.793   6.426 -11.424  0.00  0.00    -0.203 OA
BRANCH  31  33
ATOM     33  O   UNL     1       1.589   6.805 -11.579  0.00  0.00    -0.418 OA
BRANCH  33  35
ATOM     34  C   UNL     1       0.899   5.160 -13.184  0.00  0.00    +0.051 C 
ATOM     35  C   UNL     1       1.644   6.402 -12.947  0.00  0.00    +0.212 C 
ENDBRANCH  33  35
ENDBRANCH  31  33
ENDBRANCH  30  31
ENDBRANCH   1  30
TORSDOF 9
ENDMDL
MODEL 9
REMARK VINA RESULT:      -6.6      1.645      2.733
REMARK  Name = 
REMARK  9 active torsions:
REMARK  status: ('A' for Active; 'I' for Inactive)
REMARK    1  A    between atoms: C_2  and  O_3
REMARK    2  A    between atoms: O_3  and  C_4
REMARK    3  A    between atoms: C_4  and  O_6
REMARK    4  A    between atoms: O_6  and  C_7
REMARK    5  A    between atoms: C_7  and  C_8
REMARK    6  A    between atoms: C_8  and  C_10
REMARK    7  A    between atoms: C_10  and  O_11
REMARK    8  A    between atoms: O_11  and  C_12
REMARK    9  A    between atoms: C_12  and  C_14
REMARK                            x       y       z     vdW  Elec       q    Type
REMARK                         _______ _______ _______ _____ _____    ______ ____
ROOT
ATOM      1  C   UNL     1       2.752   5.241  -8.885  0.00  0.00    +0.193 C 
ATOM      2  C   UNL     1       2.451   5.663  -7.511  0.00  0.00    +0.043 C 
ATOM      3  C   UNL     1       3.257   4.484  -6.708  0.00  0.00    +0.004 C 
ATOM      4  C   UNL     1       3.498   5.472  -5.330  0.00  0.00    +0.003 C 
ATOM      5  C   UNL     1       1.961   5.118  -4.723  0.00  0.00    +0.038 C 
ATOM      6  C   UNL     1       1.257   6.450  -5.582  0.00  0.00    +0.153 C 
ATOM      7  O   UNL     1      -0.151   6.038  -5.119  0.00  0.00    -0.223 OA
ATOM      8  C   UNL     1       2.182   5.959  -3.378  0.00  0.00    +0.036 C 
ATOM      9  C   UNL     1       3.276   5.358  -2.596  0.00  0.00    -0.038 C 
ATOM     10  C   UNL     1       3.457   5.946  -1.410  0.00  0.00    +0.034 C 
ATOM     11  C   UNL     1       2.355   6.654  -0.741  0.00  0.00    +0.195 C 
ATOM     12  C   UNL     1       1.043   6.431  -1.362  0.00  0.00    +0.038 C 
ATOM     13  O   UNL     1       2.568   7.596   0.082  0.00  0.00    -0.287 OA
ATOM     14  C   UNL     1       4.544   4.841  -3.199  0.00  0.00    +0.022 C 
ATOM     15  C   UNL     1       2.472   7.367  -3.632  0.00  0.00    +0.009 C 
ATOM     16  C   UNL     1       0.948   5.835  -2.553  0.00  0.00    -0.020 C 
ATOM     17  C   UNL     1       4.170   4.240  -4.523  0.00  0.00    +0.004 C 
ATOM     18  C   UNL     1       4.660   4.985  -7.396  0.00  0.00    +0.004 C 
ATOM     19  C   UNL     1       3.185   6.934  -7.295  0.00  0.00    +0.004 C 
ATOM     20  C   UNL     1       1.098   5.541  -6.979  0.00  0.00    +0.037 C 
ATOM     21  C   UNL     1       4.201   4.764  -8.821  0.00  0.00    +0.048 C 
ENDROOT
BRANCH   1  22
ATOM     22  C   UNL     1       2.689   6.468  -9.752  0.00  0.00    +0.230 C 
ATOM     23  O   UNL     1       1.972   7.382  -9.347  0.00  0.00    -0.288 OA
BRANCH  22  24
ATOM     24  C   UNL     1       3.769   6.643 -10.737  0.00  0.00    +0.276 C 
BRANCH  24  25
ATOM     25  O   UNL     1       4.660   7.681 -10.456  0.00  0.00    -0.440 OA
BRANCH  25  26
ATOM     26  C   UNL     1       5.947   7.539 -10.984  0.00  0.00    +0.317 C 
ATOM     27  O   UNL     1       6.482   8.491 -11.628  0.00  0.00    -0.250 OA
BRANCH  26  28
ATOM     28  C   UNL     1       6.889   6.494 -10.486  0.00  0.00    +0.110 C 
ATOM     29  C   UNL     1       7.194   5.533 -11.619  0.00  0.00    +0.012 C 
ENDBRANCH  26  28
ENDBRANCH  25  26
ENDBRANCH  24  25
ENDBRANCH  22  24
ENDBRANCH   1  22
BRANCH   1  30
ATOM     30  O   UNL     1       1.913   4.293  -9.469  0.00  0.00    -0.418 OA
BRANCH  30  31
ATOM     31  C   UNL     1       1.004   4.816 -10.395  0.00  0.00    +0.512 C 
ATOM     32  O   UNL     1      -0.142   5.237 -10.053  0.00  0.00    -0.203 OA
BRANCH  31  33
ATOM     33  O   UNL     1       1.233   4.792 -11.767  0.00  0.00    -0.418 OA
BRANCH  33  35
ATOM     34  C   UNL     1       0.915   5.603 -14.003  0.00  0.00    +0.051 C 
ATOM     35  C   UNL     1       0.579   5.764 -12.583  0.00  0.00    +0.212 C 
ENDBRANCH  33  35
ENDBRANCH  31  33
ENDBRANCH  30  31
ENDBRANCH   1  30
TORSDOF 9
ENDMDL
