MODEL 1
REMARK VINA RESULT:     -10.5      0.000      0.000
REMARK  Name = 
REMARK  6 active torsions:
REMARK  status: ('A' for Active; 'I' for Inactive)
REMARK    1  A    between atoms: C_7  and  C_8
REMARK    2  A    between atoms: C_8  and  S_9
REMARK    3  A    between atoms: C_16  and  C_17
REMARK    4  A    between atoms: C_20  and  C_21
REMARK    5  A    between atoms: C_25  and  C_26
REMARK    6  A    between atoms: C_26  and  S_27
REMARK                            x       y       z     vdW  Elec       q    Type
REMARK                         _______ _______ _______ _____ _____    ______ ____
ROOT
ATOM      1  C   UNL     1       3.368   6.034  -5.402  0.00  0.00    -0.000 A 
ATOM      2  C   UNL     1       3.097   7.282  -6.189  0.00  0.00    -0.000 A 
ATOM      3  C   UNL     1       3.042   7.227  -7.687  0.00  0.00    -0.000 A 
ATOM      4  C   UNL     1       3.259   5.925  -8.399  0.00  0.00    -0.000 A 
ATOM      5  C   UNL     1       3.530   4.677  -7.612  0.00  0.00    -0.000 A 
ATOM      6  C   UNL     1       3.585   4.731  -6.114  0.00  0.00    -0.000 A 
ENDROOT
BRANCH   1  12
ATOM      7  C   UNL     1       2.404   5.996  -3.845  0.00  0.00    +0.001 C 
ATOM      8  C   UNL     1       1.261   5.923  -2.876  0.00  0.00    +0.012 C 
ATOM      9  C   UNL     1      -0.188   5.802  -2.507  0.00  0.00    +0.075 C 
ATOM     10  C   UNL     1       0.771   5.852  -3.660  0.00  0.00    +0.170 C 
ATOM     11  C   UNL     1       2.157   5.998  -3.104  0.00  0.00    +0.012 C 
ATOM     12  C   UNL     1       3.423   6.088  -3.905  0.00  0.00    -0.001 C 
ATOM     13  O   UNL     1       0.407   5.770  -5.113  0.00  0.00    -0.292 OA
ATOM     14  C   UNL     1      -0.290   5.842  -1.011  0.00  0.00    +0.009 C 
ATOM     15  C   UNL     1       1.097   5.988  -0.456  0.00  0.00    +0.005 C 
ATOM     16  C   UNL     1       2.055   6.038  -1.609  0.00  0.00    +0.026 C 
ATOM     17  C   UNL     1       1.103   5.859  -4.367  0.00  0.00    +0.001 C 
BRANCH   9  18
ATOM     18  C   UNL     1      -1.333   5.664  -3.465  0.00  0.00    +0.133 C 
BRANCH  18  19
ATOM     19  S   UNL     1      -2.713   6.074  -3.047  0.00  0.00    -0.107 S 
ATOM     20  O   UNL     1      -4.095   6.485  -2.629  0.00  0.00    -0.291 OA
ATOM     21  O   UNL     1      -2.332   7.517  -3.200  0.00  0.00    -0.371 OA
ATOM     22  O   UNL     1      -3.097   4.632  -2.895  0.00  0.00    -0.371 OA
ENDBRANCH  18  19
ENDBRANCH   9  18
ENDBRANCH   1  12
BRANCH   4  23
ATOM     23  C   UNL     1       3.204   5.871  -9.896  0.00  0.00    -0.001 C 
ATOM     24  C   UNL     1       4.436   6.156 -10.703  0.00  0.00    +0.012 C 
ATOM     25  C   UNL     1       5.787   6.509 -10.154  0.00  0.00    +0.026 C 
ATOM     26  C   UNL     1       5.012   6.281 -11.418  0.00  0.00    +0.012 C 
ATOM     27  C   UNL     1       5.945   6.482 -12.575  0.00  0.00    +0.075 C 
ATOM     28  C   UNL     1       7.296   6.834 -12.027  0.00  0.00    +0.009 C 
ATOM     29  C   UNL     1       3.777   5.951 -12.201  0.00  0.00    +0.001 C 
ATOM     30  C   UNL     1       3.685   5.966 -10.796  0.00  0.00    +0.001 C 
ATOM     31  C   UNL     1       7.198   6.851 -10.530  0.00  0.00    +0.005 C 
ATOM     32  C   UNL     1       4.534   6.140 -12.199  0.00  0.00    +0.170 C 
ATOM     33  O   UNL     1       3.417   5.835 -13.153  0.00  0.00    -0.292 OA
BRANCH  27  34
ATOM     34  C   UNL     1       5.590   6.353 -14.028  0.00  0.00    +0.133 C 
BRANCH  34  35
ATOM     35  S   UNL     1       6.589   6.732 -15.080  0.00  0.00    -0.107 S 
ATOM     36  O   UNL     1       7.588   7.110 -16.133  0.00  0.00    -0.291 OA
ATOM     37  O   UNL     1       5.962   8.090 -15.187  0.00  0.00    -0.371 OA
ATOM     38  O   UNL     1       7.215   5.373 -14.973  0.00  0.00    -0.371 OA
ENDBRANCH  34  35
ENDBRANCH  27  34
ENDBRANCH   4  23
TORSDOF 6
ENDMDL
MODEL 2
REMARK VINA RESULT:     -10.4      2.596      3.555
REMARK  Name = 
REMARK  6 active torsions:
REMARK  status: ('A' for Active; 'I' for Inactive)
REMARK    1  A    between atoms: C_7  and  C_8
REMARK    2  A    between atoms: C_8  and  S_9
REMARK    3  A    between atoms: C_16  and  C_17
REMARK    4  A    between atoms: C_20  and  C_21
REMARK    5  A    between atoms: C_25  and  C_26
REMARK    6  A    between atoms: C_26  and  S_27
REMARK                            x       y       z     vdW  Elec       q    Type
REMARK                         _______ _______ _______ _____ _____    ______ ____
ROOT
ATOM      1  C   UNL     1      -0.462   6.273  -6.156  0.00  0.00    -0.000 A 
ATOM      2  C   UNL     1       0.543   7.350  -6.443  0.00  0.00    -0.000 A 
ATOM      3  C   UNL     1       1.347   7.308  -7.708  0.00  0.00    -0.000 A 
ATOM      4  C   UNL     1       1.146   6.190  -8.687  0.00  0.00    -0.000 A 
ATOM      5  C   UNL     1       0.141   5.113  -8.401  0.00  0.00    -0.000 A 
ATOM      6  C   UNL     1      -0.662   5.155  -7.136  0.00  0.00    -0.000 A 
ENDROOT
BRANCH   1  12
ATOM      7  C   UNL     1      -0.431   6.111  -4.331  0.00  0.00    +0.001 C 
ATOM      8  C   UNL     1       0.049   5.900  -2.925  0.00  0.00    +0.012 C 
ATOM      9  C   UNL     1       1.091   5.615  -1.885  0.00  0.00    +0.075 C 
ATOM     10  C   UNL     1       0.860   5.785  -3.358  0.00  0.00    +0.170 C 
ATOM     11  C   UNL     1      -0.596   6.076  -3.569  0.00  0.00    +0.012 C 
ATOM     12  C   UNL     1      -1.265   6.315  -4.890  0.00  0.00    -0.001 C 
ATOM     13  O   UNL     1       1.903   5.681  -4.431  0.00  0.00    -0.292 OA
ATOM     14  C   UNL     1       0.421   5.625  -0.543  0.00  0.00    +0.009 C 
ATOM     15  C   UNL     1      -1.036   5.917  -0.755  0.00  0.00    +0.005 C 
ATOM     16  C   UNL     1      -1.266   6.086  -2.227  0.00  0.00    +0.026 C 
ATOM     17  C   UNL     1       0.936   5.837  -4.134  0.00  0.00    +0.001 C 
BRANCH   9  18
ATOM     18  C   UNL     1       2.547   5.364  -2.141  0.00  0.00    +0.133 C 
BRANCH  18  19
ATOM     19  S   UNL     1       3.547   5.567  -1.043  0.00  0.00    -0.107 S 
ATOM     20  O   UNL     1       4.549   5.770   0.056  0.00  0.00    -0.291 OA
ATOM     21  O   UNL     1       3.528   4.095  -0.753  0.00  0.00    -0.371 OA
ATOM     22  O   UNL     1       3.568   7.038  -1.333  0.00  0.00    -0.371 OA
ENDBRANCH  18  19
ENDBRANCH   9  18
ENDBRANCH   1  12
BRANCH   4  23
ATOM     23  C   UNL     1       1.950   6.148  -9.953  0.00  0.00    -0.001 C 
ATOM     24  C   UNL     1       3.431   5.916  -9.894  0.00  0.00    +0.012 C 
ATOM     25  C   UNL     1       4.241   5.711  -8.649  0.00  0.00    +0.026 C 
ATOM     26  C   UNL     1       4.315   5.796 -10.145  0.00  0.00    +0.012 C 
ATOM     27  C   UNL     1       5.746   5.602 -10.551  0.00  0.00    +0.075 C 
ATOM     28  C   UNL     1       6.557   5.397  -9.306  0.00  0.00    +0.009 C 
ATOM     29  C   UNL     1       3.732   5.975 -11.515  0.00  0.00    +0.001 C 
ATOM     30  C   UNL     1       2.859   6.038 -10.412  0.00  0.00    +0.001 C 
ATOM     31  C   UNL     1       5.627   5.464  -8.130  0.00  0.00    +0.005 C 
ATOM     32  C   UNL     1       4.360   5.849 -11.069  0.00  0.00    +0.170 C 
ATOM     33  O   UNL     1       3.973   6.002 -12.510  0.00  0.00    -0.292 OA
BRANCH  27  34
ATOM     34  C   UNL     1       6.274   5.612 -11.955  0.00  0.00    +0.133 C 
BRANCH  34  35
ATOM     35  S   UNL     1       7.735   5.838 -12.205  0.00  0.00    -0.107 S 
ATOM     36  O   UNL     1       9.197   6.064 -12.456  0.00  0.00    -0.291 OA
ATOM     37  O   UNL     1       7.834   4.486 -12.848  0.00  0.00    -0.371 OA
ATOM     38  O   UNL     1       7.636   7.189 -11.562  0.00  0.00    -0.371 OA
ENDBRANCH  34  35
ENDBRANCH  27  34
ENDBRANCH   4  23
TORSDOF 6
ENDMDL
MODEL 3
REMARK VINA RESULT:     -10.3      2.280     11.132
REMARK  Name = 
REMARK  6 active torsions:
REMARK  status: ('A' for Active; 'I' for Inactive)
REMARK    1  A    between atoms: C_7  and  C_8
REMARK    2  A    between atoms: C_8  and  S_9
REMARK    3  A    between atoms: C_16  and  C_17
REMARK    4  A    between atoms: C_20  and  C_21
REMARK    5  A    between atoms: C_25  and  C_26
REMARK    6  A    between atoms: C_26  and  S_27
REMARK                            x       y       z     vdW  Elec       q    Type
REMARK                         _______ _______ _______ _____ _____    ______ ____
ROOT
ATOM      1  C   UNL     1       1.592   6.081  -9.404  0.00  0.00    -0.000 A 
ATOM      2  C   UNL     1       1.373   4.789  -8.675  0.00  0.00    -0.000 A 
ATOM      3  C   UNL     1       1.400   4.759  -7.176  0.00  0.00    -0.000 A 
ATOM      4  C   UNL     1       1.646   6.022  -6.405  0.00  0.00    -0.000 A 
ATOM      5  C   UNL     1       1.865   7.315  -7.134  0.00  0.00    -0.000 A 
ATOM      6  C   UNL     1       1.838   7.344  -8.633  0.00  0.00    -0.000 A 
ENDROOT
BRANCH   1  12
ATOM      7  C   UNL     1       2.579   5.971 -10.944  0.00  0.00    +0.001 C 
ATOM      8  C   UNL     1       3.733   5.828 -11.891  0.00  0.00    +0.012 C 
ATOM      9  C   UNL     1       5.181   5.634 -12.233  0.00  0.00    +0.075 C 
ATOM     10  C   UNL     1       4.206   5.749 -11.098  0.00  0.00    +0.170 C 
ATOM     11  C   UNL     1       2.838   5.948 -11.680  0.00  0.00    +0.012 C 
ATOM     12  C   UNL     1       1.565   6.111 -10.903  0.00  0.00    -0.001 C 
ATOM     13  O   UNL     1       4.541   5.677  -9.638  0.00  0.00    -0.292 OA
ATOM     14  C   UNL     1       5.309   5.642 -13.727  0.00  0.00    +0.009 C 
ATOM     15  C   UNL     1       3.941   5.841 -14.309  0.00  0.00    +0.005 C 
ATOM     16  C   UNL     1       2.967   5.956 -13.174  0.00  0.00    +0.026 C 
ATOM     17  C   UNL     1       3.863   5.784 -10.397  0.00  0.00    +0.001 C 
BRANCH   9  18
ATOM     18  C   UNL     1       6.302   5.461 -11.253  0.00  0.00    +0.133 C 
BRANCH  18  19
ATOM     19  S   UNL     1       7.712   5.766 -11.664  0.00  0.00    -0.107 S 
ATOM     20  O   UNL     1       9.122   6.070 -12.077  0.00  0.00    -0.291 OA
ATOM     21  O   UNL     1       7.648   7.068 -10.923  0.00  0.00    -0.371 OA
ATOM     22  O   UNL     1       7.777   4.464 -12.406  0.00  0.00    -0.371 OA
ENDBRANCH  18  19
ENDBRANCH   9  18
ENDBRANCH   1  12
BRANCH   4  23
ATOM     23  C   UNL     1       1.673   5.992  -4.906  0.00  0.00    -0.001 C 
ATOM     24  C   UNL     1       0.429   6.300  -4.127  0.00  0.00    +0.012 C 
ATOM     25  C   UNL     1      -0.909   6.653  -4.706  0.00  0.00    +0.026 C 
ATOM     26  C   UNL     1      -0.159   6.441  -3.424  0.00  0.00    +0.012 C 
ATOM     27  C   UNL     1      -1.111   6.669  -2.288  0.00  0.00    +0.075 C 
ATOM     28  C   UNL     1      -2.449   7.022  -2.867  0.00  0.00    +0.009 C 
ATOM     29  C   UNL     1       1.060   6.115  -2.614  0.00  0.00    +0.001 C 
ATOM     30  C   UNL     1       1.177   6.106  -4.017  0.00  0.00    +0.001 C 
ATOM     31  C   UNL     1      -2.324   7.012  -4.362  0.00  0.00    +0.005 C 
ATOM     32  C   UNL     1       0.304   6.310  -2.632  0.00  0.00    +0.170 C 
ATOM     33  O   UNL     1       1.401   6.013  -1.654  0.00  0.00    -0.292 OA
BRANCH  27  34
ATOM     34  C   UNL     1      -0.783   6.562  -0.827  0.00  0.00    +0.133 C 
BRANCH  34  35
ATOM     35  S   UNL     1      -1.623   7.284   0.184  0.00  0.00    -0.107 S 
ATOM     36  O   UNL     1      -2.463   8.006   1.196  0.00  0.00    -0.291 OA
ATOM     37  O   UNL     1      -1.086   8.596  -0.306  0.00  0.00    -0.371 OA
ATOM     38  O   UNL     1      -2.159   5.972   0.674  0.00  0.00    -0.371 OA
ENDBRANCH  34  35
ENDBRANCH  27  34
ENDBRANCH   4  23
TORSDOF 6
ENDMDL
MODEL 4
REMARK VINA RESULT:     -10.3      1.605     10.746
REMARK  Name = 
REMARK  6 active torsions:
REMARK  status: ('A' for Active; 'I' for Inactive)
REMARK    1  A    between atoms: C_7  and  C_8
REMARK    2  A    between atoms: C_8  and  S_9
REMARK    3  A    between atoms: C_16  and  C_17
REMARK    4  A    between atoms: C_20  and  C_21
REMARK    5  A    between atoms: C_25  and  C_26
REMARK    6  A    between atoms: C_26  and  S_27
REMARK                            x       y       z     vdW  Elec       q    Type
REMARK                         _______ _______ _______ _____ _____    ______ ____
ROOT
ATOM      1  C   UNL     1       4.987   5.522  -9.048  0.00  0.00    -0.000 A 
ATOM      2  C   UNL     1       4.228   4.233  -8.940  0.00  0.00    -0.000 A 
ATOM      3  C   UNL     1       2.790   4.242  -8.513  0.00  0.00    -0.000 A 
ATOM      4  C   UNL     1       2.111   5.540  -8.194  0.00  0.00    -0.000 A 
ATOM      5  C   UNL     1       2.869   6.830  -8.302  0.00  0.00    -0.000 A 
ATOM      6  C   UNL     1       4.307   6.821  -8.729  0.00  0.00    -0.000 A 
ENDROOT
BRANCH   1  12
ATOM      7  C   UNL     1       6.155   5.662 -10.453  0.00  0.00    +0.001 C 
ATOM      8  C   UNL     1       6.708   5.828 -11.838  0.00  0.00    +0.012 C 
ATOM      9  C   UNL     1       6.594   6.040 -13.318  0.00  0.00    +0.075 C 
ATOM     10  C   UNL     1       5.807   5.901 -12.048  0.00  0.00    +0.170 C 
ATOM     11  C   UNL     1       6.778   5.697 -10.922  0.00  0.00    +0.012 C 
ATOM     12  C   UNL     1       6.424   5.513  -9.476  0.00  0.00    -0.001 C 
ATOM     13  O   UNL     1       4.314   5.955 -11.926  0.00  0.00    -0.292 OA
ATOM     14  C   UNL     1       7.980   6.054 -13.892  0.00  0.00    +0.009 C 
ATOM     15  C   UNL     1       8.949   5.850 -12.765  0.00  0.00    +0.005 C 
ATOM     16  C   UNL     1       8.163   5.711 -11.496  0.00  0.00    +0.026 C 
ATOM     17  C   UNL     1       5.244   5.853 -11.510  0.00  0.00    +0.001 C 
BRANCH   9  18
ATOM     18  C   UNL     1       5.319   6.209 -14.089  0.00  0.00    +0.133 C 
BRANCH  18  19
ATOM     19  S   UNL     1       5.279   7.115 -15.283  0.00  0.00    -0.107 S 
ATOM     20  O   UNL     1       5.239   8.022 -16.478  0.00  0.00    -0.291 OA
ATOM     21  O   UNL     1       4.179   6.285 -15.877  0.00  0.00    -0.371 OA
ATOM     22  O   UNL     1       6.379   7.945 -14.691  0.00  0.00    -0.371 OA
ENDBRANCH  18  19
ENDBRANCH   9  18
ENDBRANCH   1  12
BRANCH   4  23
ATOM     23  C   UNL     1       0.673   5.549  -7.767  0.00  0.00    -0.001 C 
ATOM     24  C   UNL     1       0.323   5.520  -6.308  0.00  0.00    +0.012 C 
ATOM     25  C   UNL     1       1.299   5.480  -5.169  0.00  0.00    +0.026 C 
ATOM     26  C   UNL     1      -0.160   5.508  -5.518  0.00  0.00    +0.012 C 
ATOM     27  C   UNL     1      -0.943   5.488  -4.239  0.00  0.00    +0.075 C 
ATOM     28  C   UNL     1       0.032   5.449  -3.099  0.00  0.00    +0.009 C 
ATOM     29  C   UNL     1      -1.318   5.545  -6.470  0.00  0.00    +0.001 C 
ATOM     30  C   UNL     1      -0.018   5.541  -7.010  0.00  0.00    +0.001 C 
ATOM     31  C   UNL     1       1.417   5.443  -3.675  0.00  0.00    +0.005 C 
ATOM     32  C   UNL     1      -1.061   5.525  -5.733  0.00  0.00    +0.170 C 
ATOM     33  O   UNL     1      -2.341   5.560  -6.515  0.00  0.00    -0.292 OA
BRANCH  27  34
ATOM     34  C   UNL     1      -2.438   5.505  -4.119  0.00  0.00    +0.133 C 
BRANCH  34  35
ATOM     35  S   UNL     1      -3.090   6.192  -2.955  0.00  0.00    -0.107 S 
ATOM     36  O   UNL     1      -3.741   6.879  -1.792  0.00  0.00    -0.291 OA
ATOM     37  O   UNL     1      -3.039   4.914  -2.172  0.00  0.00    -0.371 OA
ATOM     38  O   UNL     1      -3.140   7.470  -3.739  0.00  0.00    -0.371 OA
ENDBRANCH  34  35
ENDBRANCH  27  34
ENDBRANCH   4  23
TORSDOF 6
ENDMDL
MODEL 5
REMARK VINA RESULT:     -10.3      2.261      3.229
REMARK  Name = 
REMARK  6 active torsions:
REMARK  status: ('A' for Active; 'I' for Inactive)
REMARK    1  A    between atoms: C_7  and  C_8
REMARK    2  A    between atoms: C_8  and  S_9
REMARK    3  A    between atoms: C_16  and  C_17
REMARK    4  A    between atoms: C_20  and  C_21
REMARK    5  A    between atoms: C_25  and  C_26
REMARK    6  A    between atoms: C_26  and  S_27
REMARK                            x       y       z     vdW  Elec       q    Type
REMARK                         _______ _______ _______ _____ _____    ______ ____
ROOT
ATOM      1  C   UNL     1       0.033   5.491  -6.217  0.00  0.00    -0.000 A 
ATOM      2  C   UNL     1       0.520   6.765  -6.841  0.00  0.00    -0.000 A 
ATOM      3  C   UNL     1       1.882   6.822  -7.465  0.00  0.00    -0.000 A 
ATOM      4  C   UNL     1       2.759   5.606  -7.466  0.00  0.00    -0.000 A 
ATOM      5  C   UNL     1       2.273   4.331  -6.842  0.00  0.00    -0.000 A 
ATOM      6  C   UNL     1       0.911   4.273  -6.218  0.00  0.00    -0.000 A 
ENDROOT
BRANCH   1  12
ATOM      7  C   UNL     1      -0.955   5.771  -4.700  0.00  0.00    +0.001 C 
ATOM      8  C   UNL     1      -1.342   6.125  -3.295  0.00  0.00    +0.012 C 
ATOM      9  C   UNL     1      -1.065   6.597  -1.898  0.00  0.00    +0.075 C 
ATOM     10  C   UNL     1      -0.436   6.309  -3.230  0.00  0.00    +0.170 C 
ATOM     11  C   UNL     1      -1.514   5.833  -4.158  0.00  0.00    +0.012 C 
ATOM     12  C   UNL     1      -1.329   5.433  -5.592  0.00  0.00    -0.001 C 
ATOM     13  O   UNL     1       1.016   6.468  -3.571  0.00  0.00    -0.292 OA
ATOM     14  C   UNL     1      -2.360   6.592  -1.142  0.00  0.00    +0.009 C 
ATOM     15  C   UNL     1      -3.437   6.117  -2.071  0.00  0.00    +0.005 C 
ATOM     16  C   UNL     1      -2.809   5.828  -3.402  0.00  0.00    +0.026 C 
ATOM     17  C   UNL     1       0.057   6.217  -3.829  0.00  0.00    +0.001 C 
BRANCH   9  18
ATOM     18  C   UNL     1       0.272   7.003  -1.354  0.00  0.00    +0.133 C 
BRANCH  18  19
ATOM     19  S   UNL     1       0.541   6.916   0.118  0.00  0.00    -0.107 S 
ATOM     20  O   UNL     1       0.809   6.828   1.592  0.00  0.00    -0.291 OA
ATOM     21  O   UNL     1       1.185   5.576  -0.078  0.00  0.00    -0.371 OA
ATOM     22  O   UNL     1      -0.104   8.256   0.316  0.00  0.00    -0.371 OA
ENDBRANCH  18  19
ENDBRANCH   9  18
ENDBRANCH   1  12
BRANCH   4  23
ATOM     23  C   UNL     1       4.121   5.663  -8.091  0.00  0.00    -0.001 C 
ATOM     24  C   UNL     1       4.261   5.722  -9.583  0.00  0.00    +0.012 C 
ATOM     25  C   UNL     1       3.134   5.730 -10.574  0.00  0.00    +0.026 C 
ATOM     26  C   UNL     1       4.627   5.763 -10.433  0.00  0.00    +0.012 C 
ATOM     27  C   UNL     1       5.221   5.828 -11.809  0.00  0.00    +0.075 C 
ATOM     28  C   UNL     1       4.094   5.837 -12.801  0.00  0.00    +0.009 C 
ATOM     29  C   UNL     1       5.908   5.766  -9.653  0.00  0.00    +0.001 C 
ATOM     30  C   UNL     1       4.698   5.709  -8.937  0.00  0.00    +0.001 C 
ATOM     31  C   UNL     1       2.805   5.776 -12.036  0.00  0.00    +0.005 C 
ATOM     32  C   UNL     1       5.550   5.782 -10.347  0.00  0.00    +0.170 C 
ATOM     33  O   UNL     1       6.927   5.795  -9.753  0.00  0.00    -0.292 OA
BRANCH  27  34
ATOM     34  C   UNL     1       6.684   5.877 -12.138  0.00  0.00    +0.133 C 
BRANCH  34  35
ATOM     35  S   UNL     1       7.128   6.125 -13.549  0.00  0.00    -0.107 S 
ATOM     36  O   UNL     1       7.572   6.373 -14.960  0.00  0.00    -0.291 OA
ATOM     37  O   UNL     1       6.649   7.543 -13.451  0.00  0.00    -0.371 OA
ATOM     38  O   UNL     1       7.607   4.707 -13.646  0.00  0.00    -0.371 OA
ENDBRANCH  34  35
ENDBRANCH  27  34
ENDBRANCH   4  23
TORSDOF 6
ENDMDL
MODEL 6
REMARK VINA RESULT:     -10.2      2.482     10.787
REMARK  Name = 
REMARK  6 active torsions:
REMARK  status: ('A' for Active; 'I' for Inactive)
REMARK    1  A    between atoms: C_7  and  C_8
REMARK    2  A    between atoms: C_8  and  S_9
REMARK    3  A    between atoms: C_16  and  C_17
REMARK    4  A    between atoms: C_20  and  C_21
REMARK    5  A    between atoms: C_25  and  C_26
REMARK    6  A    between atoms: C_26  and  S_27
REMARK                            x       y       z     vdW  Elec       q    Type
REMARK                         _______ _______ _______ _____ _____    ______ ____
ROOT
ATOM      1  C   UNL     1       3.287   5.448  -7.808  0.00  0.00    -0.000 A 
ATOM      2  C   UNL     1       2.579   4.202  -7.367  0.00  0.00    -0.000 A 
ATOM      3  C   UNL     1       1.423   4.291  -6.417  0.00  0.00    -0.000 A 
ATOM      4  C   UNL     1       0.972   5.628  -5.907  0.00  0.00    -0.000 A 
ATOM      5  C   UNL     1       1.680   6.876  -6.348  0.00  0.00    -0.000 A 
ATOM      6  C   UNL     1       2.837   6.786  -7.298  0.00  0.00    -0.000 A 
ENDROOT
BRANCH   1  12
ATOM      7  C   UNL     1       3.821   5.495  -9.560  0.00  0.00    +0.001 C 
ATOM      8  C   UNL     1       3.797   5.598 -11.056  0.00  0.00    +0.012 C 
ATOM      9  C   UNL     1       3.124   5.776 -12.385  0.00  0.00    +0.075 C 
ATOM     10  C   UNL     1       2.889   5.708 -10.904  0.00  0.00    +0.170 C 
ATOM     11  C   UNL     1       4.213   5.488 -10.234  0.00  0.00    +0.012 C 
ATOM     12  C   UNL     1       4.444   5.359  -8.758  0.00  0.00    -0.001 C 
ATOM     13  O   UNL     1       1.563   5.838 -10.215  0.00  0.00    -0.292 OA
ATOM     14  C   UNL     1       4.177   5.707 -13.450  0.00  0.00    +0.009 C 
ATOM     15  C   UNL     1       5.501   5.487 -12.780  0.00  0.00    +0.005 C 
ATOM     16  C   UNL     1       5.266   5.419 -11.300  0.00  0.00    +0.026 C 
ATOM     17  C   UNL     1       2.578   5.701 -10.188  0.00  0.00    +0.001 C 
BRANCH   9  18
ATOM     18  C   UNL     1       1.656   5.985 -12.608  0.00  0.00    +0.133 C 
BRANCH  18  19
ATOM     19  S   UNL     1       1.086   5.885 -13.991  0.00  0.00    -0.107 S 
ATOM     20  O   UNL     1       0.516   5.785 -15.375  0.00  0.00    -0.291 OA
ATOM     21  O   UNL     1       1.020   4.393 -13.856  0.00  0.00    -0.371 OA
ATOM     22  O   UNL     1       1.152   7.377 -14.127  0.00  0.00    -0.371 OA
ENDBRANCH  18  19
ENDBRANCH   9  18
ENDBRANCH   1  12
BRANCH   4  23
ATOM     23  C   UNL     1      -0.185   5.718  -4.957  0.00  0.00    -0.001 C 
ATOM     24  C   UNL     1       0.062   5.929  -3.493  0.00  0.00    +0.012 C 
ATOM     25  C   UNL     1       1.403   6.068  -2.836  0.00  0.00    +0.026 C 
ATOM     26  C   UNL     1      -0.076   6.050  -2.584  0.00  0.00    +0.012 C 
ATOM     27  C   UNL     1      -0.298   6.245  -1.114  0.00  0.00    +0.075 C 
ATOM     28  C   UNL     1       1.044   6.384  -0.456  0.00  0.00    +0.009 C 
ATOM     29  C   UNL     1      -1.512   5.941  -3.000  0.00  0.00    +0.001 C 
ATOM     30  C   UNL     1      -0.526   5.838  -3.998  0.00  0.00    +0.001 C 
ATOM     31  C   UNL     1       2.095   6.275  -1.521  0.00  0.00    +0.005 C 
ATOM     32  C   UNL     1      -0.989   6.039  -2.428  0.00  0.00    +0.170 C 
ATOM     33  O   UNL     1      -2.471   5.956  -2.641  0.00  0.00    -0.292 OA
BRANCH  27  34
ATOM     34  C   UNL     1      -1.628   6.293  -0.421  0.00  0.00    +0.133 C 
BRANCH  34  35
ATOM     35  S   UNL     1      -1.874   7.303   0.661  0.00  0.00    -0.107 S 
ATOM     36  O   UNL     1      -2.121   8.313   1.742  0.00  0.00    -0.291 OA
ATOM     37  O   UNL     1      -1.666   8.412  -0.328  0.00  0.00    -0.371 OA
ATOM     38  O   UNL     1      -2.083   6.194   1.648  0.00  0.00    -0.371 OA
ENDBRANCH  34  35
ENDBRANCH  27  34
ENDBRANCH   4  23
TORSDOF 6
ENDMDL
MODEL 7
REMARK VINA RESULT:     -10.2      2.588      3.536
REMARK  Name = 
REMARK  6 active torsions:
REMARK  status: ('A' for Active; 'I' for Inactive)
REMARK    1  A    between atoms: C_7  and  C_8
REMARK    2  A    between atoms: C_8  and  S_9
REMARK    3  A    between atoms: C_16  and  C_17
REMARK    4  A    between atoms: C_20  and  C_21
REMARK    5  A    between atoms: C_25  and  C_26
REMARK    6  A    between atoms: C_26  and  S_27
REMARK                            x       y       z     vdW  Elec       q    Type
REMARK                         _______ _______ _______ _____ _____    ______ ____
ROOT
ATOM      1  C   UNL     1       1.602   5.364  -7.090  0.00  0.00    -0.000 A 
ATOM      2  C   UNL     1       2.293   4.113  -7.545  0.00  0.00    -0.000 A 
ATOM      3  C   UNL     1       3.453   4.198  -8.491  0.00  0.00    -0.000 A 
ATOM      4  C   UNL     1       3.923   5.534  -8.984  0.00  0.00    -0.000 A 
ATOM      5  C   UNL     1       3.232   6.786  -8.530  0.00  0.00    -0.000 A 
ATOM      6  C   UNL     1       2.072   6.701  -7.583  0.00  0.00    -0.000 A 
ENDROOT
BRANCH   1  12
ATOM      7  C   UNL     1       1.069   5.367  -5.337  0.00  0.00    +0.001 C 
ATOM      8  C   UNL     1       1.095   5.417  -3.838  0.00  0.00    +0.012 C 
ATOM      9  C   UNL     1       1.773   5.526  -2.504  0.00  0.00    +0.075 C 
ATOM     10  C   UNL     1       2.006   5.503  -3.987  0.00  0.00    +0.170 C 
ATOM     11  C   UNL     1       0.676   5.349  -4.663  0.00  0.00    +0.012 C 
ATOM     12  C   UNL     1       0.442   5.279  -6.143  0.00  0.00    -0.001 C 
ATOM     13  O   UNL     1       3.336   5.613  -4.671  0.00  0.00    -0.292 OA
ATOM     14  C   UNL     1       0.718   5.455  -1.441  0.00  0.00    +0.009 C 
ATOM     15  C   UNL     1      -0.612   5.302  -2.118  0.00  0.00    +0.005 C 
ATOM     16  C   UNL     1      -0.379   5.278  -3.599  0.00  0.00    +0.026 C 
ATOM     17  C   UNL     1       2.318   5.511  -4.703  0.00  0.00    +0.001 C 
BRANCH   9  18
ATOM     18  C   UNL     1       3.247   5.680  -2.275  0.00  0.00    +0.133 C 
BRANCH  18  19
ATOM     19  S   UNL     1       3.763   5.997  -0.903  0.00  0.00    -0.107 S 
ATOM     20  O   UNL     1       4.280   6.313   0.470  0.00  0.00    -0.291 OA
ATOM     21  O   UNL     1       3.827   4.532  -0.588  0.00  0.00    -0.371 OA
ATOM     22  O   UNL     1       3.700   7.462  -1.217  0.00  0.00    -0.371 OA
ENDBRANCH  18  19
ENDBRANCH   9  18
ENDBRANCH   1  12
BRANCH   4  23
ATOM     23  C   UNL     1       5.083   5.619  -9.931  0.00  0.00    -0.001 C 
ATOM     24  C   UNL     1       4.840   5.716 -11.408  0.00  0.00    +0.012 C 
ATOM     25  C   UNL     1       3.499   5.738 -12.081  0.00  0.00    +0.026 C 
ATOM     26  C   UNL     1       4.980   5.780 -12.322  0.00  0.00    +0.012 C 
ATOM     27  C   UNL     1       5.205   5.885 -13.801  0.00  0.00    +0.075 C 
ATOM     28  C   UNL     1       3.865   5.907 -14.475  0.00  0.00    +0.009 C 
ATOM     29  C   UNL     1       6.416   5.777 -11.891  0.00  0.00    +0.001 C 
ATOM     30  C   UNL     1       5.426   5.691 -10.894  0.00  0.00    +0.001 C 
ATOM     31  C   UNL     1       2.811   5.816 -13.411  0.00  0.00    +0.005 C 
ATOM     32  C   UNL     1       5.894   5.807 -12.471  0.00  0.00    +0.170 C 
ATOM     33  O   UNL     1       7.376   5.818 -12.244  0.00  0.00    -0.292 OA
BRANCH  27  34
ATOM     34  C   UNL     1       6.538   5.956 -14.487  0.00  0.00    +0.133 C 
BRANCH  34  35
ATOM     35  S   UNL     1       6.757   6.936 -15.601  0.00  0.00    -0.107 S 
ATOM     36  O   UNL     1       6.976   7.917 -16.715  0.00  0.00    -0.291 OA
ATOM     37  O   UNL     1       7.152   5.813 -16.513  0.00  0.00    -0.371 OA
ATOM     38  O   UNL     1       6.362   8.059 -14.689  0.00  0.00    -0.371 OA
ENDBRANCH  34  35
ENDBRANCH  27  34
ENDBRANCH   4  23
TORSDOF 6
ENDMDL
MODEL 8
REMARK VINA RESULT:     -10.2      3.110     10.360
REMARK  Name = 
REMARK  6 active torsions:
REMARK  status: ('A' for Active; 'I' for Inactive)
REMARK    1  A    between atoms: C_7  and  C_8
REMARK    2  A    between atoms: C_8  and  S_9
REMARK    3  A    between atoms: C_16  and  C_17
REMARK    4  A    between atoms: C_20  and  C_21
REMARK    5  A    between atoms: C_25  and  C_26
REMARK    6  A    between atoms: C_26  and  S_27
REMARK                            x       y       z     vdW  Elec       q    Type
REMARK                         _______ _______ _______ _____ _____    ______ ____
ROOT
ATOM      1  C   UNL     1       1.533   5.968  -9.682  0.00  0.00    -0.000 A 
ATOM      2  C   UNL     1       1.438   4.668  -8.940  0.00  0.00    -0.000 A 
ATOM      3  C   UNL     1       1.350   4.663  -7.443  0.00  0.00    -0.000 A 
ATOM      4  C   UNL     1       1.358   5.958  -6.687  0.00  0.00    -0.000 A 
ATOM      5  C   UNL     1       1.454   7.259  -7.429  0.00  0.00    -0.000 A 
ATOM      6  C   UNL     1       1.542   7.263  -8.926  0.00  0.00    -0.000 A 
ENDROOT
BRANCH   1  12
ATOM      7  C   UNL     1       2.642   5.892 -11.139  0.00  0.00    +0.001 C 
ATOM      8  C   UNL     1       3.873   5.802 -11.992  0.00  0.00    +0.012 C 
ATOM      9  C   UNL     1       5.351   5.688 -12.218  0.00  0.00    +0.075 C 
ATOM     10  C   UNL     1       4.286   5.763 -11.163  0.00  0.00    +0.170 C 
ATOM     11  C   UNL     1       2.958   5.873 -11.853  0.00  0.00    +0.012 C 
ATOM     12  C   UNL     1       1.621   5.972 -11.179  0.00  0.00    -0.001 C 
ATOM     13  O   UNL     1       4.511   5.734  -9.681  0.00  0.00    -0.292 OA
ATOM     14  C   UNL     1       5.594   5.680 -13.698  0.00  0.00    +0.009 C 
ATOM     15  C   UNL     1       4.266   5.790 -14.386  0.00  0.00    +0.005 C 
ATOM     16  C   UNL     1       3.202   5.865 -13.332  0.00  0.00    +0.026 C 
ATOM     17  C   UNL     1       3.888   5.789 -10.492  0.00  0.00    +0.001 C 
BRANCH   9  18
ATOM     18  C   UNL     1       6.401   5.597 -11.152  0.00  0.00    +0.133 C 
BRANCH  18  19
ATOM     19  S   UNL     1       7.849   5.753 -11.510  0.00  0.00    -0.107 S 
ATOM     20  O   UNL     1       9.298   5.910 -11.868  0.00  0.00    -0.291 OA
ATOM     21  O   UNL     1       7.803   4.457 -12.262  0.00  0.00    -0.371 OA
ATOM     22  O   UNL     1       7.895   7.050 -10.757  0.00  0.00    -0.371 OA
ENDBRANCH  18  19
ENDBRANCH   9  18
ENDBRANCH   1  12
BRANCH   4  23
ATOM     23  C   UNL     1       1.270   5.953  -5.190  0.00  0.00    -0.001 C 
ATOM     24  C   UNL     1       2.425   6.445  -4.369  0.00  0.00    +0.012 C 
ATOM     25  C   UNL     1       3.726   6.968  -4.903  0.00  0.00    +0.026 C 
ATOM     26  C   UNL     1       2.958   6.679  -3.647  0.00  0.00    +0.012 C 
ATOM     27  C   UNL     1       3.819   7.057  -2.479  0.00  0.00    +0.075 C 
ATOM     28  C   UNL     1       5.120   7.581  -3.013  0.00  0.00    +0.009 C 
ATOM     29  C   UNL     1       1.761   6.203  -2.879  0.00  0.00    +0.001 C 
ATOM     30  C   UNL     1       1.707   6.152  -4.285  0.00  0.00    +0.001 C 
ATOM     31  C   UNL     1       5.062   7.525  -4.511  0.00  0.00    +0.005 C 
ATOM     32  C   UNL     1       2.483   6.500  -2.872  0.00  0.00    +0.170 C 
ATOM     33  O   UNL     1       1.396   6.073  -1.931  0.00  0.00    -0.292 OA
BRANCH  27  34
ATOM     34  C   UNL     1       3.446   6.934  -1.031  0.00  0.00    +0.133 C 
BRANCH  34  35
ATOM     35  S   UNL     1       4.478   7.169   0.032  0.00  0.00    -0.107 S 
ATOM     36  O   UNL     1       5.510   7.403   1.095  0.00  0.00    -0.291 OA
ATOM     37  O   UNL     1       4.853   5.717  -0.012  0.00  0.00    -0.371 OA
ATOM     38  O   UNL     1       4.103   8.620   0.075  0.00  0.00    -0.371 OA
ENDBRANCH  34  35
ENDBRANCH  27  34
ENDBRANCH   4  23
TORSDOF 6
ENDMDL
MODEL 9
REMARK VINA RESULT:     -10.1      2.143      3.099
REMARK  Name = 
REMARK  6 active torsions:
REMARK  status: ('A' for Active; 'I' for Inactive)
REMARK    1  A    between atoms: C_7  and  C_8
REMARK    2  A    between atoms: C_8  and  S_9
REMARK    3  A    between atoms: C_16  and  C_17
REMARK    4  A    between atoms: C_20  and  C_21
REMARK    5  A    between atoms: C_25  and  C_26
REMARK    6  A    between atoms: C_26  and  S_27
REMARK                            x       y       z     vdW  Elec       q    Type
REMARK                         _______ _______ _______ _____ _____    ______ ____
ROOT
ATOM      1  C   UNL     1       3.724   6.143  -4.217  0.00  0.00    -0.000 A 
ATOM      2  C   UNL     1       4.026   4.789  -4.786  0.00  0.00    -0.000 A 
ATOM      3  C   UNL     1       4.223   4.622  -6.263  0.00  0.00    -0.000 A 
ATOM      4  C   UNL     1       4.118   5.809  -7.173  0.00  0.00    -0.000 A 
ATOM      5  C   UNL     1       3.816   7.165  -6.605  0.00  0.00    -0.000 A 
ATOM      6  C   UNL     1       3.619   7.331  -5.128  0.00  0.00    -0.000 A 
ENDROOT
BRANCH   1  12
ATOM      7  C   UNL     1       2.513   6.206  -2.844  0.00  0.00    +0.001 C 
ATOM      8  C   UNL     1       1.224   6.187  -2.077  0.00  0.00    +0.012 C 
ATOM      9  C   UNL     1      -0.266   6.070  -1.946  0.00  0.00    +0.075 C 
ATOM     10  C   UNL     1       0.872   6.050  -2.924  0.00  0.00    +0.170 C 
ATOM     11  C   UNL     1       2.145   6.259  -2.157  0.00  0.00    +0.012 C 
ATOM     12  C   UNL     1       3.527   6.310  -2.740  0.00  0.00    -0.001 C 
ATOM     13  O   UNL     1       0.757   5.854  -4.406  0.00  0.00    -0.292 OA
ATOM     14  C   UNL     1      -0.617   6.220  -0.496  0.00  0.00    +0.009 C 
ATOM     15  C   UNL     1       0.656   6.429   0.270  0.00  0.00    +0.005 C 
ATOM     16  C   UNL     1       1.794   6.409  -0.707  0.00  0.00    +0.026 C 
ATOM     17  C   UNL     1       1.318   6.010  -3.564  0.00  0.00    +0.001 C 
BRANCH   9  18
ATOM     18  C   UNL     1      -1.234   5.843  -3.068  0.00  0.00    +0.133 C 
BRANCH  18  19
ATOM     19  S   UNL     1      -2.687   6.164  -2.882  0.00  0.00    -0.107 S 
ATOM     20  O   UNL     1      -4.141   6.485  -2.695  0.00  0.00    -0.291 OA
ATOM     21  O   UNL     1      -2.388   7.623  -3.059  0.00  0.00    -0.371 OA
ATOM     22  O   UNL     1      -2.987   4.705  -2.705  0.00  0.00    -0.371 OA
ENDBRANCH  18  19
ENDBRANCH   9  18
ENDBRANCH   1  12
BRANCH   4  23
ATOM     23  C   UNL     1       4.316   5.642  -8.650  0.00  0.00    -0.001 C 
ATOM     24  C   UNL     1       3.136   5.697  -9.575  0.00  0.00    +0.012 C 
ATOM     25  C   UNL     1       1.708   5.911  -9.170  0.00  0.00    +0.026 C 
ATOM     26  C   UNL     1       2.617   5.687 -10.343  0.00  0.00    +0.012 C 
ATOM     27  C   UNL     1       1.775   5.670 -11.584  0.00  0.00    +0.075 C 
ATOM     28  C   UNL     1       0.347   5.884 -11.180  0.00  0.00    +0.009 C 
ATOM     29  C   UNL     1       3.950   5.461 -10.990  0.00  0.00    +0.001 C 
ATOM     30  C   UNL     1       3.911   5.601  -9.590  0.00  0.00    +0.001 C 
ATOM     31  C   UNL     1       0.305   6.033  -9.688  0.00  0.00    +0.005 C 
ATOM     32  C   UNL     1       3.178   5.548 -11.067  0.00  0.00    +0.170 C 
ATOM     33  O   UNL     1       4.406   5.317 -11.896  0.00  0.00    -0.292 OA
BRANCH  27  34
ATOM     34  C   UNL     1       2.275   5.473 -12.986  0.00  0.00    +0.133 C 
BRANCH  34  35
ATOM     35  S   UNL     1       1.325   5.578 -14.142  0.00  0.00    -0.107 S 
ATOM     36  O   UNL     1       0.375   5.682 -15.298  0.00  0.00    -0.291 OA
ATOM     37  O   UNL     1       1.574   7.055 -14.213  0.00  0.00    -0.371 OA
ATOM     38  O   UNL     1       1.076   4.101 -14.070  0.00  0.00    -0.371 OA
ENDBRANCH  34  35
ENDBRANCH  27  34
ENDBRANCH   4  23
TORSDOF 6
ENDMDL
