MODEL 1
REMARK VINA RESULT:      -4.9      0.000      0.000
REMARK  Name = 
REMARK  3 active torsions:
REMARK  status: ('A' for Active; 'I' for Inactive)
REMARK    1  A    between atoms: C_5  and  N_6
REMARK    2  A    between atoms: N_9  and  C_10
REMARK    3  A    between atoms: C_10  and  C_11
REMARK                            x       y       z     vdW  Elec       q    Type
REMARK                         _______ _______ _______ _____ _____    ______ ____
ROOT
ATOM      1  C   UNL     1      -2.262   5.718  -6.447  0.00  0.00    +0.072 C 
ATOM      2  C   UNL     1      -1.016   5.765  -5.621  0.00  0.00    +0.125 A 
ATOM      3  N   UNL     1      -1.077   5.764  -4.268  0.00  0.00    -0.255 N 
ATOM      4  C   UNL     1       0.078   5.245  -3.802  0.00  0.00    +0.378 A 
ATOM      5  C   UNL     1       0.872   4.998  -4.916  0.00  0.00    +0.195 A 
ATOM      6  N   UNL     1       0.242   5.501  -5.991  0.00  0.00    -0.223 NA
ENDROOT
BRANCH   4   7
ATOM      7  N   UNL     1       0.670   5.408  -2.507  0.00  0.00    +0.101 N 
ATOM      8  O   UNL     1       1.773   6.226  -2.366  0.00  0.00    -0.575 OA
ATOM      9  O   UNL     1       0.437   4.553  -1.619  0.00  0.00    +0.043 OA
ENDBRANCH   4   7
BRANCH   3  10
ATOM     10  C   UNL     1      -1.970   6.518  -3.430  0.00  0.00    +0.148 C 
BRANCH  10  11
ATOM     11  C   UNL     1      -3.155   5.745  -2.947  0.00  0.00    +0.207 C 
ATOM     12  O   UNL     1      -2.745   4.907  -1.899  0.00  0.00    -0.218 OA
ENDBRANCH  10  11
ENDBRANCH   3  10
TORSDOF 3
ENDMDL
MODEL 2
REMARK VINA RESULT:      -4.8      1.532      3.091
REMARK  Name = 
REMARK  3 active torsions:
REMARK  status: ('A' for Active; 'I' for Inactive)
REMARK    1  A    between atoms: C_5  and  N_6
REMARK    2  A    between atoms: N_9  and  C_10
REMARK    3  A    between atoms: C_10  and  C_11
REMARK                            x       y       z     vdW  Elec       q    Type
REMARK                         _______ _______ _______ _____ _____    ______ ____
ROOT
ATOM      1  C   UNL     1       0.854   6.659  -6.394  0.00  0.00    +0.072 C 
ATOM      2  C   UNL     1      -0.362   5.980  -5.851  0.00  0.00    +0.125 A 
ATOM      3  N   UNL     1      -0.816   6.255  -4.605  0.00  0.00    -0.255 N 
ATOM      4  C   UNL     1      -2.141   5.998  -4.579  0.00  0.00    +0.378 A 
ATOM      5  C   UNL     1      -2.463   5.489  -5.833  0.00  0.00    +0.195 A 
ATOM      6  N   UNL     1      -1.318   5.319  -6.516  0.00  0.00    -0.223 NA
ENDROOT
BRANCH   4   7
ATOM      7  N   UNL     1      -2.974   5.726  -3.446  0.00  0.00    +0.101 N 
ATOM      8  O   UNL     1      -3.480   6.780  -2.711  0.00  0.00    -0.575 OA
ATOM      9  O   UNL     1      -2.931   4.589  -2.918  0.00  0.00    +0.043 OA
ENDBRANCH   4   7
BRANCH   3  10
ATOM     10  C   UNL     1      -0.041   6.395  -3.401  0.00  0.00    +0.148 C 
BRANCH  10  11
ATOM     11  C   UNL     1       0.668   5.147  -2.982  0.00  0.00    +0.207 C 
ATOM     12  O   UNL     1       0.085   4.680  -1.794  0.00  0.00    -0.218 OA
ENDBRANCH  10  11
ENDBRANCH   3  10
TORSDOF 3
ENDMDL
MODEL 3
REMARK VINA RESULT:      -4.7      8.973     10.843
REMARK  Name = 
REMARK  3 active torsions:
REMARK  status: ('A' for Active; 'I' for Inactive)
REMARK    1  A    between atoms: C_5  and  N_6
REMARK    2  A    between atoms: N_9  and  C_10
REMARK    3  A    between atoms: C_10  and  C_11
REMARK                            x       y       z     vdW  Elec       q    Type
REMARK                         _______ _______ _______ _____ _____    ______ ____
ROOT
ATOM      1  C   UNL     1       7.472   5.750  -9.498  0.00  0.00    +0.072 C 
ATOM      2  C   UNL     1       6.087   5.856 -10.053  0.00  0.00    +0.125 A 
ATOM      3  N   UNL     1       5.870   5.853 -11.389  0.00  0.00    -0.255 N 
ATOM      4  C   UNL     1       4.622   5.388 -11.606  0.00  0.00    +0.378 A 
ATOM      5  C   UNL     1       4.062   5.176 -10.351  0.00  0.00    +0.195 A 
ATOM      6  N   UNL     1       4.921   5.649  -9.431  0.00  0.00    -0.223 NA
ENDROOT
BRANCH   4   7
ATOM      7  N   UNL     1       3.786   5.580 -12.754  0.00  0.00    +0.101 N 
ATOM      8  O   UNL     1       2.634   6.331 -12.634  0.00  0.00    -0.575 OA
ATOM      9  O   UNL     1       3.890   4.788 -13.722  0.00  0.00    +0.043 OA
ENDBRANCH   4   7
BRANCH   3  10
ATOM     10  C   UNL     1       6.606   6.567 -12.398  0.00  0.00    +0.148 C 
BRANCH  10  11
ATOM     11  C   UNL     1       7.228   5.690 -13.437  0.00  0.00    +0.207 C 
ATOM     12  O   UNL     1       7.874   4.624 -12.794  0.00  0.00    -0.218 OA
ENDBRANCH  10  11
ENDBRANCH   3  10
TORSDOF 3
ENDMDL
MODEL 4
REMARK VINA RESULT:      -4.6      2.242      3.213
REMARK  Name = 
REMARK  3 active torsions:
REMARK  status: ('A' for Active; 'I' for Inactive)
REMARK    1  A    between atoms: C_5  and  N_6
REMARK    2  A    between atoms: N_9  and  C_10
REMARK    3  A    between atoms: C_10  and  C_11
REMARK                            x       y       z     vdW  Elec       q    Type
REMARK                         _______ _______ _______ _____ _____    ______ ____
ROOT
ATOM      1  C   UNL     1      -3.502   6.427  -2.560  0.00  0.00    +0.072 C 
ATOM      2  C   UNL     1      -2.175   5.820  -2.888  0.00  0.00    +0.125 A 
ATOM      3  N   UNL     1      -1.422   6.300  -3.907  0.00  0.00    -0.255 N 
ATOM      4  C   UNL     1      -0.131   6.012  -3.639  0.00  0.00    +0.378 A 
ATOM      5  C   UNL     1      -0.132   5.278  -2.458  0.00  0.00    +0.195 A 
ATOM      6  N   UNL     1      -1.411   5.024  -2.132  0.00  0.00    -0.223 NA
ENDROOT
BRANCH   4   7
ATOM      7  N   UNL     1       0.970   5.923  -4.552  0.00  0.00    +0.101 N 
ATOM      8  O   UNL     1       1.282   4.703  -5.118  0.00  0.00    -0.575 OA
ATOM      9  O   UNL     1       1.844   6.823  -4.542  0.00  0.00    +0.043 OA
ENDBRANCH   4   7
BRANCH   3  10
ATOM     10  C   UNL     1      -1.865   6.675  -5.223  0.00  0.00    +0.148 C 
BRANCH  10  11
ATOM     11  C   UNL     1      -2.382   5.537  -6.042  0.00  0.00    +0.207 C 
ATOM     12  O   UNL     1      -1.416   5.204  -7.003  0.00  0.00    -0.218 OA
ENDBRANCH  10  11
ENDBRANCH   3  10
TORSDOF 3
ENDMDL
MODEL 5
REMARK VINA RESULT:      -4.6      1.739      3.444
REMARK  Name = 
REMARK  3 active torsions:
REMARK  status: ('A' for Active; 'I' for Inactive)
REMARK    1  A    between atoms: C_5  and  N_6
REMARK    2  A    between atoms: N_9  and  C_10
REMARK    3  A    between atoms: C_10  and  C_11
REMARK                            x       y       z     vdW  Elec       q    Type
REMARK                         _______ _______ _______ _____ _____    ______ ____
ROOT
ATOM      1  C   UNL     1       0.065   5.588  -7.645  0.00  0.00    +0.072 C 
ATOM      2  C   UNL     1      -0.838   5.349  -6.477  0.00  0.00    +0.125 A 
ATOM      3  N   UNL     1      -0.397   5.524  -5.209  0.00  0.00    -0.255 N 
ATOM      4  C   UNL     1      -1.464   5.811  -4.434  0.00  0.00    +0.378 A 
ATOM      5  C   UNL     1      -2.578   5.735  -5.262  0.00  0.00    +0.195 A 
ATOM      6  N   UNL     1      -2.174   5.269  -6.456  0.00  0.00    -0.223 NA
ENDROOT
BRANCH   4   7
ATOM      7  N   UNL     1      -1.599   5.668  -3.015  0.00  0.00    +0.101 N 
ATOM      8  O   UNL     1      -2.476   4.729  -2.510  0.00  0.00    -0.575 OA
ATOM      9  O   UNL     1      -1.230   6.608  -2.270  0.00  0.00    +0.043 OA
ENDBRANCH   4   7
BRANCH   3  10
ATOM     10  C   UNL     1       0.861   5.101  -4.652  0.00  0.00    +0.148 C 
BRANCH  10  11
ATOM     11  C   UNL     1       1.731   6.224  -4.187  0.00  0.00    +0.207 C 
ATOM     12  O   UNL     1       2.322   6.825  -5.308  0.00  0.00    -0.218 OA
ENDBRANCH  10  11
ENDBRANCH   3  10
TORSDOF 3
ENDMDL
MODEL 6
REMARK VINA RESULT:      -4.5      1.973      3.103
REMARK  Name = 
REMARK  3 active torsions:
REMARK  status: ('A' for Active; 'I' for Inactive)
REMARK    1  A    between atoms: C_5  and  N_6
REMARK    2  A    between atoms: N_9  and  C_10
REMARK    3  A    between atoms: C_10  and  C_11
REMARK                            x       y       z     vdW  Elec       q    Type
REMARK                         _______ _______ _______ _____ _____    ______ ____
ROOT
ATOM      1  C   UNL     1      -3.127   5.283  -3.588  0.00  0.00    +0.072 C 
ATOM      2  C   UNL     1      -2.234   5.635  -4.734  0.00  0.00    +0.125 A 
ATOM      3  N   UNL     1      -0.888   5.666  -4.584  0.00  0.00    -0.255 N 
ATOM      4  C   UNL     1      -0.331   5.434  -5.792  0.00  0.00    +0.378 A 
ATOM      5  C   UNL     1      -1.384   5.333  -6.694  0.00  0.00    +0.195 A 
ATOM      6  N   UNL     1      -2.517   5.646  -6.042  0.00  0.00    -0.223 NA
ENDROOT
BRANCH   4   7
ATOM      7  N   UNL     1       0.987   5.770  -6.244  0.00  0.00    +0.101 N 
ATOM      8  O   UNL     1       2.042   4.938  -5.928  0.00  0.00    -0.575 OA
ATOM      9  O   UNL     1       1.233   6.953  -6.579  0.00  0.00    +0.043 OA
ENDBRANCH   4   7
BRANCH   3  10
ATOM     10  C   UNL     1      -0.140   6.230  -3.493  0.00  0.00    +0.148 C 
BRANCH  10  11
ATOM     11  C   UNL     1       0.602   5.223  -2.675  0.00  0.00    +0.207 C 
ATOM     12  O   UNL     1      -0.242   4.770  -1.650  0.00  0.00    -0.218 OA
ENDBRANCH  10  11
ENDBRANCH   3  10
TORSDOF 3
ENDMDL
MODEL 7
REMARK VINA RESULT:      -4.4      8.848     10.257
REMARK  Name = 
REMARK  3 active torsions:
REMARK  status: ('A' for Active; 'I' for Inactive)
REMARK    1  A    between atoms: C_5  and  N_6
REMARK    2  A    between atoms: N_9  and  C_10
REMARK    3  A    between atoms: C_10  and  C_11
REMARK                            x       y       z     vdW  Elec       q    Type
REMARK                         _______ _______ _______ _____ _____    ______ ____
ROOT
ATOM      1  C   UNL     1       4.568   5.776  -8.179  0.00  0.00    +0.072 C 
ATOM      2  C   UNL     1       5.619   5.515  -9.210  0.00  0.00    +0.125 A 
ATOM      3  N   UNL     1       5.342   5.627 -10.531  0.00  0.00    -0.255 N 
ATOM      4  C   UNL     1       6.495   5.910 -11.174  0.00  0.00    +0.378 A 
ATOM      5  C   UNL     1       7.494   5.896 -10.206  0.00  0.00    +0.195 A 
ATOM      6  N   UNL     1       6.948   5.468  -9.055  0.00  0.00    -0.223 NA
ENDROOT
BRANCH   4   7
ATOM      7  N   UNL     1       6.816   5.714 -12.556  0.00  0.00    +0.101 N 
ATOM      8  O   UNL     1       7.655   4.678 -12.915  0.00  0.00    -0.575 OA
ATOM      9  O   UNL     1       6.655   6.664 -13.359  0.00  0.00    +0.043 OA
ENDBRANCH   4   7
BRANCH   3  10
ATOM     10  C   UNL     1       4.177   5.149 -11.226  0.00  0.00    +0.148 C 
BRANCH  10  11
ATOM     11  C   UNL     1       3.323   6.232 -11.803  0.00  0.00    +0.207 C 
ATOM     12  O   UNL     1       3.166   5.993 -13.176  0.00  0.00    -0.218 OA
ENDBRANCH  10  11
ENDBRANCH   3  10
TORSDOF 3
ENDMDL
MODEL 8
REMARK VINA RESULT:      -4.3      6.131      7.558
REMARK  Name = 
REMARK  3 active torsions:
REMARK  status: ('A' for Active; 'I' for Inactive)
REMARK    1  A    between atoms: C_5  and  N_6
REMARK    2  A    between atoms: N_9  and  C_10
REMARK    3  A    between atoms: C_10  and  C_11
REMARK                            x       y       z     vdW  Elec       q    Type
REMARK                         _______ _______ _______ _____ _____    ______ ____
ROOT
ATOM      1  C   UNL     1       5.493   5.350  -9.014  0.00  0.00    +0.072 C 
ATOM      2  C   UNL     1       4.355   5.263  -9.980  0.00  0.00    +0.125 A 
ATOM      3  N   UNL     1       3.104   4.966  -9.556  0.00  0.00    -0.255 N 
ATOM      4  C   UNL     1       2.230   5.497 -10.439  0.00  0.00    +0.378 A 
ATOM      5  C   UNL     1       2.997   6.065 -11.451  0.00  0.00    +0.195 A 
ATOM      6  N   UNL     1       4.281   5.738 -11.229  0.00  0.00    -0.223 NA
ENDROOT
BRANCH   4   7
ATOM      7  N   UNL     1       0.867   5.124 -10.677  0.00  0.00    +0.101 N 
ATOM      8  O   UNL     1       0.521   4.572 -11.894  0.00  0.00    -0.575 OA
ATOM      9  O   UNL     1      -0.034   5.628  -9.965  0.00  0.00    +0.043 OA
ENDBRANCH   4   7
BRANCH   3  10
ATOM     10  C   UNL     1       2.715   3.955  -8.610  0.00  0.00    +0.148 C 
BRANCH  10  11
ATOM     11  C   UNL     1       2.203   4.495  -7.314  0.00  0.00    +0.207 C 
ATOM     12  O   UNL     1       2.080   3.434  -6.405  0.00  0.00    -0.218 OA
ENDBRANCH  10  11
ENDBRANCH   3  10
TORSDOF 3
ENDMDL
MODEL 9
REMARK VINA RESULT:      -4.3      8.169      9.849
REMARK  Name = 
REMARK  3 active torsions:
REMARK  status: ('A' for Active; 'I' for Inactive)
REMARK    1  A    between atoms: C_5  and  N_6
REMARK    2  A    between atoms: N_9  and  C_10
REMARK    3  A    between atoms: C_10  and  C_11
REMARK                            x       y       z     vdW  Elec       q    Type
REMARK                         _______ _______ _______ _____ _____    ______ ____
ROOT
ATOM      1  C   UNL     1       8.159   5.511 -11.743  0.00  0.00    +0.072 C 
ATOM      2  C   UNL     1       7.150   5.801 -10.679  0.00  0.00    +0.125 A 
ATOM      3  N   UNL     1       5.827   5.850 -10.967  0.00  0.00    -0.255 N 
ATOM      4  C   UNL     1       5.146   5.551  -9.841  0.00  0.00    +0.378 A 
ATOM      5  C   UNL     1       6.098   5.390  -8.841  0.00  0.00    +0.195 A 
ATOM      6  N   UNL     1       7.294   5.734  -9.350  0.00  0.00    -0.223 NA
ENDROOT
BRANCH   4   7
ATOM      7  N   UNL     1       3.788   5.868  -9.511  0.00  0.00    +0.101 N 
ATOM      8  O   UNL     1       2.777   5.024  -9.926  0.00  0.00    -0.575 OA
ATOM      9  O   UNL     1       3.497   7.047  -9.197  0.00  0.00    +0.043 OA
ENDBRANCH   4   7
BRANCH   3  10
ATOM     10  C   UNL     1       5.199   6.482 -12.096  0.00  0.00    +0.148 C 
BRANCH  10  11
ATOM     11  C   UNL     1       4.438   5.544 -12.977  0.00  0.00    +0.207 C 
ATOM     12  O   UNL     1       5.331   4.596 -13.498  0.00  0.00    -0.218 OA
ENDBRANCH  10  11
ENDBRANCH   3  10
TORSDOF 3
ENDMDL
