MODEL 1
REMARK VINA RESULT:      -9.1      0.000      0.000
REMARK  Name = 
REMARK  15 active torsions:
REMARK  status: ('A' for Active; 'I' for Inactive)
REMARK    1  A    between atoms: N_2  and  C_3
REMARK    2  A    between atoms: C_3  and  C_4
REMARK    3  A    between atoms: C_4  and  O_6
REMARK    4  A    between atoms: O_6  and  C_7
REMARK    5  A    between atoms: C_7  and  C_8
REMARK    6  A    between atoms: C_16  and  O_18
REMARK    7  A    between atoms: O_18  and  C_19
REMARK    8  A    between atoms: C_19  and  N_21
REMARK    9  A    between atoms: N_24  and  C_25
REMARK   10  A    between atoms: C_25  and  C_26
REMARK   11  A    between atoms: C_26  and  C_28
REMARK   12  A    between atoms: C_26  and  C_36
REMARK   13  A    between atoms: C_36  and  C_38
REMARK   14  A    between atoms: C_40  and  C_41
REMARK   15  A    between atoms: C_44  and  C_45
REMARK                            x       y       z     vdW  Elec       q    Type
REMARK                         _______ _______ _______ _____ _____    ______ ____
ROOT
ATOM      1  C   UNL     1       2.256   4.463  -7.423  0.00  0.00    +0.169 C 
ENDROOT
BRANCH   1   4
ATOM      2  N   UNL     1       3.423   6.120  -4.602  0.00  0.00    -0.091 N 
ATOM      3  C   UNL     1       3.418   4.958  -5.216  0.00  0.00    +0.402 A 
ATOM      4  N   UNL     1       2.471   5.117  -6.178  0.00  0.00    -0.181 N 
ATOM      5  N   UNL     1       1.556   5.927  -5.638  0.00  0.00    -0.092 NA
ATOM      6  C   UNL     1       2.101   6.431  -4.502  0.00  0.00    +0.423 A 
BRANCH   2   7
ATOM      7  C   UNL     1       4.280   6.404  -3.265  0.00  0.00    +0.437 C 
ATOM      8  C   UNL     1       4.811   7.914  -3.819  0.00  0.00    +0.141 C 
BRANCH   7   9
ATOM      9  O   UNL     1       3.064   7.064  -2.489  0.00  0.00    -0.375 OA
BRANCH   9  13
ATOM     10  C   UNL     1      -0.516   6.177  -0.673  0.00  0.00    +0.053 A 
ATOM     11  C   UNL     1       0.750   6.258  -0.103  0.00  0.00    +0.139 A 
ATOM     12  N   UNL     1       1.907   5.700  -0.741  0.00  0.00    -0.208 N 
ATOM     13  C   UNL     1       2.981   6.487  -1.217  0.00  0.00    +0.414 C 
ATOM     14  O   UNL     1       3.834   6.873  -0.361  0.00  0.00    -0.226 OA
ATOM     15  C   UNL     1       1.768   4.299  -1.133  0.00  0.00    +0.125 C 
ATOM     16  N   UNL     1       0.980   7.291   0.739  0.00  0.00    -0.229 NA
ATOM     17  C   UNL     1       0.078   8.271   0.952  0.00  0.00    +0.100 A 
ATOM     18  C   UNL     1      -1.056   8.335   0.176  0.00  0.00    +0.021 A 
ATOM     19  C   UNL     1      -1.356   7.287  -0.689  0.00  0.00    +0.004 A 
BRANCH  10  20
ATOM     20  C   UNL     1      -0.590   5.317  -1.896  0.00  0.00    +0.238 C 
BRANCH  20  21
ATOM     21  O   UNL     1      -1.891   4.926  -2.215  0.00  0.00    -0.442 OA
BRANCH  21  22
ATOM     22  C   UNL     1      -2.609   5.347  -3.320  0.00  0.00    +0.335 C 
ATOM     23  O   UNL     1      -3.851   5.288  -3.213  0.00  0.00    -0.248 OA
BRANCH  22  24
ATOM     24  C   UNL     1      -1.911   5.674  -4.582  0.00  0.00    +0.198 C 
BRANCH  24  26
ATOM     25  C   UNL     1      -1.740   7.967  -4.438  0.00  0.00    +0.108 C 
ATOM     26  N   UNL     1      -2.328   6.984  -5.037  0.00  0.00    -0.205 NA
ENDBRANCH  24  26
ENDBRANCH  22  24
ENDBRANCH  21  22
ENDBRANCH  20  21
ENDBRANCH  10  20
ENDBRANCH   9  13
ENDBRANCH   7   9
ENDBRANCH   2   7
ENDBRANCH   1   4
BRANCH   1  27
ATOM     27  C   UNL     1       2.547   5.237  -8.650  0.00  0.00    +0.176 C 
ATOM     28  O   UNL     1       3.286   6.367  -8.401  0.00  0.00    -0.219 OA
BRANCH  27  29
ATOM     29  C   UNL     1       1.501   5.487  -9.585  0.00  0.00    +0.037 A 
ATOM     30  C   UNL     1       0.957   6.773  -9.623  0.00  0.00    +0.139 A 
ATOM     31  F   UNL     1       1.227   7.690  -8.647  0.00  0.00    -0.204 F 
ATOM     32  C   UNL     1       0.028   7.157 -10.552  0.00  0.00    +0.032 A 
ATOM     33  C   UNL     1      -0.366   6.275 -11.541  0.00  0.00    +0.032 A 
ATOM     34  C   UNL     1      -0.002   4.943 -11.378  0.00  0.00    +0.140 A 
ATOM     35  F   UNL     1      -0.191   4.138 -12.434  0.00  0.00    -0.204 F 
ATOM     36  C   UNL     1       0.676   4.570 -10.225  0.00  0.00    +0.030 A 
ENDBRANCH  27  29
BRANCH  27  37
ATOM     37  C   UNL     1       3.696   4.252  -9.325  0.00  0.00    +0.080 C 
ATOM     38  C   UNL     1       3.455   4.894 -10.839  0.00  0.00    +0.010 C 
BRANCH  37  39
ATOM     39  C   UNL     1       4.919   5.284  -9.005  0.00  0.00    +0.091 A 
ATOM     40  S   UNL     1       6.354   4.780  -8.212  0.00  0.00    -0.070 S 
ATOM     41  C   UNL     1       7.442   5.743  -9.131  0.00  0.00    +0.056 A 
ATOM     42  C   UNL     1       6.649   5.993 -10.250  0.00  0.00    +0.088 A 
ATOM     43  N   UNL     1       5.369   6.114  -9.929  0.00  0.00    -0.243 NA
BRANCH  42  44
ATOM     44  C   UNL     1       7.187   6.327 -11.587  0.00  0.00    +0.018 A 
ATOM     45  C   UNL     1       7.390   5.336 -12.540  0.00  0.00    +0.002 A 
ATOM     46  C   UNL     1       7.172   5.611 -13.888  0.00  0.00    +0.010 A 
ATOM     47  C   UNL     1       6.401   6.704 -14.270  0.00  0.00    +0.068 A 
ATOM     48  C   UNL     1       6.445   7.781 -13.392  0.00  0.00    +0.010 A 
ATOM     49  C   UNL     1       6.957   7.596 -12.112  0.00  0.00    +0.002 A 
BRANCH  47  50
ATOM     50  C   UNL     1       5.353   6.598 -15.257  0.00  0.00    +0.100 C 
ATOM     51  N   UNL     1       4.461   6.626 -16.008  0.00  0.00    -0.191 NA
ENDBRANCH  47  50
ENDBRANCH  42  44
ENDBRANCH  37  39
ENDBRANCH  27  37
ENDBRANCH   1  27
TORSDOF 15
ENDMDL
MODEL 2
REMARK VINA RESULT:      -8.8      3.365      5.703
REMARK  Name = 
REMARK  15 active torsions:
REMARK  status: ('A' for Active; 'I' for Inactive)
REMARK    1  A    between atoms: N_2  and  C_3
REMARK    2  A    between atoms: C_3  and  C_4
REMARK    3  A    between atoms: C_4  and  O_6
REMARK    4  A    between atoms: O_6  and  C_7
REMARK    5  A    between atoms: C_7  and  C_8
REMARK    6  A    between atoms: C_16  and  O_18
REMARK    7  A    between atoms: O_18  and  C_19
REMARK    8  A    between atoms: C_19  and  N_21
REMARK    9  A    between atoms: N_24  and  C_25
REMARK   10  A    between atoms: C_25  and  C_26
REMARK   11  A    between atoms: C_26  and  C_28
REMARK   12  A    between atoms: C_26  and  C_36
REMARK   13  A    between atoms: C_36  and  C_38
REMARK   14  A    between atoms: C_40  and  C_41
REMARK   15  A    between atoms: C_44  and  C_45
REMARK                            x       y       z     vdW  Elec       q    Type
REMARK                         _______ _______ _______ _____ _____    ______ ____
ROOT
ATOM      1  C   UNL     1       1.883   5.298  -5.545  0.00  0.00    +0.169 C 
ENDROOT
BRANCH   1   4
ATOM      2  N   UNL     1       3.134   5.553  -2.315  0.00  0.00    -0.091 N 
ATOM      3  C   UNL     1       2.593   6.242  -3.293  0.00  0.00    +0.402 A 
ATOM      4  N   UNL     1       2.644   5.384  -4.346  0.00  0.00    -0.181 N 
ATOM      5  N   UNL     1       3.764   4.679  -4.168  0.00  0.00    -0.092 NA
ATOM      6  C   UNL     1       4.195   4.940  -2.908  0.00  0.00    +0.423 A 
BRANCH   2   7
ATOM      7  C   UNL     1       3.451   6.184  -0.865  0.00  0.00    +0.437 C 
ATOM      8  C   UNL     1       4.657   7.206  -1.475  0.00  0.00    +0.141 C 
BRANCH   7   9
ATOM      9  O   UNL     1       2.355   7.323  -0.994  0.00  0.00    -0.375 OA
BRANCH   9  13
ATOM     10  C   UNL     1       4.111   9.691   1.871  0.00  0.00    +0.053 A 
ATOM     11  C   UNL     1       3.085   8.764   2.020  0.00  0.00    +0.139 A 
ATOM     12  N   UNL     1       2.003   8.671   1.083  0.00  0.00    -0.208 N 
ATOM     13  C   UNL     1       1.785   7.538   0.266  0.00  0.00    +0.414 C 
ATOM     14  O   UNL     1       1.198   6.548   0.801  0.00  0.00    -0.226 OA
ATOM     15  C   UNL     1       1.322   9.936   0.814  0.00  0.00    +0.125 C 
ATOM     16  N   UNL     1       3.372   7.634   2.705  0.00  0.00    -0.229 NA
ATOM     17  C   UNL     1       4.615   7.344   3.141  0.00  0.00    +0.100 A 
ATOM     18  C   UNL     1       5.676   8.127   2.749  0.00  0.00    +0.021 A 
ATOM     19  C   UNL     1       5.437   9.314   2.065  0.00  0.00    +0.004 A 
BRANCH  10  20
ATOM     20  C   UNL     1       3.895  10.681   0.769  0.00  0.00    +0.238 C 
BRANCH  20  21
ATOM     21  O   UNL     1       4.327  11.968   1.094  0.00  0.00    -0.442 OA
BRANCH  21  22
ATOM     22  C   UNL     1       5.192  12.740   0.341  0.00  0.00    +0.335 C 
ATOM     23  O   UNL     1       6.338  12.886   0.813  0.00  0.00    -0.248 OA
BRANCH  22  24
ATOM     24  C   UNL     1       4.700  13.465  -0.851  0.00  0.00    +0.198 C 
BRANCH  24  26
ATOM     25  C   UNL     1       5.708  13.972  -2.859  0.00  0.00    +0.108 C 
ATOM     26  N   UNL     1       5.825  14.023  -1.573  0.00  0.00    -0.205 NA
ENDBRANCH  24  26
ENDBRANCH  22  24
ENDBRANCH  21  22
ENDBRANCH  20  21
ENDBRANCH  10  20
ENDBRANCH   9  13
ENDBRANCH   7   9
ENDBRANCH   2   7
ENDBRANCH   1   4
BRANCH   1  27
ATOM     27  C   UNL     1       1.119   6.499  -5.946  0.00  0.00    +0.176 C 
ATOM     28  O   UNL     1       1.851   7.655  -5.837  0.00  0.00    -0.219 OA
BRANCH  27  29
ATOM     29  C   UNL     1      -0.213   6.674  -5.470  0.00  0.00    +0.037 A 
ATOM     30  C   UNL     1      -1.188   5.783  -5.924  0.00  0.00    +0.139 A 
ATOM     31  F   UNL     1      -0.948   4.936  -6.969  0.00  0.00    -0.204 F 
ATOM     32  C   UNL     1      -2.473   5.786  -5.451  0.00  0.00    +0.032 A 
ATOM     33  C   UNL     1      -2.835   6.659  -4.441  0.00  0.00    +0.032 A 
ATOM     34  C   UNL     1      -1.944   7.684  -4.145  0.00  0.00    +0.140 A 
ATOM     35  F   UNL     1      -2.192   8.388  -3.030  0.00  0.00    -0.204 F 
ATOM     36  C   UNL     1      -0.787   7.806  -4.904  0.00  0.00    +0.030 A 
ENDBRANCH  27  29
BRANCH  27  37
ATOM     37  C   UNL     1       1.117   6.282  -7.589  0.00  0.00    +0.080 C 
ATOM     38  C   UNL     1       2.014   7.659  -7.840  0.00  0.00    +0.010 C 
BRANCH  37  39
ATOM     39  C   UNL     1       2.446   5.335  -7.571  0.00  0.00    +0.091 A 
ATOM     40  S   UNL     1       2.541   3.880  -8.474  0.00  0.00    -0.070 S 
ATOM     41  C   UNL     1       4.188   4.039  -8.940  0.00  0.00    +0.056 A 
ATOM     42  C   UNL     1       4.357   5.409  -8.748  0.00  0.00    +0.088 A 
ATOM     43  N   UNL     1       3.652   5.852  -7.717  0.00  0.00    -0.243 NA
BRANCH  42  44
ATOM     44  C   UNL     1       5.379   6.221  -9.445  0.00  0.00    +0.018 A 
ATOM     45  C   UNL     1       6.709   5.819  -9.472  0.00  0.00    +0.002 A 
ATOM     46  C   UNL     1       7.487   6.058 -10.603  0.00  0.00    +0.010 A 
ATOM     47  C   UNL     1       6.886   6.330 -11.827  0.00  0.00    +0.068 A 
ATOM     48  C   UNL     1       5.658   6.978 -11.741  0.00  0.00    +0.010 A 
ATOM     49  C   UNL     1       4.994   7.017 -10.520  0.00  0.00    +0.002 A 
BRANCH  47  50
ATOM     50  C   UNL     1       7.287   5.667 -13.045  0.00  0.00    +0.100 C 
ATOM     51  N   UNL     1       7.679   5.049 -13.954  0.00  0.00    -0.191 NA
ENDBRANCH  47  50
ENDBRANCH  42  44
ENDBRANCH  37  39
ENDBRANCH  27  37
ENDBRANCH   1  27
TORSDOF 15
ENDMDL
MODEL 3
REMARK VINA RESULT:      -8.7      2.827      4.708
REMARK  Name = 
REMARK  15 active torsions:
REMARK  status: ('A' for Active; 'I' for Inactive)
REMARK    1  A    between atoms: N_2  and  C_3
REMARK    2  A    between atoms: C_3  and  C_4
REMARK    3  A    between atoms: C_4  and  O_6
REMARK    4  A    between atoms: O_6  and  C_7
REMARK    5  A    between atoms: C_7  and  C_8
REMARK    6  A    between atoms: C_16  and  O_18
REMARK    7  A    between atoms: O_18  and  C_19
REMARK    8  A    between atoms: C_19  and  N_21
REMARK    9  A    between atoms: N_24  and  C_25
REMARK   10  A    between atoms: C_25  and  C_26
REMARK   11  A    between atoms: C_26  and  C_28
REMARK   12  A    between atoms: C_26  and  C_36
REMARK   13  A    between atoms: C_36  and  C_38
REMARK   14  A    between atoms: C_40  and  C_41
REMARK   15  A    between atoms: C_44  and  C_45
REMARK                            x       y       z     vdW  Elec       q    Type
REMARK                         _______ _______ _______ _____ _____    ______ ____
ROOT
ATOM      1  C   UNL     1       2.009   5.671  -5.426  0.00  0.00    +0.169 C 
ENDROOT
BRANCH   1   4
ATOM      2  N   UNL     1       3.224   6.759  -2.360  0.00  0.00    -0.091 N 
ATOM      3  C   UNL     1       3.587   6.405  -3.572  0.00  0.00    +0.402 A 
ATOM      4  N   UNL     1       2.456   5.856  -4.088  0.00  0.00    -0.181 N 
ATOM      5  N   UNL     1       1.848   5.269  -3.053  0.00  0.00    -0.092 NA
ATOM      6  C   UNL     1       2.476   5.705  -1.932  0.00  0.00    +0.423 A 
BRANCH   2   7
ATOM      7  C   UNL     1       4.261   7.332  -1.264  0.00  0.00    +0.437 C 
ATOM      8  C   UNL     1       3.713   8.924  -1.448  0.00  0.00    +0.141 C 
BRANCH   7   9
ATOM      9  O   UNL     1       3.280   7.087  -0.042  0.00  0.00    -0.375 OA
BRANCH   9  13
ATOM     10  C   UNL     1       2.969  10.407   2.363  0.00  0.00    +0.053 A 
ATOM     11  C   UNL     1       3.946   9.416   2.372  0.00  0.00    +0.139 A 
ATOM     12  N   UNL     1       3.618   8.025   2.252  0.00  0.00    -0.208 N 
ATOM     13  C   UNL     1       4.005   7.233   1.147  0.00  0.00    +0.414 C 
ATOM     14  O   UNL     1       5.194   6.790   1.146  0.00  0.00    -0.226 OA
ATOM     15  C   UNL     1       2.606   7.556   3.197  0.00  0.00    +0.125 C 
ATOM     16  N   UNL     1       5.184   9.769   1.958  0.00  0.00    -0.229 NA
ATOM     17  C   UNL     1       5.462  10.988   1.452  0.00  0.00    +0.100 A 
ATOM     18  C   UNL     1       4.437  11.866   1.185  0.00  0.00    +0.021 A 
ATOM     19  C   UNL     1       3.148  11.566   1.613  0.00  0.00    +0.004 A 
BRANCH  10  20
ATOM     20  C   UNL     1       1.565   9.891   2.397  0.00  0.00    +0.238 C 
BRANCH  20  21
ATOM     21  O   UNL     1       1.045   9.627   1.130  0.00  0.00    -0.442 OA
BRANCH  21  22
ATOM     22  C   UNL     1      -0.121   8.932   0.867  0.00  0.00    +0.335 C 
ATOM     23  O   UNL     1      -1.181   9.570   1.028  0.00  0.00    -0.248 OA
BRANCH  22  24
ATOM     24  C   UNL     1      -0.076   7.481   0.583  0.00  0.00    +0.198 C 
BRANCH  24  26
ATOM     25  C   UNL     1      -1.053   5.932  -0.815  0.00  0.00    +0.108 C 
ATOM     26  N   UNL     1      -0.884   7.193  -0.583  0.00  0.00    -0.205 NA
ENDBRANCH  24  26
ENDBRANCH  22  24
ENDBRANCH  21  22
ENDBRANCH  20  21
ENDBRANCH  10  20
ENDBRANCH   9  13
ENDBRANCH   7   9
ENDBRANCH   2   7
ENDBRANCH   1   4
BRANCH   1  27
ATOM     27  C   UNL     1       1.058   6.670  -5.963  0.00  0.00    +0.176 C 
ATOM     28  O   UNL     1       1.628   7.909  -6.125  0.00  0.00    -0.219 OA
BRANCH  27  29
ATOM     29  C   UNL     1      -0.250   6.762  -5.406  0.00  0.00    +0.037 A 
ATOM     30  C   UNL     1      -1.139   5.715  -5.657  0.00  0.00    +0.139 A 
ATOM     31  F   UNL     1      -0.868   4.761  -6.598  0.00  0.00    -0.204 F 
ATOM     32  C   UNL     1      -2.381   5.643  -5.085  0.00  0.00    +0.032 A 
ATOM     33  C   UNL     1      -2.778   6.603  -4.173  0.00  0.00    +0.032 A 
ATOM     34  C   UNL     1      -1.999   7.752  -4.088  0.00  0.00    +0.140 A 
ATOM     35  F   UNL     1      -2.255   8.573  -3.060  0.00  0.00    -0.204 F 
ATOM     36  C   UNL     1      -0.918   7.892  -4.949  0.00  0.00    +0.030 A 
ENDBRANCH  27  29
BRANCH  27  37
ATOM     37  C   UNL     1       0.979   6.152  -7.534  0.00  0.00    +0.080 C 
ATOM     38  C   UNL     1       1.776   7.499  -8.091  0.00  0.00    +0.010 C 
BRANCH  37  39
ATOM     39  C   UNL     1       2.361   5.290  -7.430  0.00  0.00    +0.091 A 
ATOM     40  S   UNL     1       2.553   3.777  -8.214  0.00  0.00    -0.070 S 
ATOM     41  C   UNL     1       4.194   3.997  -8.678  0.00  0.00    +0.056 A 
ATOM     42  C   UNL     1       4.280   5.385  -8.593  0.00  0.00    +0.088 A 
ATOM     43  N   UNL     1       3.537   5.865  -7.607  0.00  0.00    -0.243 NA
BRANCH  42  44
ATOM     44  C   UNL     1       5.261   6.200  -9.344  0.00  0.00    +0.018 A 
ATOM     45  C   UNL     1       6.608   5.860  -9.352  0.00  0.00    +0.002 A 
ATOM     46  C   UNL     1       7.372   6.065 -10.499  0.00  0.00    +0.010 A 
ATOM     47  C   UNL     1       6.757   6.231 -11.736  0.00  0.00    +0.068 A 
ATOM     48  C   UNL     1       5.500   6.823 -11.684  0.00  0.00    +0.010 A 
ATOM     49  C   UNL     1       4.837   6.908 -10.465  0.00  0.00    +0.002 A 
BRANCH  47  50
ATOM     50  C   UNL     1       7.188   5.513 -12.911  0.00  0.00    +0.100 C 
ATOM     51  N   UNL     1       7.624   5.026 -13.878  0.00  0.00    -0.191 NA
ENDBRANCH  47  50
ENDBRANCH  42  44
ENDBRANCH  37  39
ENDBRANCH  27  37
ENDBRANCH   1  27
TORSDOF 15
ENDMDL
MODEL 4
REMARK VINA RESULT:      -8.4      2.805      4.456
REMARK  Name = 
REMARK  15 active torsions:
REMARK  status: ('A' for Active; 'I' for Inactive)
REMARK    1  A    between atoms: N_2  and  C_3
REMARK    2  A    between atoms: C_3  and  C_4
REMARK    3  A    between atoms: C_4  and  O_6
REMARK    4  A    between atoms: O_6  and  C_7
REMARK    5  A    between atoms: C_7  and  C_8
REMARK    6  A    between atoms: C_16  and  O_18
REMARK    7  A    between atoms: O_18  and  C_19
REMARK    8  A    between atoms: C_19  and  N_21
REMARK    9  A    between atoms: N_24  and  C_25
REMARK   10  A    between atoms: C_25  and  C_26
REMARK   11  A    between atoms: C_26  and  C_28
REMARK   12  A    between atoms: C_26  and  C_36
REMARK   13  A    between atoms: C_36  and  C_38
REMARK   14  A    between atoms: C_40  and  C_41
REMARK   15  A    between atoms: C_44  and  C_45
REMARK                            x       y       z     vdW  Elec       q    Type
REMARK                         _______ _______ _______ _____ _____    ______ ____
ROOT
ATOM      1  C   UNL     1       2.514   4.764  -5.227  0.00  0.00    +0.169 C 
ENDROOT
BRANCH   1   4
ATOM      2  N   UNL     1       3.437   6.440  -2.329  0.00  0.00    -0.091 N 
ATOM      3  C   UNL     1       3.910   5.769  -3.354  0.00  0.00    +0.402 A 
ATOM      4  N   UNL     1       2.797   5.223  -3.911  0.00  0.00    -0.181 N 
ATOM      5  N   UNL     1       1.981   4.968  -2.884  0.00  0.00    -0.092 NA
ATOM      6  C   UNL     1       2.504   5.600  -1.803  0.00  0.00    +0.423 A 
BRANCH   2   7
ATOM      7  C   UNL     1       4.382   7.158  -1.236  0.00  0.00    +0.437 C 
ATOM      8  C   UNL     1       3.689   8.680  -1.507  0.00  0.00    +0.141 C 
BRANCH   7   9
ATOM      9  O   UNL     1       3.395   6.872  -0.028  0.00  0.00    -0.375 OA
BRANCH   9  13
ATOM     10  C   UNL     1       2.665  10.335   2.064  0.00  0.00    +0.053 A 
ATOM     11  C   UNL     1       3.731   9.451   2.194  0.00  0.00    +0.139 A 
ATOM     12  N   UNL     1       3.544   8.029   2.185  0.00  0.00    -0.208 N 
ATOM     13  C   UNL     1       4.052   7.189   1.167  0.00  0.00    +0.414 C 
ATOM     14  O   UNL     1       5.277   6.869   1.246  0.00  0.00    -0.226 OA
ATOM     15  C   UNL     1       2.542   7.542   3.133  0.00  0.00    +0.125 C 
ATOM     16  N   UNL     1       4.945   9.889   1.793  0.00  0.00    -0.229 NA
ATOM     17  C   UNL     1       5.126  11.083   1.191  0.00  0.00    +0.100 A 
ATOM     18  C   UNL     1       4.033  11.829   0.814  0.00  0.00    +0.021 A 
ATOM     19  C   UNL     1       2.762  11.439   1.223  0.00  0.00    +0.004 A 
BRANCH  10  20
ATOM     20  C   UNL     1       1.316   9.687   2.096  0.00  0.00    +0.238 C 
BRANCH  20  21
ATOM     21  O   UNL     1       0.844   9.338   0.830  0.00  0.00    -0.442 OA
BRANCH  21  22
ATOM     22  C   UNL     1      -0.228   8.503   0.574  0.00  0.00    +0.335 C 
ATOM     23  O   UNL     1      -1.346   9.055   0.527  0.00  0.00    -0.248 OA
BRANCH  22  24
ATOM     24  C   UNL     1      -0.038   7.036   0.534  0.00  0.00    +0.198 C 
BRANCH  24  26
ATOM     25  C   UNL     1      -1.156   5.847  -1.092  0.00  0.00    +0.108 C 
ATOM     26  N   UNL     1      -1.256   6.405   0.070  0.00  0.00    -0.205 NA
ENDBRANCH  24  26
ENDBRANCH  22  24
ENDBRANCH  21  22
ENDBRANCH  20  21
ENDBRANCH  10  20
ENDBRANCH   9  13
ENDBRANCH   7   9
ENDBRANCH   2   7
ENDBRANCH   1   4
BRANCH   1  27
ATOM     27  C   UNL     1       1.723   5.660  -6.099  0.00  0.00    +0.176 C 
ATOM     28  O   UNL     1       2.423   6.774  -6.489  0.00  0.00    -0.219 OA
BRANCH  27  29
ATOM     29  C   UNL     1       0.381   5.981  -5.740  0.00  0.00    +0.037 A 
ATOM     30  C   UNL     1       0.174   7.104  -4.937  0.00  0.00    +0.139 A 
ATOM     31  F   UNL     1       1.213   7.731  -4.307  0.00  0.00    -0.204 F 
ATOM     32  C   UNL     1      -1.074   7.570  -4.622  0.00  0.00    +0.032 A 
ATOM     33  C   UNL     1      -2.194   6.957  -5.152  0.00  0.00    +0.032 A 
ATOM     34  C   UNL     1      -2.007   5.722  -5.762  0.00  0.00    +0.140 A 
ATOM     35  F   UNL     1      -3.044   5.239  -6.462  0.00  0.00    -0.204 F 
ATOM     36  C   UNL     1      -0.738   5.158  -5.756  0.00  0.00    +0.030 A 
ENDBRANCH  27  29
BRANCH  27  37
ATOM     37  C   UNL     1       1.745   4.769  -7.495  0.00  0.00    +0.080 C 
ATOM     38  C   UNL     1       0.655   5.779  -8.238  0.00  0.00    +0.010 C 
BRANCH  37  39
ATOM     39  C   UNL     1       3.021   5.576  -8.114  0.00  0.00    +0.091 A 
ATOM     40  S   UNL     1       4.539   4.821  -8.373  0.00  0.00    -0.070 S 
ATOM     41  C   UNL     1       4.911   5.616  -9.851  0.00  0.00    +0.056 A 
ATOM     42  C   UNL     1       3.632   6.024 -10.228  0.00  0.00    +0.088 A 
ATOM     43  N   UNL     1       2.889   6.345  -9.179  0.00  0.00    -0.243 NA
BRANCH  42  44
ATOM     44  C   UNL     1       3.232   6.302 -11.625  0.00  0.00    +0.018 A 
ATOM     45  C   UNL     1       3.825   5.623 -12.683  0.00  0.00    +0.002 A 
ATOM     46  C   UNL     1       3.071   5.287 -13.806  0.00  0.00    +0.010 A 
ATOM     47  C   UNL     1       1.683   5.261 -13.742  0.00  0.00    +0.068 A 
ATOM     48  C   UNL     1       1.126   6.161 -12.838  0.00  0.00    +0.010 A 
ATOM     49  C   UNL     1       1.941   6.756 -11.882  0.00  0.00    +0.002 A 
BRANCH  47  50
ATOM     50  C   UNL     1       0.909   4.156 -14.254  0.00  0.00    +0.100 C 
ATOM     51  N   UNL     1       0.217   3.350 -14.737  0.00  0.00    -0.191 NA
ENDBRANCH  47  50
ENDBRANCH  42  44
ENDBRANCH  37  39
ENDBRANCH  27  37
ENDBRANCH   1  27
TORSDOF 15
ENDMDL
MODEL 5
REMARK VINA RESULT:      -8.3      3.426      6.058
REMARK  Name = 
REMARK  15 active torsions:
REMARK  status: ('A' for Active; 'I' for Inactive)
REMARK    1  A    between atoms: N_2  and  C_3
REMARK    2  A    between atoms: C_3  and  C_4
REMARK    3  A    between atoms: C_4  and  O_6
REMARK    4  A    between atoms: O_6  and  C_7
REMARK    5  A    between atoms: C_7  and  C_8
REMARK    6  A    between atoms: C_16  and  O_18
REMARK    7  A    between atoms: O_18  and  C_19
REMARK    8  A    between atoms: C_19  and  N_21
REMARK    9  A    between atoms: N_24  and  C_25
REMARK   10  A    between atoms: C_25  and  C_26
REMARK   11  A    between atoms: C_26  and  C_28
REMARK   12  A    between atoms: C_26  and  C_36
REMARK   13  A    between atoms: C_36  and  C_38
REMARK   14  A    between atoms: C_40  and  C_41
REMARK   15  A    between atoms: C_44  and  C_45
REMARK                            x       y       z     vdW  Elec       q    Type
REMARK                         _______ _______ _______ _____ _____    ______ ____
ROOT
ATOM      1  C   UNL     1       0.853   4.893  -5.377  0.00  0.00    +0.169 C 
ENDROOT
BRANCH   1   4
ATOM      2  N   UNL     1       0.901   5.999  -2.085  0.00  0.00    -0.091 N 
ATOM      3  C   UNL     1       1.022   4.931  -2.840  0.00  0.00    +0.402 A 
ATOM      4  N   UNL     1       0.596   5.359  -4.058  0.00  0.00    -0.181 N 
ATOM      5  N   UNL     1      -0.361   6.254  -3.799  0.00  0.00    -0.092 NA
ATOM      6  C   UNL     1      -0.294   6.527  -2.471  0.00  0.00    +0.423 A 
BRANCH   2   7
ATOM      7  C   UNL     1       1.138   5.979  -0.489  0.00  0.00    +0.437 C 
ATOM      8  C   UNL     1       2.750   6.480  -0.634  0.00  0.00    +0.141 C 
BRANCH   7   9
ATOM      9  O   UNL     1       0.644   7.472  -0.283  0.00  0.00    -0.375 OA
BRANCH   9  13
ATOM     10  C   UNL     1       3.446   9.816   1.603  0.00  0.00    +0.053 A 
ATOM     11  C   UNL     1       2.522   8.943   2.168  0.00  0.00    +0.139 A 
ATOM     12  N   UNL     1       1.161   8.882   1.718  0.00  0.00    -0.208 N 
ATOM     13  C   UNL     1       0.606   7.742   1.090  0.00  0.00    +0.414 C 
ATOM     14  O   UNL     1       0.233   6.795   1.847  0.00  0.00    -0.226 OA
ATOM     15  C   UNL     1       0.476  10.172   1.678  0.00  0.00    +0.125 C 
ATOM     16  N   UNL     1       3.007   7.816   2.736  0.00  0.00    -0.229 NA
ATOM     17  C   UNL     1       4.311   7.475   2.677  0.00  0.00    +0.100 A 
ATOM     18  C   UNL     1       5.170   8.197   1.880  0.00  0.00    +0.021 A 
ATOM     19  C   UNL     1       4.731   9.379   1.293  0.00  0.00    +0.004 A 
BRANCH  10  20
ATOM     20  C   UNL     1       2.862  10.790   0.628  0.00  0.00    +0.238 C 
BRANCH  20  21
ATOM     21  O   UNL     1       3.805  11.317  -0.254  0.00  0.00    -0.442 OA
BRANCH  21  22
ATOM     22  C   UNL     1       4.338  12.592  -0.194  0.00  0.00    +0.335 C 
ATOM     23  O   UNL     1       4.648  12.996   0.945  0.00  0.00    -0.248 OA
BRANCH  22  24
ATOM     24  C   UNL     1       4.363  13.447  -1.401  0.00  0.00    +0.198 C 
BRANCH  24  26
ATOM     25  C   UNL     1       5.886  14.389  -2.850  0.00  0.00    +0.108 C 
ATOM     26  N   UNL     1       5.731  13.814  -1.703  0.00  0.00    -0.205 NA
ENDBRANCH  24  26
ENDBRANCH  22  24
ENDBRANCH  21  22
ENDBRANCH  20  21
ENDBRANCH  10  20
ENDBRANCH   9  13
ENDBRANCH   7   9
ENDBRANCH   2   7
ENDBRANCH   1   4
BRANCH   1  27
ATOM     27  C   UNL     1       2.141   5.285  -5.991  0.00  0.00    +0.176 C 
ATOM     28  O   UNL     1       2.600   4.361  -6.897  0.00  0.00    -0.219 OA
BRANCH  27  29
ATOM     29  C   UNL     1       3.192   5.776  -5.162  0.00  0.00    +0.037 A 
ATOM     30  C   UNL     1       4.018   4.840  -4.538  0.00  0.00    +0.139 A 
ATOM     31  F   UNL     1       3.695   3.513  -4.507  0.00  0.00    -0.204 F 
ATOM     32  C   UNL     1       5.123   5.195  -3.811  0.00  0.00    +0.032 A 
ATOM     33  C   UNL     1       5.493   6.524  -3.720  0.00  0.00    +0.032 A 
ATOM     34  C   UNL     1       4.564   7.467  -4.146  0.00  0.00    +0.140 A 
ATOM     35  F   UNL     1       5.003   8.728  -4.263  0.00  0.00    -0.204 F 
ATOM     36  C   UNL     1       3.318   7.031  -4.578  0.00  0.00    +0.030 A 
ENDBRANCH  27  29
BRANCH  27  37
ATOM     37  C   UNL     1       1.605   6.480  -7.005  0.00  0.00    +0.080 C 
ATOM     38  C   UNL     1       3.154   6.966  -7.363  0.00  0.00    +0.010 C 
BRANCH  37  39
ATOM     39  C   UNL     1       1.540   5.494  -8.304  0.00  0.00    +0.091 A 
ATOM     40  S   UNL     1       0.148   5.390  -9.301  0.00  0.00    -0.070 S 
ATOM     41  C   UNL     1       0.983   5.246 -10.798  0.00  0.00    +0.056 A 
ATOM     42  C   UNL     1       2.224   5.759 -10.426  0.00  0.00    +0.088 A 
ATOM     43  N   UNL     1       2.531   5.449  -9.175  0.00  0.00    -0.243 NA
BRANCH  42  44
ATOM     44  C   UNL     1       3.187   6.361 -11.375  0.00  0.00    +0.018 A 
ATOM     45  C   UNL     1       4.301   7.053 -10.915  0.00  0.00    +0.002 A 
ATOM     46  C   UNL     1       5.505   6.979 -11.613  0.00  0.00    +0.010 A 
ATOM     47  C   UNL     1       5.734   5.949 -12.519  0.00  0.00    +0.068 A 
ATOM     48  C   UNL     1       4.592   5.466 -13.150  0.00  0.00    +0.010 A 
ATOM     49  C   UNL     1       3.342   5.790 -12.636  0.00  0.00    +0.002 A 
BRANCH  47  50
ATOM     50  C   UNL     1       6.958   5.183 -12.520  0.00  0.00    +0.100 C 
ATOM     51  N   UNL     1       8.008   4.677 -12.495  0.00  0.00    -0.191 NA
ENDBRANCH  47  50
ENDBRANCH  42  44
ENDBRANCH  37  39
ENDBRANCH  27  37
ENDBRANCH   1  27
TORSDOF 15
ENDMDL
MODEL 6
REMARK VINA RESULT:      -8.3      3.228      5.503
REMARK  Name = 
REMARK  15 active torsions:
REMARK  status: ('A' for Active; 'I' for Inactive)
REMARK    1  A    between atoms: N_2  and  C_3
REMARK    2  A    between atoms: C_3  and  C_4
REMARK    3  A    between atoms: C_4  and  O_6
REMARK    4  A    between atoms: O_6  and  C_7
REMARK    5  A    between atoms: C_7  and  C_8
REMARK    6  A    between atoms: C_16  and  O_18
REMARK    7  A    between atoms: O_18  and  C_19
REMARK    8  A    between atoms: C_19  and  N_21
REMARK    9  A    between atoms: N_24  and  C_25
REMARK   10  A    between atoms: C_25  and  C_26
REMARK   11  A    between atoms: C_26  and  C_28
REMARK   12  A    between atoms: C_26  and  C_36
REMARK   13  A    between atoms: C_36  and  C_38
REMARK   14  A    between atoms: C_40  and  C_41
REMARK   15  A    between atoms: C_44  and  C_45
REMARK                            x       y       z     vdW  Elec       q    Type
REMARK                         _______ _______ _______ _____ _____    ______ ____
ROOT
ATOM      1  C   UNL     1       1.737   4.903  -4.643  0.00  0.00    +0.169 C 
ENDROOT
BRANCH   1   4
ATOM      2  N   UNL     1       3.026   6.718  -1.977  0.00  0.00    -0.091 N 
ATOM      3  C   UNL     1       3.356   5.914  -2.962  0.00  0.00    +0.402 A 
ATOM      4  N   UNL     1       2.157   5.443  -3.395  0.00  0.00    -0.181 N 
ATOM      5  N   UNL     1       1.396   5.364  -2.300  0.00  0.00    -0.092 NA
ATOM      6  C   UNL     1       2.055   6.028  -1.317  0.00  0.00    +0.423 A 
BRANCH   2   7
ATOM      7  C   UNL     1       4.114   7.424  -1.016  0.00  0.00    +0.437 C 
ATOM      8  C   UNL     1       3.648   8.983  -1.488  0.00  0.00    +0.141 C 
BRANCH   7   9
ATOM      9  O   UNL     1       3.146   7.464   0.240  0.00  0.00    -0.375 OA
BRANCH   9  13
ATOM     10  C   UNL     1       3.200  10.673   2.809  0.00  0.00    +0.053 A 
ATOM     11  C   UNL     1       4.092   9.609   2.730  0.00  0.00    +0.139 A 
ATOM     12  N   UNL     1       3.648   8.256   2.559  0.00  0.00    -0.208 N 
ATOM     13  C   UNL     1       3.927   7.493   1.401  0.00  0.00    +0.414 C 
ATOM     14  O   UNL     1       5.075   6.958   1.329  0.00  0.00    -0.226 OA
ATOM     15  C   UNL     1       2.639   7.821   3.523  0.00  0.00    +0.125 C 
ATOM     16  N   UNL     1       5.338   9.883   2.280  0.00  0.00    -0.229 NA
ATOM     17  C   UNL     1       5.694  11.101   1.821  0.00  0.00    +0.100 A 
ATOM     18  C   UNL     1       4.734  12.069   1.641  0.00  0.00    +0.021 A 
ATOM     19  C   UNL     1       3.442  11.851   2.109  0.00  0.00    +0.004 A 
BRANCH  10  20
ATOM     20  C   UNL     1       1.761  10.269   2.880  0.00  0.00    +0.238 C 
BRANCH  20  21
ATOM     21  O   UNL     1       1.116  10.314   1.643  0.00  0.00    -0.442 OA
BRANCH  21  22
ATOM     22  C   UNL     1      -0.113   9.749   1.356  0.00  0.00    +0.335 C 
ATOM     23  O   UNL     1      -1.108  10.382   1.763  0.00  0.00    -0.248 OA
BRANCH  22  24
ATOM     24  C   UNL     1      -0.192   8.400   0.755  0.00  0.00    +0.198 C 
BRANCH  24  26
ATOM     25  C   UNL     1      -1.751   7.058  -0.282  0.00  0.00    +0.108 C 
ATOM     26  N   UNL     1      -1.579   8.059   0.518  0.00  0.00    -0.205 NA
ENDBRANCH  24  26
ENDBRANCH  22  24
ENDBRANCH  21  22
ENDBRANCH  20  21
ENDBRANCH  10  20
ENDBRANCH   9  13
ENDBRANCH   7   9
ENDBRANCH   2   7
ENDBRANCH   1   4
BRANCH   1  27
ATOM     27  C   UNL     1       0.726   5.671  -5.402  0.00  0.00    +0.176 C 
ATOM     28  O   UNL     1       1.271   6.717  -6.105  0.00  0.00    -0.219 OA
BRANCH  27  29
ATOM     29  C   UNL     1      -0.494   6.044  -4.766  0.00  0.00    +0.037 A 
ATOM     30  C   UNL     1      -0.853   7.393  -4.789  0.00  0.00    +0.139 A 
ATOM     31  F   UNL     1       0.032   8.359  -5.177  0.00  0.00    -0.204 F 
ATOM     32  C   UNL     1      -2.051   7.850  -4.308  0.00  0.00    +0.032 A 
ATOM     33  C   UNL     1      -2.988   6.954  -3.825  0.00  0.00    +0.032 A 
ATOM     34  C   UNL     1      -2.556   5.653  -3.596  0.00  0.00    +0.140 A 
ATOM     35  F   UNL     1      -3.508   4.744  -3.341  0.00  0.00    -0.204 F 
ATOM     36  C   UNL     1      -1.218   5.345  -3.808  0.00  0.00    +0.030 A 
ENDBRANCH  27  29
BRANCH  27  37
ATOM     37  C   UNL     1       0.428   4.592  -6.624  0.00  0.00    +0.080 C 
ATOM     38  C   UNL     1      -0.884   5.458  -7.162  0.00  0.00    +0.010 C 
BRANCH  37  39
ATOM     39  C   UNL     1       1.437   5.337  -7.669  0.00  0.00    +0.091 A 
ATOM     40  S   UNL     1       2.798   4.542  -8.344  0.00  0.00    -0.070 S 
ATOM     41  C   UNL     1       2.676   5.232  -9.914  0.00  0.00    +0.056 A 
ATOM     42  C   UNL     1       1.342   5.634  -9.893  0.00  0.00    +0.088 A 
ATOM     43  N   UNL     1       0.968   6.035  -8.687  0.00  0.00    -0.243 NA
BRANCH  42  44
ATOM     44  C   UNL     1       0.516   5.824 -11.106  0.00  0.00    +0.018 A 
ATOM     45  C   UNL     1       0.198   7.099 -11.557  0.00  0.00    +0.002 A 
ATOM     46  C   UNL     1       0.113   7.355 -12.924  0.00  0.00    +0.010 A 
ATOM     47  C   UNL     1       0.705   6.492 -13.841  0.00  0.00    +0.068 A 
ATOM     48  C   UNL     1       0.760   5.163 -13.436  0.00  0.00    +0.010 A 
ATOM     49  C   UNL     1       0.538   4.849 -12.099  0.00  0.00    +0.002 A 
BRANCH  47  50
ATOM     50  C   UNL     1       1.533   6.970 -14.922  0.00  0.00    +0.100 C 
ATOM     51  N   UNL     1       2.116   7.300 -15.877  0.00  0.00    -0.191 NA
ENDBRANCH  47  50
ENDBRANCH  42  44
ENDBRANCH  37  39
ENDBRANCH  27  37
ENDBRANCH   1  27
TORSDOF 15
ENDMDL
MODEL 7
REMARK VINA RESULT:      -8.2      3.493      5.759
REMARK  Name = 
REMARK  15 active torsions:
REMARK  status: ('A' for Active; 'I' for Inactive)
REMARK    1  A    between atoms: N_2  and  C_3
REMARK    2  A    between atoms: C_3  and  C_4
REMARK    3  A    between atoms: C_4  and  O_6
REMARK    4  A    between atoms: O_6  and  C_7
REMARK    5  A    between atoms: C_7  and  C_8
REMARK    6  A    between atoms: C_16  and  O_18
REMARK    7  A    between atoms: O_18  and  C_19
REMARK    8  A    between atoms: C_19  and  N_21
REMARK    9  A    between atoms: N_24  and  C_25
REMARK   10  A    between atoms: C_25  and  C_26
REMARK   11  A    between atoms: C_26  and  C_28
REMARK   12  A    between atoms: C_26  and  C_36
REMARK   13  A    between atoms: C_36  and  C_38
REMARK   14  A    between atoms: C_40  and  C_41
REMARK   15  A    between atoms: C_44  and  C_45
REMARK                            x       y       z     vdW  Elec       q    Type
REMARK                         _______ _______ _______ _____ _____    ______ ____
ROOT
ATOM      1  C   UNL     1       2.157   4.903  -5.296  0.00  0.00    +0.169 C 
ENDROOT
BRANCH   1   4
ATOM      2  N   UNL     1       2.304   6.337  -2.136  0.00  0.00    -0.091 N 
ATOM      3  C   UNL     1       3.032   5.774  -3.073  0.00  0.00    +0.402 A 
ATOM      4  N   UNL     1       2.105   5.250  -3.917  0.00  0.00    -0.181 N 
ATOM      5  N   UNL     1       1.088   4.881  -3.134  0.00  0.00    -0.092 NA
ATOM      6  C   UNL     1       1.316   5.427  -1.913  0.00  0.00    +0.423 A 
BRANCH   2   7
ATOM      7  C   UNL     1       2.935   6.980  -0.798  0.00  0.00    +0.437 C 
ATOM      8  C   UNL     1       3.692   8.233  -1.651  0.00  0.00    +0.141 C 
BRANCH   7   9
ATOM      9  O   UNL     1       1.668   7.887  -0.499  0.00  0.00    -0.375 OA
BRANCH   9  13
ATOM     10  C   UNL     1       3.967   9.849   2.288  0.00  0.00    +0.053 A 
ATOM     11  C   UNL     1       3.034   8.837   2.489  0.00  0.00    +0.139 A 
ATOM     12  N   UNL     1       1.767   8.826   1.817  0.00  0.00    -0.208 N 
ATOM     13  C   UNL     1       1.401   7.838   0.874  0.00  0.00    +0.414 C 
ATOM     14  O   UNL     1       0.987   6.730   1.335  0.00  0.00    -0.226 OA
ATOM     15  C   UNL     1       1.002  10.065   1.945  0.00  0.00    +0.125 C 
ATOM     16  N   UNL     1       3.509   7.630   2.872  0.00  0.00    -0.229 NA
ATOM     17  C   UNL     1       4.829   7.361   2.958  0.00  0.00    +0.100 A 
ATOM     18  C   UNL     1       5.743   8.276   2.490  0.00  0.00    +0.021 A 
ATOM     19  C   UNL     1       5.313   9.542   2.109  0.00  0.00    +0.004 A 
BRANCH  10  20
ATOM     20  C   UNL     1       3.468  10.995   1.465  0.00  0.00    +0.238 C 
BRANCH  20  21
ATOM     21  O   UNL     1       4.258  11.250   0.343  0.00  0.00    -0.442 OA
BRANCH  21  22
ATOM     22  C   UNL     1       4.710  12.494  -0.057  0.00  0.00    +0.335 C 
ATOM     23  O   UNL     1       4.165  12.967  -1.074  0.00  0.00    -0.248 OA
BRANCH  22  24
ATOM     24  C   UNL     1       5.880  13.110   0.606  0.00  0.00    +0.198 C 
BRANCH  24  26
ATOM     25  C   UNL     1       7.936  13.600  -0.309  0.00  0.00    +0.108 C 
ATOM     26  N   UNL     1       6.666  13.829  -0.375  0.00  0.00    -0.205 NA
ENDBRANCH  24  26
ENDBRANCH  22  24
ENDBRANCH  21  22
ENDBRANCH  20  21
ENDBRANCH  10  20
ENDBRANCH   9  13
ENDBRANCH   7   9
ENDBRANCH   2   7
ENDBRANCH   1   4
BRANCH   1  27
ATOM     27  C   UNL     1       1.364   5.732  -6.230  0.00  0.00    +0.176 C 
ATOM     28  O   UNL     1       2.056   6.827  -6.685  0.00  0.00    -0.219 OA
BRANCH  27  29
ATOM     29  C   UNL     1       0.016   6.061  -5.903  0.00  0.00    +0.037 A 
ATOM     30  C   UNL     1      -0.206   7.202  -5.131  0.00  0.00    +0.139 A 
ATOM     31  F   UNL     1       0.820   7.844  -4.497  0.00  0.00    -0.204 F 
ATOM     32  C   UNL     1      -1.460   7.675  -4.850  0.00  0.00    +0.032 A 
ATOM     33  C   UNL     1      -2.571   7.049  -5.387  0.00  0.00    +0.032 A 
ATOM     34  C   UNL     1      -2.372   5.800  -5.964  0.00  0.00    +0.140 A 
ATOM     35  F   UNL     1      -3.395   5.299  -6.672  0.00  0.00    -0.204 F 
ATOM     36  C   UNL     1      -1.103   5.237  -5.921  0.00  0.00    +0.030 A 
ENDBRANCH  27  29
BRANCH  27  37
ATOM     37  C   UNL     1       1.408   4.753  -7.566  0.00  0.00    +0.080 C 
ATOM     38  C   UNL     1       0.347   5.725  -8.398  0.00  0.00    +0.010 C 
BRANCH  37  39
ATOM     39  C   UNL     1       2.708   5.506  -8.204  0.00  0.00    +0.091 A 
ATOM     40  S   UNL     1       4.187   4.686  -8.490  0.00  0.00    -0.070 S 
ATOM     41  C   UNL     1       4.568   5.469  -9.972  0.00  0.00    +0.056 A 
ATOM     42  C   UNL     1       3.303   5.934 -10.327  0.00  0.00    +0.088 A 
ATOM     43  N   UNL     1       2.592   6.284  -9.264  0.00  0.00    -0.243 NA
BRANCH  42  44
ATOM     44  C   UNL     1       2.891   6.234 -11.716  0.00  0.00    +0.018 A 
ATOM     45  C   UNL     1       3.468   5.563 -12.788  0.00  0.00    +0.002 A 
ATOM     46  C   UNL     1       2.700   5.248 -13.908  0.00  0.00    +0.010 A 
ATOM     47  C   UNL     1       1.312   5.236 -13.830  0.00  0.00    +0.068 A 
ATOM     48  C   UNL     1       0.773   6.129 -12.910  0.00  0.00    +0.010 A 
ATOM     49  C   UNL     1       1.603   6.704 -11.954  0.00  0.00    +0.002 A 
BRANCH  47  50
ATOM     50  C   UNL     1       0.522   4.144 -14.349  0.00  0.00    +0.100 C 
ATOM     51  N   UNL     1      -0.074   3.298 -14.887  0.00  0.00    -0.191 NA
ENDBRANCH  47  50
ENDBRANCH  42  44
ENDBRANCH  37  39
ENDBRANCH  27  37
ENDBRANCH   1  27
TORSDOF 15
ENDMDL
MODEL 8
REMARK VINA RESULT:      -8.1      2.469      3.757
REMARK  Name = 
REMARK  15 active torsions:
REMARK  status: ('A' for Active; 'I' for Inactive)
REMARK    1  A    between atoms: N_2  and  C_3
REMARK    2  A    between atoms: C_3  and  C_4
REMARK    3  A    between atoms: C_4  and  O_6
REMARK    4  A    between atoms: O_6  and  C_7
REMARK    5  A    between atoms: C_7  and  C_8
REMARK    6  A    between atoms: C_16  and  O_18
REMARK    7  A    between atoms: O_18  and  C_19
REMARK    8  A    between atoms: C_19  and  N_21
REMARK    9  A    between atoms: N_24  and  C_25
REMARK   10  A    between atoms: C_25  and  C_26
REMARK   11  A    between atoms: C_26  and  C_28
REMARK   12  A    between atoms: C_26  and  C_36
REMARK   13  A    between atoms: C_36  and  C_38
REMARK   14  A    between atoms: C_40  and  C_41
REMARK   15  A    between atoms: C_44  and  C_45
REMARK                            x       y       z     vdW  Elec       q    Type
REMARK                         _______ _______ _______ _____ _____    ______ ____
ROOT
ATOM      1  C   UNL     1       3.473   4.841  -5.745  0.00  0.00    +0.169 C 
ENDROOT
BRANCH   1   4
ATOM      2  N   UNL     1       4.101   6.462  -2.738  0.00  0.00    -0.091 N 
ATOM      3  C   UNL     1       4.613   6.193  -3.918  0.00  0.00    +0.402 A 
ATOM      4  N   UNL     1       3.773   5.248  -4.415  0.00  0.00    -0.181 N 
ATOM      5  N   UNL     1       3.374   4.542  -3.353  0.00  0.00    -0.092 NA
ATOM      6  C   UNL     1       3.762   5.236  -2.254  0.00  0.00    +0.423 A 
BRANCH   2   7
ATOM      7  C   UNL     1       4.823   7.428  -1.666  0.00  0.00    +0.437 C 
ATOM      8  C   UNL     1       3.645   8.635  -1.828  0.00  0.00    +0.141 C 
BRANCH   7   9
ATOM      9  O   UNL     1       4.071   6.796  -0.420  0.00  0.00    -0.375 OA
BRANCH   9  13
ATOM     10  C   UNL     1       2.486   9.981   1.639  0.00  0.00    +0.053 A 
ATOM     11  C   UNL     1       3.753   9.419   1.752  0.00  0.00    +0.139 A 
ATOM     12  N   UNL     1       3.955   7.999   1.770  0.00  0.00    -0.208 N 
ATOM     13  C   UNL     1       4.646   7.304   0.750  0.00  0.00    +0.414 C 
ATOM     14  O   UNL     1       5.914   7.326   0.799  0.00  0.00    -0.226 OA
ATOM     15  C   UNL     1       3.144   7.282   2.752  0.00  0.00    +0.125 C 
ATOM     16  N   UNL     1       4.796  10.157   1.310  0.00  0.00    -0.229 NA
ATOM     17  C   UNL     1       4.635  11.343   0.686  0.00  0.00    +0.100 A 
ATOM     18  C   UNL     1       3.373  11.760   0.329  0.00  0.00    +0.021 A 
ATOM     19  C   UNL     1       2.264  11.052   0.779  0.00  0.00    +0.004 A 
BRANCH  10  20
ATOM     20  C   UNL     1       1.362   8.996   1.719  0.00  0.00    +0.238 C 
BRANCH  20  21
ATOM     21  O   UNL     1       0.400   9.178   0.725  0.00  0.00    -0.442 OA
BRANCH  21  22
ATOM     22  C   UNL     1      -0.259   8.167   0.049  0.00  0.00    +0.335 C 
ATOM     23  O   UNL     1      -1.448   8.400  -0.247  0.00  0.00    -0.248 OA
BRANCH  22  24
ATOM     24  C   UNL     1       0.388   6.850  -0.139  0.00  0.00    +0.198 C 
BRANCH  24  26
ATOM     25  C   UNL     1       0.043   5.200  -1.709  0.00  0.00    +0.108 C 
ATOM     26  N   UNL     1      -0.522   5.961  -0.830  0.00  0.00    -0.205 NA
ENDBRANCH  24  26
ENDBRANCH  22  24
ENDBRANCH  21  22
ENDBRANCH  20  21
ENDBRANCH  10  20
ENDBRANCH   9  13
ENDBRANCH   7   9
ENDBRANCH   2   7
ENDBRANCH   1   4
BRANCH   1  27
ATOM     27  C   UNL     1       2.564   5.708  -6.526  0.00  0.00    +0.176 C 
ATOM     28  O   UNL     1       3.130   6.918  -6.845  0.00  0.00    -0.219 OA
BRANCH  27  29
ATOM     29  C   UNL     1       1.208   5.855  -6.113  0.00  0.00    +0.037 A 
ATOM     30  C   UNL     1       0.906   6.893  -5.229  0.00  0.00    +0.139 A 
ATOM     31  F   UNL     1       1.890   7.587  -4.583  0.00  0.00    -0.204 F 
ATOM     32  C   UNL     1      -0.375   7.197  -4.852  0.00  0.00    +0.032 A 
ATOM     33  C   UNL     1      -1.439   6.501  -5.397  0.00  0.00    +0.032 A 
ATOM     34  C   UNL     1      -1.139   5.337  -6.096  0.00  0.00    +0.140 A 
ATOM     35  F   UNL     1      -2.138   4.790  -6.802  0.00  0.00    -0.204 F 
ATOM     36  C   UNL     1       0.184   4.917  -6.159  0.00  0.00    +0.030 A 
ENDBRANCH  27  29
BRANCH  27  37
ATOM     37  C   UNL     1       2.638   4.931  -7.987  0.00  0.00    +0.080 C 
ATOM     38  C   UNL     1       1.589   6.011  -8.692  0.00  0.00    +0.010 C 
BRANCH  37  39
ATOM     39  C   UNL     1       3.946   5.770  -8.486  0.00  0.00    +0.091 A 
ATOM     40  S   UNL     1       5.527   5.411  -7.925  0.00  0.00    -0.070 S 
ATOM     41  C   UNL     1       6.337   5.683  -9.417  0.00  0.00    +0.056 A 
ATOM     42  C   UNL     1       5.260   5.565 -10.295  0.00  0.00    +0.088 A 
ATOM     43  N   UNL     1       4.140   6.033  -9.765  0.00  0.00    -0.243 NA
BRANCH  42  44
ATOM     44  C   UNL     1       5.394   5.197 -11.722  0.00  0.00    +0.018 A 
ATOM     45  C   UNL     1       4.369   5.459 -12.623  0.00  0.00    +0.002 A 
ATOM     46  C   UNL     1       4.670   5.822 -13.935  0.00  0.00    +0.010 A 
ATOM     47  C   UNL     1       5.934   6.300 -14.262  0.00  0.00    +0.068 A 
ATOM     48  C   UNL     1       6.967   5.794 -13.481  0.00  0.00    +0.010 A 
ATOM     49  C   UNL     1       6.663   5.141 -12.291  0.00  0.00    +0.002 A 
BRANCH  47  50
ATOM     50  C   UNL     1       6.124   7.491 -15.056  0.00  0.00    +0.100 C 
ATOM     51  N   UNL     1       6.153   8.440 -15.734  0.00  0.00    -0.191 NA
ENDBRANCH  47  50
ENDBRANCH  42  44
ENDBRANCH  37  39
ENDBRANCH  27  37
ENDBRANCH   1  27
TORSDOF 15
ENDMDL
MODEL 9
REMARK VINA RESULT:      -7.6      2.877      6.441
REMARK  Name = 
REMARK  15 active torsions:
REMARK  status: ('A' for Active; 'I' for Inactive)
REMARK    1  A    between atoms: N_2  and  C_3
REMARK    2  A    between atoms: C_3  and  C_4
REMARK    3  A    between atoms: C_4  and  O_6
REMARK    4  A    between atoms: O_6  and  C_7
REMARK    5  A    between atoms: C_7  and  C_8
REMARK    6  A    between atoms: C_16  and  O_18
REMARK    7  A    between atoms: O_18  and  C_19
REMARK    8  A    between atoms: C_19  and  N_21
REMARK    9  A    between atoms: N_24  and  C_25
REMARK   10  A    between atoms: C_25  and  C_26
REMARK   11  A    between atoms: C_26  and  C_28
REMARK   12  A    between atoms: C_26  and  C_36
REMARK   13  A    between atoms: C_36  and  C_38
REMARK   14  A    between atoms: C_40  and  C_41
REMARK   15  A    between atoms: C_44  and  C_45
REMARK                            x       y       z     vdW  Elec       q    Type
REMARK                         _______ _______ _______ _____ _____    ______ ____
ROOT
ATOM      1  C   UNL     1       3.549   6.478  -8.513  0.00  0.00    +0.169 C 
ENDROOT
BRANCH   1   4
ATOM      2  N   UNL     1       4.512   6.578  -5.178  0.00  0.00    -0.091 N 
ATOM      3  C   UNL     1       4.318   5.770  -6.195  0.00  0.00    +0.402 A 
ATOM      4  N   UNL     1       3.672   6.554  -7.098  0.00  0.00    -0.181 N 
ATOM      5  N   UNL     1       2.921   7.382  -6.367  0.00  0.00    -0.092 NA
ATOM      6  C   UNL     1       3.335   7.255  -5.081  0.00  0.00    +0.423 A 
BRANCH   2   7
ATOM      7  C   UNL     1       5.118   6.085  -3.766  0.00  0.00    +0.437 C 
ATOM      8  C   UNL     1       6.215   7.373  -3.686  0.00  0.00    +0.141 C 
BRANCH   7   9
ATOM      9  O   UNL     1       4.051   6.879  -2.902  0.00  0.00    -0.375 OA
BRANCH   9  13
ATOM     10  C   UNL     1       3.242   8.419   0.823  0.00  0.00    +0.053 A 
ATOM     11  C   UNL     1       3.486   7.097   0.465  0.00  0.00    +0.139 A 
ATOM     12  N   UNL     1       2.907   6.509  -0.708  0.00  0.00    -0.208 N 
ATOM     13  C   UNL     1       3.674   6.080  -1.816  0.00  0.00    +0.414 C 
ATOM     14  O   UNL     1       4.239   4.948  -1.720  0.00  0.00    -0.226 OA
ATOM     15  C   UNL     1       1.456   6.657  -0.809  0.00  0.00    +0.125 C 
ATOM     16  N   UNL     1       4.648   6.550   0.887  0.00  0.00    -0.229 NA
ATOM     17  C   UNL     1       5.594   7.261   1.535  0.00  0.00    +0.100 A 
ATOM     18  C   UNL     1       5.469   8.627   1.640  0.00  0.00    +0.021 A 
ATOM     19  C   UNL     1       4.284   9.239   1.246  0.00  0.00    +0.004 A 
BRANCH  10  20
ATOM     20  C   UNL     1       2.200   9.102  -0.005  0.00  0.00    +0.238 C 
BRANCH  20  21
ATOM     21  O   UNL     1       1.476  10.061   0.704  0.00  0.00    -0.442 OA
BRANCH  21  22
ATOM     22  C   UNL     1       0.603   9.802   1.745  0.00  0.00    +0.335 C 
ATOM     23  O   UNL     1       0.764  10.495   2.771  0.00  0.00    -0.248 OA
BRANCH  22  24
ATOM     24  C   UNL     1      -0.330   8.657   1.669  0.00  0.00    +0.198 C 
BRANCH  24  26
ATOM     25  C   UNL     1      -1.992   7.837   0.301  0.00  0.00    +0.108 C 
ATOM     26  N   UNL     1      -1.261   8.866   0.579  0.00  0.00    -0.205 NA
ENDBRANCH  24  26
ENDBRANCH  22  24
ENDBRANCH  21  22
ENDBRANCH  20  21
ENDBRANCH  10  20
ENDBRANCH   9  13
ENDBRANCH   7   9
ENDBRANCH   2   7
ENDBRANCH   1   4
BRANCH   1  27
ATOM     27  C   UNL     1       4.454   5.545  -9.219  0.00  0.00    +0.176 C 
ATOM     28  O   UNL     1       5.003   4.604  -8.383  0.00  0.00    -0.219 OA
BRANCH  27  29
ATOM     29  C   UNL     1       5.418   6.061 -10.134  0.00  0.00    +0.037 A 
ATOM     30  C   UNL     1       6.754   6.076  -9.731  0.00  0.00    +0.139 A 
ATOM     31  F   UNL     1       7.109   5.847  -8.431  0.00  0.00    -0.204 F 
ATOM     32  C   UNL     1       7.776   6.445 -10.564  0.00  0.00    +0.032 A 
ATOM     33  C   UNL     1       7.510   6.767 -11.883  0.00  0.00    +0.032 A 
ATOM     34  C   UNL     1       6.177   6.968 -12.226  0.00  0.00    +0.140 A 
ATOM     35  F   UNL     1       5.905   7.061 -13.535  0.00  0.00    -0.204 F 
ATOM     36  C   UNL     1       5.211   6.889 -11.230  0.00  0.00    +0.030 A 
ENDBRANCH  27  29
BRANCH  27  37
ATOM     37  C   UNL     1       3.330   4.633 -10.024  0.00  0.00    +0.080 C 
ATOM     38  C   UNL     1       2.909   3.809  -8.643  0.00  0.00    +0.010 C 
BRANCH  37  39
ATOM     39  C   UNL     1       2.138   5.729  -9.817  0.00  0.00    +0.091 A 
ATOM     40  S   UNL     1       0.832   5.875 -10.919  0.00  0.00    -0.070 S 
ATOM     41  C   UNL     1      -0.388   6.181  -9.746  0.00  0.00    +0.056 A 
ATOM     42  C   UNL     1       0.245   5.679  -8.610  0.00  0.00    +0.088 A 
ATOM     43  N   UNL     1       1.553   5.886  -8.644  0.00  0.00    -0.243 NA
BRANCH  42  44
ATOM     44  C   UNL     1      -0.473   5.199  -7.409  0.00  0.00    +0.018 A 
ATOM     45  C   UNL     1       0.190   5.053  -6.196  0.00  0.00    +0.002 A 
ATOM     46  C   UNL     1      -0.473   5.330  -5.002  0.00  0.00    +0.010 A 
ATOM     47  C   UNL     1      -1.628   6.104  -4.999  0.00  0.00    +0.068 A 
ATOM     48  C   UNL     1      -2.396   6.006  -6.155  0.00  0.00    +0.010 A 
ATOM     49  C   UNL     1      -1.839   5.438  -7.295  0.00  0.00    +0.002 A 
BRANCH  47  50
ATOM     50  C   UNL     1      -1.819   7.198  -4.077  0.00  0.00    +0.100 C 
ATOM     51  N   UNL     1      -2.099   8.050  -3.331  0.00  0.00    -0.191 NA
ENDBRANCH  47  50
ENDBRANCH  42  44
ENDBRANCH  37  39
ENDBRANCH  27  37
ENDBRANCH   1  27
TORSDOF 15
ENDMDL
