MODEL 1
REMARK VINA RESULT:      -7.1      0.000      0.000
REMARK  Name = 
REMARK  6 active torsions:
REMARK  status: ('A' for Active; 'I' for Inactive)
REMARK    1  A    between atoms: N_2  and  C_4
REMARK    2  A    between atoms: C_4  and  C_5
REMARK    3  A    between atoms: C_5  and  O_6
REMARK    4  A    between atoms: O_6  and  C_7
REMARK    5  A    between atoms: C_7  and  C_9
REMARK    6  A    between atoms: C_7  and  C_15
REMARK                            x       y       z     vdW  Elec       q    Type
REMARK                         _______ _______ _______ _____ _____    ______ ____
ROOT
ATOM      1  C   UNL     1       1.340   6.063  -6.592  0.00  0.00    +0.146 C 
ATOM      2  C   UNL     1       1.503   7.117  -7.656  0.00  0.00    +0.040 C 
ENDROOT
BRANCH   1   3
ATOM      3  C   UNL     1       0.029   6.220  -5.930  0.00  0.00    +0.007 A 
ATOM      4  C   UNL     1      -0.197   7.232  -5.022  0.00  0.00    -0.002 A 
ATOM      5  C   UNL     1      -1.473   7.595  -4.664  0.00  0.00    -0.000 A 
ATOM      6  C   UNL     1      -2.530   7.092  -5.400  0.00  0.00    -0.000 A 
ATOM      7  C   UNL     1      -2.324   5.932  -6.123  0.00  0.00    -0.000 A 
ATOM      8  C   UNL     1      -1.042   5.458  -6.369  0.00  0.00    -0.002 A 
ENDBRANCH   1   3
BRANCH   1   9
ATOM      9  C   UNL     1       2.453   6.182  -5.628  0.00  0.00    +0.087 A 
ATOM     10  N   UNL     1       3.303   7.232  -5.669  0.00  0.00    -0.246 NA
ATOM     11  C   UNL     1       4.352   7.284  -4.843  0.00  0.00    +0.099 A 
ATOM     12  C   UNL     1       4.825   6.127  -4.240  0.00  0.00    +0.021 A 
ATOM     13  C   UNL     1       4.090   4.966  -4.386  0.00  0.00    +0.003 A 
ATOM     14  C   UNL     1       2.826   5.027  -4.954  0.00  0.00    +0.017 A 
ENDBRANCH   1   9
BRANCH   1  15
ATOM     15  O   UNL     1       1.401   4.823  -7.209  0.00  0.00    -0.347 OA
BRANCH  15  16
ATOM     16  C   UNL     1       1.878   4.936  -8.515  0.00  0.00    +0.160 C 
BRANCH  16  17
ATOM     17  C   UNL     1       2.994   3.938  -8.672  0.00  0.00    +0.105 C 
BRANCH  17  19
ATOM     18  C   UNL     1       3.789   5.398 -10.356  0.00  0.00    +0.090 C 
ATOM     19  N   UNL     1       4.181   4.520  -9.280  0.00  0.00    -0.268 NA
ATOM     20  C   UNL     1       4.926   5.227  -8.246  0.00  0.00    +0.090 C 
ENDBRANCH  17  19
ENDBRANCH  16  17
ENDBRANCH  15  16
ENDBRANCH   1  15
TORSDOF 6
ENDMDL
MODEL 2
REMARK VINA RESULT:      -6.8      1.241      1.593
REMARK  Name = 
REMARK  6 active torsions:
REMARK  status: ('A' for Active; 'I' for Inactive)
REMARK    1  A    between atoms: N_2  and  C_4
REMARK    2  A    between atoms: C_4  and  C_5
REMARK    3  A    between atoms: C_5  and  O_6
REMARK    4  A    between atoms: O_6  and  C_7
REMARK    5  A    between atoms: C_7  and  C_9
REMARK    6  A    between atoms: C_7  and  C_15
REMARK                            x       y       z     vdW  Elec       q    Type
REMARK                         _______ _______ _______ _____ _____    ______ ____
ROOT
ATOM      1  C   UNL     1       1.618   6.279  -6.667  0.00  0.00    +0.146 C 
ATOM      2  C   UNL     1       1.752   7.521  -7.508  0.00  0.00    +0.040 C 
ENDROOT
BRANCH   1   3
ATOM      3  C   UNL     1       0.269   6.225  -6.067  0.00  0.00    +0.007 A 
ATOM      4  C   UNL     1      -0.132   7.149  -5.126  0.00  0.00    -0.002 A 
ATOM      5  C   UNL     1      -1.460   7.319  -4.818  0.00  0.00    -0.000 A 
ATOM      6  C   UNL     1      -2.405   6.718  -5.629  0.00  0.00    -0.000 A 
ATOM      7  C   UNL     1      -2.012   5.636  -6.393  0.00  0.00    -0.000 A 
ATOM      8  C   UNL     1      -0.667   5.350  -6.595  0.00  0.00    -0.002 A 
ENDBRANCH   1   3
BRANCH   1   9
ATOM      9  C   UNL     1       2.673   6.288  -5.633  0.00  0.00    +0.087 A 
ATOM     10  N   UNL     1       3.533   7.324  -5.522  0.00  0.00    -0.246 NA
ATOM     11  C   UNL     1       4.533   7.281  -4.635  0.00  0.00    +0.099 A 
ATOM     12  C   UNL     1       4.958   6.064  -4.121  0.00  0.00    +0.021 A 
ATOM     13  C   UNL     1       4.222   4.933  -4.422  0.00  0.00    +0.003 A 
ATOM     14  C   UNL     1       2.994   5.068  -5.054  0.00  0.00    +0.017 A 
ENDBRANCH   1   9
BRANCH   1  15
ATOM     15  O   UNL     1       1.800   5.183  -7.495  0.00  0.00    -0.347 OA
BRANCH  15  16
ATOM     16  C   UNL     1       2.248   5.576  -8.756  0.00  0.00    +0.160 C 
BRANCH  16  17
ATOM     17  C   UNL     1       1.471   4.786  -9.775  0.00  0.00    +0.105 C 
BRANCH  17  19
ATOM     18  C   UNL     1       0.207   6.536 -10.745  0.00  0.00    +0.090 C 
ATOM     19  N   UNL     1       1.223   5.541 -10.994  0.00  0.00    -0.268 NA
ATOM     20  C   UNL     1       2.478   6.142 -11.426  0.00  0.00    +0.090 C 
ENDBRANCH  17  19
ENDBRANCH  16  17
ENDBRANCH  15  16
ENDBRANCH   1  15
TORSDOF 6
ENDMDL
MODEL 3
REMARK VINA RESULT:      -6.7      2.133      6.341
REMARK  Name = 
REMARK  6 active torsions:
REMARK  status: ('A' for Active; 'I' for Inactive)
REMARK    1  A    between atoms: N_2  and  C_4
REMARK    2  A    between atoms: C_4  and  C_5
REMARK    3  A    between atoms: C_5  and  O_6
REMARK    4  A    between atoms: O_6  and  C_7
REMARK    5  A    between atoms: C_7  and  C_9
REMARK    6  A    between atoms: C_7  and  C_15
REMARK                            x       y       z     vdW  Elec       q    Type
REMARK                         _______ _______ _______ _____ _____    ______ ____
ROOT
ATOM      1  C   UNL     1       2.863   6.066  -8.447  0.00  0.00    +0.146 C 
ATOM      2  C   UNL     1       2.709   7.446  -7.864  0.00  0.00    +0.040 C 
ENDROOT
BRANCH   1   3
ATOM      3  C   UNL     1       4.118   5.988  -9.222  0.00  0.00    +0.007 A 
ATOM      4  C   UNL     1       4.341   6.813 -10.305  0.00  0.00    -0.002 A 
ATOM      5  C   UNL     1       5.605   6.990 -10.814  0.00  0.00    -0.000 A 
ATOM      6  C   UNL     1       6.680   6.518 -10.085  0.00  0.00    -0.000 A 
ATOM      7  C   UNL     1       6.448   5.517  -9.160  0.00  0.00    -0.000 A 
ATOM      8  C   UNL     1       5.160   5.212  -8.740  0.00  0.00    -0.002 A 
ENDBRANCH   1   3
BRANCH   1   9
ATOM      9  C   UNL     1       1.686   5.770  -9.288  0.00  0.00    +0.087 A 
ATOM     10  N   UNL     1       1.535   4.563  -9.877  0.00  0.00    -0.246 NA
ATOM     11  C   UNL     1       0.506   4.336 -10.700  0.00  0.00    +0.099 A 
ATOM     12  C   UNL     1      -0.170   5.399 -11.282  0.00  0.00    +0.021 A 
ATOM     13  C   UNL     1       0.140   6.679 -10.864  0.00  0.00    +0.003 A 
ATOM     14  C   UNL     1       0.961   6.856  -9.760  0.00  0.00    +0.017 A 
ENDBRANCH   1   9
BRANCH   1  15
ATOM     15  O   UNL     1       2.912   5.163  -7.397  0.00  0.00    -0.347 OA
BRANCH  15  16
ATOM     16  C   UNL     1       2.292   5.682  -6.260  0.00  0.00    +0.160 C 
BRANCH  16  17
ATOM     17  C   UNL     1       1.251   4.687  -5.823  0.00  0.00    +0.105 C 
BRANCH  17  19
ATOM     18  C   UNL     1       0.152   6.688  -5.199  0.00  0.00    +0.090 C 
ATOM     19  N   UNL     1      -0.042   5.307  -5.571  0.00  0.00    -0.268 NA
ATOM     20  C   UNL     1      -0.855   5.177  -6.774  0.00  0.00    +0.090 C 
ENDBRANCH  17  19
ENDBRANCH  16  17
ENDBRANCH  15  16
ENDBRANCH   1  15
TORSDOF 6
ENDMDL
MODEL 4
REMARK VINA RESULT:      -6.5      1.445      4.193
REMARK  Name = 
REMARK  6 active torsions:
REMARK  status: ('A' for Active; 'I' for Inactive)
REMARK    1  A    between atoms: N_2  and  C_4
REMARK    2  A    between atoms: C_4  and  C_5
REMARK    3  A    between atoms: C_5  and  O_6
REMARK    4  A    between atoms: O_6  and  C_7
REMARK    5  A    between atoms: C_7  and  C_9
REMARK    6  A    between atoms: C_7  and  C_15
REMARK                            x       y       z     vdW  Elec       q    Type
REMARK                         _______ _______ _______ _____ _____    ______ ____
ROOT
ATOM      1  C   UNL     1       1.353   5.707  -6.214  0.00  0.00    +0.146 C 
ATOM      2  C   UNL     1       1.387   4.251  -5.830  0.00  0.00    +0.040 C 
ENDROOT
BRANCH   1   3
ATOM      3  C   UNL     1      -0.023   6.228  -6.078  0.00  0.00    +0.007 A 
ATOM      4  C   UNL     1      -1.092   5.583  -6.664  0.00  0.00    -0.002 A 
ATOM      5  C   UNL     1      -2.382   5.849  -6.274  0.00  0.00    -0.000 A 
ATOM      6  C   UNL     1      -2.582   6.598  -5.130  0.00  0.00    -0.000 A 
ATOM      7  C   UNL     1      -1.554   7.416  -4.701  0.00  0.00    -0.000 A 
ATOM      8  C   UNL     1      -0.265   7.268  -5.195  0.00  0.00    -0.002 A 
ENDBRANCH   1   3
BRANCH   1   9
ATOM      9  C   UNL     1       1.853   5.848  -7.596  0.00  0.00    +0.087 A 
ATOM     10  N   UNL     1       2.157   4.763  -8.343  0.00  0.00    -0.246 NA
ATOM     11  C   UNL     1       2.685   4.907  -9.563  0.00  0.00    +0.099 A 
ATOM     12  C   UNL     1       3.302   6.098  -9.919  0.00  0.00    +0.021 A 
ATOM     13  C   UNL     1       3.210   7.168  -9.051  0.00  0.00    +0.003 A 
ATOM     14  C   UNL     1       2.359   7.089  -7.958  0.00  0.00    +0.017 A 
ENDBRANCH   1   9
BRANCH   1  15
ATOM     15  O   UNL     1       2.194   6.394  -5.353  0.00  0.00    -0.347 OA
BRANCH  15  16
ATOM     16  C   UNL     1       3.060   5.520  -4.695  0.00  0.00    +0.160 C 
BRANCH  16  17
ATOM     17  C   UNL     1       3.480   6.186  -3.412  0.00  0.00    +0.105 C 
BRANCH  17  19
ATOM     18  C   UNL     1       3.866   8.266  -2.352  0.00  0.00    +0.090 C 
ATOM     19  N   UNL     1       3.906   7.563  -3.612  0.00  0.00    -0.268 NA
ATOM     20  C   UNL     1       5.246   7.551  -4.185  0.00  0.00    +0.090 C 
ENDBRANCH  17  19
ENDBRANCH  16  17
ENDBRANCH  15  16
ENDBRANCH   1  15
TORSDOF 6
ENDMDL
MODEL 5
REMARK VINA RESULT:      -6.4      1.448      4.473
REMARK  Name = 
REMARK  6 active torsions:
REMARK  status: ('A' for Active; 'I' for Inactive)
REMARK    1  A    between atoms: N_2  and  C_4
REMARK    2  A    between atoms: C_4  and  C_5
REMARK    3  A    between atoms: C_5  and  O_6
REMARK    4  A    between atoms: O_6  and  C_7
REMARK    5  A    between atoms: C_7  and  C_9
REMARK    6  A    between atoms: C_7  and  C_15
REMARK                            x       y       z     vdW  Elec       q    Type
REMARK                         _______ _______ _______ _____ _____    ______ ____
ROOT
ATOM      1  C   UNL     1       1.833   5.102  -6.336  0.00  0.00    +0.146 C 
ATOM      2  C   UNL     1       1.920   3.599  -6.370  0.00  0.00    +0.040 C 
ENDROOT
BRANCH   1   3
ATOM      3  C   UNL     1       2.827   5.638  -5.384  0.00  0.00    +0.007 A 
ATOM      4  C   UNL     1       3.567   4.801  -4.576  0.00  0.00    -0.002 A 
ATOM      5  C   UNL     1       4.706   5.243  -3.949  0.00  0.00    -0.000 A 
ATOM      6  C   UNL     1       5.231   6.466  -4.323  0.00  0.00    -0.000 A 
ATOM      7  C   UNL     1       4.387   7.376  -4.931  0.00  0.00    -0.000 A 
ATOM      8  C   UNL     1       3.155   6.984  -5.439  0.00  0.00    -0.002 A 
ENDBRANCH   1   3
BRANCH   1   9
ATOM      9  C   UNL     1       0.459   5.493  -5.966  0.00  0.00    +0.087 A 
ATOM     10  N   UNL     1       0.037   5.430  -4.683  0.00  0.00    -0.246 NA
ATOM     11  C   UNL     1      -1.234   5.710  -4.375  0.00  0.00    +0.099 A 
ATOM     12  C   UNL     1      -2.216   5.663  -5.354  0.00  0.00    +0.021 A 
ATOM     13  C   UNL     1      -1.824   5.485  -6.667  0.00  0.00    +0.003 A 
ATOM     14  C   UNL     1      -0.476   5.550  -6.990  0.00  0.00    +0.017 A 
ENDBRANCH   1   9
BRANCH   1  15
ATOM     15  O   UNL     1       2.114   5.573  -7.610  0.00  0.00    -0.347 OA
BRANCH  15  16
ATOM     16  C   UNL     1       2.726   4.587  -8.385  0.00  0.00    +0.160 C 
BRANCH  16  17
ATOM     17  C   UNL     1       3.334   5.270  -9.580  0.00  0.00    +0.105 C 
BRANCH  17  19
ATOM     18  C   UNL     1       5.454   5.309  -8.531  0.00  0.00    +0.090 C 
ATOM     19  N   UNL     1       4.472   6.105  -9.227  0.00  0.00    -0.268 NA
ATOM     20  C   UNL     1       5.012   6.687 -10.449  0.00  0.00    +0.090 C 
ENDBRANCH  17  19
ENDBRANCH  16  17
ENDBRANCH  15  16
ENDBRANCH   1  15
TORSDOF 6
ENDMDL
MODEL 6
REMARK VINA RESULT:      -6.3      1.497      4.333
REMARK  Name = 
REMARK  6 active torsions:
REMARK  status: ('A' for Active; 'I' for Inactive)
REMARK    1  A    between atoms: N_2  and  C_4
REMARK    2  A    between atoms: C_4  and  C_5
REMARK    3  A    between atoms: C_5  and  O_6
REMARK    4  A    between atoms: O_6  and  C_7
REMARK    5  A    between atoms: C_7  and  C_9
REMARK    6  A    between atoms: C_7  and  C_15
REMARK                            x       y       z     vdW  Elec       q    Type
REMARK                         _______ _______ _______ _____ _____    ______ ____
ROOT
ATOM      1  C   UNL     1       1.476   5.655  -5.847  0.00  0.00    +0.146 C 
ATOM      2  C   UNL     1       1.216   4.189  -6.077  0.00  0.00    +0.040 C 
ENDROOT
BRANCH   1   3
ATOM      3  C   UNL     1       2.877   5.853  -5.420  0.00  0.00    +0.007 A 
ATOM      4  C   UNL     1       3.438   7.111  -5.374  0.00  0.00    -0.002 A 
ATOM      5  C   UNL     1       4.595   7.347  -4.672  0.00  0.00    -0.000 A 
ATOM      6  C   UNL     1       5.062   6.362  -3.822  0.00  0.00    -0.000 A 
ATOM      7  C   UNL     1       4.650   5.062  -4.047  0.00  0.00    -0.000 A 
ATOM      8  C   UNL     1       3.573   4.784  -4.878  0.00  0.00    -0.002 A 
ENDBRANCH   1   3
BRANCH   1   9
ATOM      9  C   UNL     1       0.524   6.155  -4.836  0.00  0.00    +0.087 A 
ATOM     10  N   UNL     1       0.165   5.395  -3.777  0.00  0.00    -0.246 NA
ATOM     11  C   UNL     1      -0.759   5.829  -2.915  0.00  0.00    +0.099 A 
ATOM     12  C   UNL     1      -1.644   6.832  -3.286  0.00  0.00    +0.021 A 
ATOM     13  C   UNL     1      -1.438   7.473  -4.493  0.00  0.00    +0.003 A 
ATOM     14  C   UNL     1      -0.267   7.237  -5.199  0.00  0.00    +0.017 A 
ENDBRANCH   1   9
BRANCH   1  15
ATOM     15  O   UNL     1       1.261   6.319  -7.045  0.00  0.00    -0.347 OA
BRANCH  15  16
ATOM     16  C   UNL     1       1.295   5.433  -8.122  0.00  0.00    +0.160 C 
BRANCH  16  17
ATOM     17  C   UNL     1       2.151   6.058  -9.190  0.00  0.00    +0.105 C 
BRANCH  17  19
ATOM     18  C   UNL     1       3.863   4.441  -8.953  0.00  0.00    +0.090 C 
ATOM     19  N   UNL     1       3.573   5.855  -8.955  0.00  0.00    -0.268 NA
ATOM     20  C   UNL     1       4.315   6.560  -9.993  0.00  0.00    +0.090 C 
ENDBRANCH  17  19
ENDBRANCH  16  17
ENDBRANCH  15  16
ENDBRANCH   1  15
TORSDOF 6
ENDMDL
MODEL 7
REMARK VINA RESULT:      -6.2      1.775      4.491
REMARK  Name = 
REMARK  6 active torsions:
REMARK  status: ('A' for Active; 'I' for Inactive)
REMARK    1  A    between atoms: N_2  and  C_4
REMARK    2  A    between atoms: C_4  and  C_5
REMARK    3  A    between atoms: C_5  and  O_6
REMARK    4  A    between atoms: O_6  and  C_7
REMARK    5  A    between atoms: C_7  and  C_9
REMARK    6  A    between atoms: C_7  and  C_15
REMARK                            x       y       z     vdW  Elec       q    Type
REMARK                         _______ _______ _______ _____ _____    ______ ____
ROOT
ATOM      1  C   UNL     1       2.107   5.139  -6.485  0.00  0.00    +0.146 C 
ATOM      2  C   UNL     1       2.152   3.636  -6.574  0.00  0.00    +0.040 C 
ENDROOT
BRANCH   1   3
ATOM      3  C   UNL     1       3.256   5.628  -5.697  0.00  0.00    +0.007 A 
ATOM      4  C   UNL     1       3.547   6.973  -5.618  0.00  0.00    -0.002 A 
ATOM      5  C   UNL     1       4.379   7.465  -4.642  0.00  0.00    -0.000 A 
ATOM      6  C   UNL     1       4.734   6.630  -3.598  0.00  0.00    -0.000 A 
ATOM      7  C   UNL     1       4.644   5.265  -3.799  0.00  0.00    -0.000 A 
ATOM      8  C   UNL     1       3.934   4.743  -4.873  0.00  0.00    -0.002 A 
ENDBRANCH   1   3
BRANCH   1   9
ATOM      9  C   UNL     1       0.822   5.543  -5.882  0.00  0.00    +0.087 A 
ATOM     10  N   UNL     1       0.568   5.331  -4.572  0.00  0.00    -0.246 NA
ATOM     11  C   UNL     1      -0.629   5.628  -4.058  0.00  0.00    +0.099 A 
ATOM     12  C   UNL     1      -1.733   5.759  -4.889  0.00  0.00    +0.021 A 
ATOM     13  C   UNL     1      -1.529   5.739  -6.256  0.00  0.00    +0.003 A 
ATOM     14  C   UNL     1      -0.234   5.780  -6.752  0.00  0.00    +0.017 A 
ENDBRANCH   1   9
BRANCH   1  15
ATOM     15  O   UNL     1       2.184   5.643  -7.775  0.00  0.00    -0.347 OA
BRANCH  15  16
ATOM     16  C   UNL     1       2.720   4.699  -8.651  0.00  0.00    +0.160 C 
BRANCH  16  17
ATOM     17  C   UNL     1       2.503   5.210 -10.049  0.00  0.00    +0.105 C 
BRANCH  17  19
ATOM     18  C   UNL     1       1.081   6.565 -11.370  0.00  0.00    +0.090 C 
ATOM     19  N   UNL     1       1.124   5.608 -10.289  0.00  0.00    -0.268 NA
ATOM     20  C   UNL     1       0.346   4.413 -10.591  0.00  0.00    +0.090 C 
ENDBRANCH  17  19
ENDBRANCH  16  17
ENDBRANCH  15  16
ENDBRANCH   1  15
TORSDOF 6
ENDMDL
MODEL 8
REMARK VINA RESULT:      -6.2      1.628      5.118
REMARK  Name = 
REMARK  6 active torsions:
REMARK  status: ('A' for Active; 'I' for Inactive)
REMARK    1  A    between atoms: N_2  and  C_4
REMARK    2  A    between atoms: C_4  and  C_5
REMARK    3  A    between atoms: C_5  and  O_6
REMARK    4  A    between atoms: O_6  and  C_7
REMARK    5  A    between atoms: C_7  and  C_9
REMARK    6  A    between atoms: C_7  and  C_15
REMARK                            x       y       z     vdW  Elec       q    Type
REMARK                         _______ _______ _______ _____ _____    ______ ____
ROOT
ATOM      1  C   UNL     1       3.161   6.147  -7.047  0.00  0.00    +0.146 C 
ATOM      2  C   UNL     1       2.397   7.440  -7.170  0.00  0.00    +0.040 C 
ENDROOT
BRANCH   1   3
ATOM      3  C   UNL     1       3.957   6.153  -5.803  0.00  0.00    +0.007 A 
ATOM      4  C   UNL     1       4.322   7.335  -5.195  0.00  0.00    -0.002 A 
ATOM      5  C   UNL     1       4.755   7.359  -3.891  0.00  0.00    -0.000 A 
ATOM      6  C   UNL     1       4.597   6.219  -3.124  0.00  0.00    -0.000 A 
ATOM      7  C   UNL     1       4.461   5.010  -3.779  0.00  0.00    -0.000 A 
ATOM      8  C   UNL     1       4.175   4.957  -5.138  0.00  0.00    -0.002 A 
ENDBRANCH   1   3
BRANCH   1   9
ATOM      9  C   UNL     1       4.017   5.984  -8.239  0.00  0.00    +0.087 A 
ATOM     10  N   UNL     1       5.268   5.484  -8.137  0.00  0.00    -0.246 NA
ATOM     11  C   UNL     1       6.060   5.417  -9.212  0.00  0.00    +0.099 A 
ATOM     12  C   UNL     1       5.796   6.206 -10.323  0.00  0.00    +0.021 A 
ATOM     13  C   UNL     1       4.617   6.926 -10.349  0.00  0.00    +0.003 A 
ATOM     14  C   UNL     1       3.658   6.699  -9.374  0.00  0.00    +0.017 A 
ENDBRANCH   1   9
BRANCH   1  15
ATOM     15  O   UNL     1       2.240   5.112  -7.002  0.00  0.00    -0.347 OA
BRANCH  15  16
ATOM     16  C   UNL     1       0.937   5.603  -6.911  0.00  0.00    +0.160 C 
BRANCH  16  17
ATOM     17  C   UNL     1       0.198   4.737  -5.927  0.00  0.00    +0.105 C 
BRANCH  17  19
ATOM     18  C   UNL     1       0.764   5.530  -3.771  0.00  0.00    +0.090 C 
ATOM     19  N   UNL     1      -0.275   5.484  -4.772  0.00  0.00    -0.268 NA
ATOM     20  C   UNL     1      -0.663   6.817  -5.214  0.00  0.00    +0.090 C 
ENDBRANCH  17  19
ENDBRANCH  16  17
ENDBRANCH  15  16
ENDBRANCH   1  15
TORSDOF 6
ENDMDL
MODEL 9
REMARK VINA RESULT:      -6.1      1.441      1.968
REMARK  Name = 
REMARK  6 active torsions:
REMARK  status: ('A' for Active; 'I' for Inactive)
REMARK    1  A    between atoms: N_2  and  C_4
REMARK    2  A    between atoms: C_4  and  C_5
REMARK    3  A    between atoms: C_5  and  O_6
REMARK    4  A    between atoms: O_6  and  C_7
REMARK    5  A    between atoms: C_7  and  C_9
REMARK    6  A    between atoms: C_7  and  C_15
REMARK                            x       y       z     vdW  Elec       q    Type
REMARK                         _______ _______ _______ _____ _____    ______ ____
ROOT
ATOM      1  C   UNL     1       1.398   6.104  -6.003  0.00  0.00    +0.146 C 
ATOM      2  C   UNL     1       2.118   7.117  -6.854  0.00  0.00    +0.040 C 
ENDROOT
BRANCH   1   3
ATOM      3  C   UNL     1      -0.038   6.442  -5.931  0.00  0.00    +0.007 A 
ATOM      4  C   UNL     1      -0.997   5.598  -6.448  0.00  0.00    -0.002 A 
ATOM      5  C   UNL     1      -2.320   5.724  -6.096  0.00  0.00    -0.000 A 
ATOM      6  C   UNL     1      -2.642   6.556  -5.040  0.00  0.00    -0.000 A 
ATOM      7  C   UNL     1      -1.744   7.548  -4.696  0.00  0.00    -0.000 A 
ATOM      8  C   UNL     1      -0.436   7.527  -5.166  0.00  0.00    -0.002 A 
ENDBRANCH   1   3
BRANCH   1   9
ATOM      9  C   UNL     1       2.019   6.077  -4.664  0.00  0.00    +0.087 A 
ATOM     10  N   UNL     1       1.440   5.414  -3.639  0.00  0.00    -0.246 NA
ATOM     11  C   UNL     1       1.971   5.466  -2.413  0.00  0.00    +0.099 A 
ATOM     12  C   UNL     1       2.845   6.489  -2.074  0.00  0.00    +0.021 A 
ATOM     13  C   UNL     1       3.273   7.342  -3.074  0.00  0.00    +0.003 A 
ATOM     14  C   UNL     1       2.977   7.045  -4.396  0.00  0.00    +0.017 A 
ENDBRANCH   1   9
BRANCH   1  15
ATOM     15  O   UNL     1       1.550   4.862  -6.601  0.00  0.00    -0.347 OA
BRANCH  15  16
ATOM     16  C   UNL     1       2.857   4.679  -7.053  0.00  0.00    +0.160 C 
BRANCH  16  17
ATOM     17  C   UNL     1       2.781   3.932  -8.356  0.00  0.00    +0.105 C 
BRANCH  17  19
ATOM     18  C   UNL     1       3.024   5.443 -10.161  0.00  0.00    +0.090 C 
ATOM     19  N   UNL     1       3.701   4.456  -9.354  0.00  0.00    -0.268 NA
ATOM     20  C   UNL     1       4.856   5.017  -8.665  0.00  0.00    +0.090 C 
ENDBRANCH  17  19
ENDBRANCH  16  17
ENDBRANCH  15  16
ENDBRANCH   1  15
TORSDOF 6
ENDMDL
