MODEL 1
REMARK VINA RESULT:      -7.0      0.000      0.000
REMARK  Name = 
REMARK  4 active torsions:
REMARK  status: ('A' for Active; 'I' for Inactive)
REMARK    1  A    between atoms: C_2  and  C_3
REMARK    2  A    between atoms: C_3  and  N_4
REMARK    3  A    between atoms: C_9  and  C_10
REMARK    4  A    between atoms: N_12  and  C_13
REMARK                            x       y       z     vdW  Elec       q    Type
REMARK                         _______ _______ _______ _____ _____    ______ ____
ROOT
ATOM      1  C   UNL     1       1.584   6.157  -3.495  0.00  0.00    +0.260 C 
ATOM      2  N   UNL     1       0.965   6.788  -4.590  0.00  0.00    -0.179 NA
ATOM      3  O   UNL     1       0.826   5.433  -2.782  0.00  0.00    -0.272 OA
ENDROOT
BRANCH   2   4
ATOM      4  C   UNL     1      -0.263   6.400  -5.204  0.00  0.00    +0.065 A 
ATOM      5  C   UNL     1      -0.201   5.551  -6.303  0.00  0.00    -0.007 A 
ATOM      6  C   UNL     1       1.137   5.077  -6.737  0.00  0.00    +0.032 C 
ATOM      7  C   UNL     1      -1.335   5.193  -7.022  0.00  0.00    -0.003 A 
ATOM      8  C   UNL     1      -2.539   5.382  -6.397  0.00  0.00    -0.001 A 
ATOM      9  C   UNL     1      -2.624   6.211  -5.286  0.00  0.00    -0.003 A 
ATOM     10  C   UNL     1      -1.494   6.823  -4.761  0.00  0.00    -0.007 A 
ATOM     11  C   UNL     1      -1.547   8.184  -4.159  0.00  0.00    +0.032 C 
ENDBRANCH   2   4
BRANCH   1  13
ATOM     12  N   UNL     1       3.914   6.640  -3.889  0.00  0.00    -0.267 NA
ATOM     13  C   UNL     1       2.971   5.347  -3.881  0.00  0.00    +0.137 C 
ATOM     14  C   UNL     1       3.361   5.007  -2.289  0.00  0.00    +0.025 C 
ATOM     15  C   UNL     1       2.918   6.125  -1.457  0.00  0.00    +0.003 C 
ATOM     16  C   UNL     1       3.542   7.459  -1.725  0.00  0.00    +0.017 C 
ATOM     17  C   UNL     1       3.302   7.685  -3.216  0.00  0.00    +0.072 C 
BRANCH  12  18
ATOM     18  C   UNL     1       4.239   6.832  -5.276  0.00  0.00    +0.072 C 
BRANCH  18  20
ATOM     19  C   UNL     1       4.725   5.528  -7.313  0.00  0.00    +0.001 C 
ATOM     20  C   UNL     1       4.556   5.483  -5.831  0.00  0.00    +0.017 C 
ENDBRANCH  18  20
ENDBRANCH  12  18
ENDBRANCH   1  13
TORSDOF 4
ENDMDL
MODEL 2
REMARK VINA RESULT:      -7.0      0.376      1.903
REMARK  Name = 
REMARK  4 active torsions:
REMARK  status: ('A' for Active; 'I' for Inactive)
REMARK    1  A    between atoms: C_2  and  C_3
REMARK    2  A    between atoms: C_3  and  N_4
REMARK    3  A    between atoms: C_9  and  C_10
REMARK    4  A    between atoms: N_12  and  C_13
REMARK                            x       y       z     vdW  Elec       q    Type
REMARK                         _______ _______ _______ _____ _____    ______ ____
ROOT
ATOM      1  C   UNL     1       1.646   6.002  -3.292  0.00  0.00    +0.260 C 
ATOM      2  N   UNL     1       1.054   6.656  -4.388  0.00  0.00    -0.179 NA
ATOM      3  O   UNL     1       0.901   5.177  -2.682  0.00  0.00    -0.272 OA
ENDROOT
BRANCH   2   4
ATOM      4  C   UNL     1      -0.094   6.220  -5.112  0.00  0.00    +0.065 A 
ATOM      5  C   UNL     1      -1.336   6.707  -4.718  0.00  0.00    -0.007 A 
ATOM      6  C   UNL     1      -1.373   7.678  -3.595  0.00  0.00    +0.032 C 
ATOM      7  C   UNL     1      -2.518   6.270  -5.301  0.00  0.00    -0.003 A 
ATOM      8  C   UNL     1      -2.406   5.648  -6.516  0.00  0.00    -0.001 A 
ATOM      9  C   UNL     1      -1.174   5.168  -6.941  0.00  0.00    -0.003 A 
ATOM     10  C   UNL     1      -0.031   5.348  -6.173  0.00  0.00    -0.007 A 
ATOM     11  C   UNL     1       1.050   4.325  -6.123  0.00  0.00    +0.032 C 
ENDBRANCH   2   4
BRANCH   1  13
ATOM     12  N   UNL     1       3.930   6.701  -3.625  0.00  0.00    -0.267 NA
ATOM     13  C   UNL     1       3.115   5.324  -3.626  0.00  0.00    +0.137 C 
ATOM     14  C   UNL     1       3.488   5.041  -2.018  0.00  0.00    +0.025 C 
ATOM     15  C   UNL     1       2.914   6.121  -1.216  0.00  0.00    +0.003 C 
ATOM     16  C   UNL     1       3.416   7.504  -1.484  0.00  0.00    +0.017 C 
ATOM     17  C   UNL     1       3.200   7.691  -2.984  0.00  0.00    +0.072 C 
BRANCH  12  18
ATOM     18  C   UNL     1       4.277   6.908  -5.004  0.00  0.00    +0.072 C 
BRANCH  18  20
ATOM     19  C   UNL     1       4.495   5.600  -7.083  0.00  0.00    +0.001 C 
ATOM     20  C   UNL     1       4.513   5.557  -5.593  0.00  0.00    +0.017 C 
ENDBRANCH  18  20
ENDBRANCH  12  18
ENDBRANCH   1  13
TORSDOF 4
ENDMDL
MODEL 3
REMARK VINA RESULT:      -6.7      1.975      3.824
REMARK  Name = 
REMARK  4 active torsions:
REMARK  status: ('A' for Active; 'I' for Inactive)
REMARK    1  A    between atoms: C_2  and  C_3
REMARK    2  A    between atoms: C_3  and  N_4
REMARK    3  A    between atoms: C_9  and  C_10
REMARK    4  A    between atoms: N_12  and  C_13
REMARK                            x       y       z     vdW  Elec       q    Type
REMARK                         _______ _______ _______ _____ _____    ______ ____
ROOT
ATOM      1  C   UNL     1       1.069   6.116  -5.650  0.00  0.00    +0.260 C 
ATOM      2  N   UNL     1       0.306   5.248  -4.849  0.00  0.00    -0.179 NA
ATOM      3  O   UNL     1       0.481   7.178  -6.017  0.00  0.00    -0.272 OA
ENDROOT
BRANCH   2   4
ATOM      4  C   UNL     1      -0.853   5.595  -4.095  0.00  0.00    +0.065 A 
ATOM      5  C   UNL     1      -0.779   5.507  -2.709  0.00  0.00    -0.007 A 
ATOM      6  C   UNL     1       0.517   5.096  -2.110  0.00  0.00    +0.032 C 
ATOM      7  C   UNL     1      -1.881   5.736  -1.896  0.00  0.00    -0.003 A 
ATOM      8  C   UNL     1      -2.926   6.417  -2.462  0.00  0.00    -0.001 A 
ATOM      9  C   UNL     1      -3.015   6.533  -3.843  0.00  0.00    -0.003 A 
ATOM     10  C   UNL     1      -2.031   6.009  -4.670  0.00  0.00    -0.007 A 
ATOM     11  C   UNL     1      -2.354   5.429  -6.003  0.00  0.00    +0.032 C 
ENDBRANCH   2   4
BRANCH   1  13
ATOM     12  N   UNL     1       3.245   5.087  -5.500  0.00  0.00    -0.267 NA
ATOM     13  C   UNL     1       2.564   6.459  -5.037  0.00  0.00    +0.137 C 
ATOM     14  C   UNL     1       3.087   7.247  -6.419  0.00  0.00    +0.025 C 
ATOM     15  C   UNL     1       2.480   6.593  -7.578  0.00  0.00    +0.003 C 
ATOM     16  C   UNL     1       2.828   5.156  -7.805  0.00  0.00    +0.017 C 
ATOM     17  C   UNL     1       2.480   4.479  -6.482  0.00  0.00    +0.072 C 
BRANCH  12  18
ATOM     18  C   UNL     1       3.463   4.368  -4.275  0.00  0.00    +0.072 C 
BRANCH  18  20
ATOM     19  C   UNL     1       4.158   4.960  -1.984  0.00  0.00    +0.001 C 
ATOM     20  C   UNL     1       4.366   5.213  -3.438  0.00  0.00    +0.017 C 
ENDBRANCH  18  20
ENDBRANCH  12  18
ENDBRANCH   1  13
TORSDOF 4
ENDMDL
MODEL 4
REMARK VINA RESULT:      -6.7      1.599      3.600
REMARK  Name = 
REMARK  4 active torsions:
REMARK  status: ('A' for Active; 'I' for Inactive)
REMARK    1  A    between atoms: C_2  and  C_3
REMARK    2  A    between atoms: C_3  and  N_4
REMARK    3  A    between atoms: C_9  and  C_10
REMARK    4  A    between atoms: N_12  and  C_13
REMARK                            x       y       z     vdW  Elec       q    Type
REMARK                         _______ _______ _______ _____ _____    ______ ____
ROOT
ATOM      1  C   UNL     1       2.103   6.224  -4.381  0.00  0.00    +0.260 C 
ATOM      2  N   UNL     1       1.109   5.314  -3.976  0.00  0.00    -0.179 NA
ATOM      3  O   UNL     1       1.709   7.159  -5.141  0.00  0.00    -0.272 OA
ENDROOT
BRANCH   2   4
ATOM      4  C   UNL     1      -0.298   5.542  -3.984  0.00  0.00    +0.065 A 
ATOM      5  C   UNL     1      -0.963   5.559  -2.763  0.00  0.00    -0.007 A 
ATOM      6  C   UNL     1      -0.152   5.378  -1.532  0.00  0.00    +0.032 C 
ATOM      7  C   UNL     1      -2.343   5.683  -2.677  0.00  0.00    -0.003 A 
ATOM      8  C   UNL     1      -2.984   6.168  -3.786  0.00  0.00    -0.001 A 
ATOM      9  C   UNL     1      -2.336   6.177  -5.015  0.00  0.00    -0.003 A 
ATOM     10  C   UNL     1      -1.023   5.744  -5.136  0.00  0.00    -0.007 A 
ATOM     11  C   UNL     1      -0.539   5.036  -6.353  0.00  0.00    +0.032 C 
ENDBRANCH   2   4
BRANCH   1  13
ATOM     12  N   UNL     1       3.928   5.526  -2.969  0.00  0.00    -0.267 NA
ATOM     13  C   UNL     1       3.011   6.825  -3.139  0.00  0.00    +0.137 C 
ATOM     14  C   UNL     1       4.133   7.551  -4.147  0.00  0.00    +0.025 C 
ATOM     15  C   UNL     1       4.287   6.718  -5.339  0.00  0.00    +0.003 C 
ATOM     16  C   UNL     1       4.803   5.329  -5.134  0.00  0.00    +0.017 C 
ATOM     17  C   UNL     1       3.850   4.731  -4.101  0.00  0.00    +0.072 C 
BRANCH  12  18
ATOM     18  C   UNL     1       3.508   4.957  -1.717  0.00  0.00    +0.072 C 
BRANCH  18  20
ATOM     19  C   UNL     1       4.698   6.424  -0.131  0.00  0.00    +0.001 C 
ATOM     20  C   UNL     1       3.384   6.090  -0.753  0.00  0.00    +0.017 C 
ENDBRANCH  18  20
ENDBRANCH  12  18
ENDBRANCH   1  13
TORSDOF 4
ENDMDL
MODEL 5
REMARK VINA RESULT:      -6.6      1.997      5.906
REMARK  Name = 
REMARK  4 active torsions:
REMARK  status: ('A' for Active; 'I' for Inactive)
REMARK    1  A    between atoms: C_2  and  C_3
REMARK    2  A    between atoms: C_3  and  N_4
REMARK    3  A    between atoms: C_9  and  C_10
REMARK    4  A    between atoms: N_12  and  C_13
REMARK                            x       y       z     vdW  Elec       q    Type
REMARK                         _______ _______ _______ _____ _____    ______ ____
ROOT
ATOM      1  C   UNL     1      -0.327   6.046  -4.685  0.00  0.00    +0.260 C 
ATOM      2  N   UNL     1       0.839   6.670  -4.206  0.00  0.00    -0.179 NA
ATOM      3  O   UNL     1      -0.140   5.084  -5.490  0.00  0.00    -0.272 OA
ENDROOT
BRANCH   2   4
ATOM      4  C   UNL     1       2.152   6.113  -4.197  0.00  0.00    +0.065 A 
ATOM      5  C   UNL     1       2.650   5.640  -2.988  0.00  0.00    -0.007 A 
ATOM      6  C   UNL     1       1.763   5.712  -1.799  0.00  0.00    +0.032 C 
ATOM      7  C   UNL     1       3.949   5.165  -2.861  0.00  0.00    -0.003 A 
ATOM      8  C   UNL     1       4.589   4.820  -4.022  0.00  0.00    -0.001 A 
ATOM      9  C   UNL     1       4.102   5.266  -5.244  0.00  0.00    -0.003 A 
ATOM     10  C   UNL     1       2.941   6.024  -5.319  0.00  0.00    -0.007 A 
ATOM     11  C   UNL     1       2.771   7.101  -6.334  0.00  0.00    +0.032 C 
ENDBRANCH   2   4
BRANCH   1  13
ATOM     12  N   UNL     1      -1.999   7.083  -3.290  0.00  0.00    -0.267 NA
ATOM     13  C   UNL     1      -1.395   5.616  -3.501  0.00  0.00    +0.137 C 
ATOM     14  C   UNL     1      -2.614   5.211  -4.575  0.00  0.00    +0.025 C 
ATOM     15  C   UNL     1      -2.528   6.107  -5.727  0.00  0.00    +0.003 C 
ATOM     16  C   UNL     1      -2.721   7.568  -5.466  0.00  0.00    +0.017 C 
ATOM     17  C   UNL     1      -1.699   7.887  -4.379  0.00  0.00    +0.072 C 
BRANCH  12  18
ATOM     18  C   UNL     1      -1.508   7.486  -2.001  0.00  0.00    +0.072 C 
BRANCH  18  20
ATOM     19  C   UNL     1      -1.625   6.490   0.253  0.00  0.00    +0.001 C 
ATOM     20  C   UNL     1      -2.384   6.828  -0.986  0.00  0.00    +0.017 C 
ENDBRANCH  18  20
ENDBRANCH  12  18
ENDBRANCH   1  13
TORSDOF 4
ENDMDL
MODEL 6
REMARK VINA RESULT:      -6.6      5.434      8.996
REMARK  Name = 
REMARK  4 active torsions:
REMARK  status: ('A' for Active; 'I' for Inactive)
REMARK    1  A    between atoms: C_2  and  C_3
REMARK    2  A    between atoms: C_3  and  N_4
REMARK    3  A    between atoms: C_9  and  C_10
REMARK    4  A    between atoms: N_12  and  C_13
REMARK                            x       y       z     vdW  Elec       q    Type
REMARK                         _______ _______ _______ _____ _____    ______ ____
ROOT
ATOM      1  C   UNL     1       3.015   6.026 -12.196  0.00  0.00    +0.260 C 
ATOM      2  N   UNL     1       3.618   6.707 -11.122  0.00  0.00    -0.179 NA
ATOM      3  O   UNL     1       3.797   5.317 -12.900  0.00  0.00    -0.272 OA
ENDROOT
BRANCH   2   4
ATOM      4  C   UNL     1       4.866   6.385 -10.512  0.00  0.00    +0.065 A 
ATOM      5  C   UNL     1       4.848   5.588  -9.373  0.00  0.00    -0.007 A 
ATOM      6  C   UNL     1       3.532   5.096  -8.894  0.00  0.00    +0.032 C 
ATOM      7  C   UNL     1       6.003   5.298  -8.658  0.00  0.00    -0.003 A 
ATOM      8  C   UNL     1       7.191   5.492  -9.312  0.00  0.00    -0.001 A 
ATOM      9  C   UNL     1       7.233   6.270 -10.462  0.00  0.00    -0.003 A 
ATOM     10  C   UNL     1       6.077   6.823 -10.996  0.00  0.00    -0.007 A 
ATOM     11  C   UNL     1       6.079   8.155 -11.662  0.00  0.00    +0.032 C 
ENDBRANCH   2   4
BRANCH   1  13
ATOM     12  N   UNL     1       0.657   6.406 -11.866  0.00  0.00    -0.267 NA
ATOM     13  C   UNL     1       1.668   5.168 -11.777  0.00  0.00    +0.137 C 
ATOM     14  C   UNL     1       1.323   4.705 -13.349  0.00  0.00    +0.025 C 
ATOM     15  C   UNL     1       1.721   5.790 -14.245  0.00  0.00    +0.003 C 
ATOM     16  C   UNL     1       1.022   7.102 -14.073  0.00  0.00    +0.017 C 
ATOM     17  C   UNL     1       1.224   7.437 -12.598  0.00  0.00    +0.072 C 
BRANCH  12  18
ATOM     18  C   UNL     1       0.298   6.669 -10.499  0.00  0.00    +0.072 C 
BRANCH  18  20
ATOM     19  C   UNL     1      -0.125   5.467  -8.388  0.00  0.00    +0.001 C 
ATOM     20  C   UNL     1       0.027   5.344  -9.866  0.00  0.00    +0.017 C 
ENDBRANCH  18  20
ENDBRANCH  12  18
ENDBRANCH   1  13
TORSDOF 4
ENDMDL
MODEL 7
REMARK VINA RESULT:      -6.6      2.527      5.652
REMARK  Name = 
REMARK  4 active torsions:
REMARK  status: ('A' for Active; 'I' for Inactive)
REMARK    1  A    between atoms: C_2  and  C_3
REMARK    2  A    between atoms: C_3  and  N_4
REMARK    3  A    between atoms: C_9  and  C_10
REMARK    4  A    between atoms: N_12  and  C_13
REMARK                            x       y       z     vdW  Elec       q    Type
REMARK                         _______ _______ _______ _____ _____    ______ ____
ROOT
ATOM      1  C   UNL     1       3.735   5.750  -7.003  0.00  0.00    +0.260 C 
ATOM      2  N   UNL     1       3.014   6.426  -6.001  0.00  0.00    -0.179 NA
ATOM      3  O   UNL     1       4.817   5.207  -6.625  0.00  0.00    -0.272 OA
ENDROOT
BRANCH   2   4
ATOM      4  C   UNL     1       3.140   6.231  -4.594  0.00  0.00    +0.065 A 
ATOM      5  C   UNL     1       2.094   5.604  -3.927  0.00  0.00    -0.007 A 
ATOM      6  C   UNL     1       0.936   5.144  -4.734  0.00  0.00    +0.032 C 
ATOM      7  C   UNL     1       2.086   5.452  -2.546  0.00  0.00    -0.003 A 
ATOM      8  C   UNL     1       3.291   5.588  -1.910  0.00  0.00    -0.001 A 
ATOM      9  C   UNL     1       4.357   6.196  -2.560  0.00  0.00    -0.003 A 
ATOM     10  C   UNL     1       4.241   6.632  -3.873  0.00  0.00    -0.007 A 
ATOM     11  C   UNL     1       4.937   7.856  -4.358  0.00  0.00    +0.032 C 
ENDBRANCH   2   4
BRANCH   1  13
ATOM     12  N   UNL     1       2.174   5.796  -8.840  0.00  0.00    -0.267 NA
ATOM     13  C   UNL     1       2.827   4.690  -7.886  0.00  0.00    +0.137 C 
ATOM     14  C   UNL     1       4.044   4.378  -8.993  0.00  0.00    +0.025 C 
ATOM     15  C   UNL     1       4.823   5.602  -9.177  0.00  0.00    +0.003 C 
ATOM     16  C   UNL     1       4.100   6.789  -9.732  0.00  0.00    +0.017 C 
ATOM     17  C   UNL     1       2.911   6.969  -8.792  0.00  0.00    +0.072 C 
BRANCH  12  18
ATOM     18  C   UNL     1       0.797   5.850  -8.430  0.00  0.00    +0.072 C 
BRANCH  18  20
ATOM     19  C   UNL     1       0.340   4.687 -10.556  0.00  0.00    +0.001 C 
ATOM     20  C   UNL     1      -0.022   5.837  -9.678  0.00  0.00    +0.017 C 
ENDBRANCH  18  20
ENDBRANCH  12  18
ENDBRANCH   1  13
TORSDOF 4
ENDMDL
MODEL 8
REMARK VINA RESULT:      -6.6      2.618      4.894
REMARK  Name = 
REMARK  4 active torsions:
REMARK  status: ('A' for Active; 'I' for Inactive)
REMARK    1  A    between atoms: C_2  and  C_3
REMARK    2  A    between atoms: C_3  and  N_4
REMARK    3  A    between atoms: C_9  and  C_10
REMARK    4  A    between atoms: N_12  and  C_13
REMARK                            x       y       z     vdW  Elec       q    Type
REMARK                         _______ _______ _______ _____ _____    ______ ____
ROOT
ATOM      1  C   UNL     1       2.481   5.376  -7.158  0.00  0.00    +0.260 C 
ATOM      2  N   UNL     1       1.525   6.230  -6.577  0.00  0.00    -0.179 NA
ATOM      3  O   UNL     1       3.061   4.581  -6.358  0.00  0.00    -0.272 OA
ENDROOT
BRANCH   2   4
ATOM      4  C   UNL     1       0.866   6.033  -5.328  0.00  0.00    +0.065 A 
ATOM      5  C   UNL     1      -0.489   5.721  -5.348  0.00  0.00    -0.007 A 
ATOM      6  C   UNL     1      -1.145   5.576  -6.672  0.00  0.00    +0.032 C 
ATOM      7  C   UNL     1      -1.235   5.602  -4.183  0.00  0.00    -0.003 A 
ATOM      8  C   UNL     1      -0.530   5.421  -3.023  0.00  0.00    -0.001 A 
ATOM      9  C   UNL     1       0.828   5.709  -2.981  0.00  0.00    -0.003 A 
ATOM     10  C   UNL     1       1.504   6.137  -4.114  0.00  0.00    -0.007 A 
ATOM     11  C   UNL     1       2.621   7.120  -4.038  0.00  0.00    +0.032 C 
ENDBRANCH   2   4
BRANCH   1  13
ATOM     12  N   UNL     1       2.071   5.808  -9.495  0.00  0.00    -0.267 NA
ATOM     13  C   UNL     1       1.939   4.568  -8.493  0.00  0.00    +0.137 C 
ATOM     14  C   UNL     1       3.455   3.996  -8.915  0.00  0.00    +0.025 C 
ATOM     15  C   UNL     1       4.445   5.009  -8.550  0.00  0.00    +0.003 C 
ATOM     16  C   UNL     1       4.338   6.338  -9.228  0.00  0.00    +0.017 C 
ATOM     17  C   UNL     1       2.902   6.777  -8.954  0.00  0.00    +0.072 C 
BRANCH  12  18
ATOM     18  C   UNL     1       0.712   6.174  -9.787  0.00  0.00    +0.072 C 
BRANCH  18  20
ATOM     19  C   UNL     1       0.280   4.789 -11.782  0.00  0.00    +0.001 C 
ATOM     20  C   UNL     1       0.044   4.949 -10.318  0.00  0.00    +0.017 C 
ENDBRANCH  18  20
ENDBRANCH  12  18
ENDBRANCH   1  13
TORSDOF 4
ENDMDL
MODEL 9
REMARK VINA RESULT:      -6.5      3.124      6.050
REMARK  Name = 
REMARK  4 active torsions:
REMARK  status: ('A' for Active; 'I' for Inactive)
REMARK    1  A    between atoms: C_2  and  C_3
REMARK    2  A    between atoms: C_3  and  N_4
REMARK    3  A    between atoms: C_9  and  C_10
REMARK    4  A    between atoms: N_12  and  C_13
REMARK                            x       y       z     vdW  Elec       q    Type
REMARK                         _______ _______ _______ _____ _____    ______ ____
ROOT
ATOM      1  C   UNL     1       2.424   5.155  -7.996  0.00  0.00    +0.260 C 
ATOM      2  N   UNL     1       3.082   6.153  -8.739  0.00  0.00    -0.179 NA
ATOM      3  O   UNL     1       2.353   4.018  -8.553  0.00  0.00    -0.272 OA
ENDROOT
BRANCH   2   4
ATOM      4  C   UNL     1       3.995   5.941  -9.814  0.00  0.00    +0.065 A 
ATOM      5  C   UNL     1       3.483   5.905 -11.106  0.00  0.00    -0.007 A 
ATOM      6  C   UNL     1       2.025   6.129 -11.279  0.00  0.00    +0.032 C 
ATOM      7  C   UNL     1       4.279   5.614 -12.206  0.00  0.00    -0.003 A 
ATOM      8  C   UNL     1       5.631   5.743 -12.033  0.00  0.00    -0.001 A 
ATOM      9  C   UNL     1       6.166   5.799 -10.752  0.00  0.00    -0.003 A 
ATOM     10  C   UNL     1       5.348   5.773  -9.632  0.00  0.00    -0.007 A 
ATOM     11  C   UNL     1       5.765   5.101  -8.370  0.00  0.00    +0.032 C 
ENDBRANCH   2   4
BRANCH   1  13
ATOM     12  N   UNL     1       2.367   6.409  -5.937  0.00  0.00    -0.267 NA
ATOM     13  C   UNL     1       2.960   5.011  -6.441  0.00  0.00    +0.137 C 
ATOM     14  C   UNL     1       1.601   4.185  -5.918  0.00  0.00    +0.025 C 
ATOM     15  C   UNL     1       0.444   4.690  -6.656  0.00  0.00    +0.003 C 
ATOM     16  C   UNL     1       0.103   6.136  -6.476  0.00  0.00    +0.017 C 
ATOM     17  C   UNL     1       1.400   6.866  -6.818  0.00  0.00    +0.072 C 
BRANCH  12  18
ATOM     18  C   UNL     1       3.528   7.231  -5.727  0.00  0.00    +0.072 C 
BRANCH  18  20
ATOM     19  C   UNL     1       5.435   7.244  -4.163  0.00  0.00    +0.001 C 
ATOM     20  C   UNL     1       4.510   6.398  -4.972  0.00  0.00    +0.017 C 
ENDBRANCH  18  20
ENDBRANCH  12  18
ENDBRANCH   1  13
TORSDOF 4
ENDMDL
