MODEL 1
REMARK VINA RESULT:      -9.9      0.000      0.000
REMARK  Name = 
REMARK  7 active torsions:
REMARK  status: ('A' for Active; 'I' for Inactive)
REMARK    1  A    between atoms: C_2  and  C_4
REMARK    2  A    between atoms: C_4  and  C_5
REMARK    3  A    between atoms: C_4  and  C_11
REMARK    4  A    between atoms: C_4  and  C_17
REMARK    5  A    between atoms: N_20  and  C_21
REMARK    6  A    between atoms: C_21  and  C_22
REMARK    7  A    between atoms: C_22  and  C_23
REMARK                            x       y       z     vdW  Elec       q    Type
REMARK                         _______ _______ _______ _____ _____    ______ ____
ROOT
ATOM      1  C   UNL     1       1.029   5.681  -5.775  0.00  0.00    +0.111 C 
ENDROOT
BRANCH   1   2
ATOM      2  C   UNL     1      -0.220   6.250  -5.266  0.00  0.00    -0.011 A 
ATOM      3  C   UNL     1      -0.473   7.604  -5.159  0.00  0.00    -0.004 A 
ATOM      4  C   UNL     1      -1.642   8.026  -4.539  0.00  0.00    -0.000 A 
ATOM      5  C   UNL     1      -2.312   7.198  -3.646  0.00  0.00    -0.000 A 
ATOM      6  C   UNL     1      -2.074   5.835  -3.768  0.00  0.00    -0.000 A 
ATOM      7  C   UNL     1      -1.085   5.393  -4.638  0.00  0.00    -0.004 A 
ENDBRANCH   1   2
BRANCH   1   8
ATOM      8  C   UNL     1       2.136   6.130  -4.880  0.00  0.00    -0.011 A 
ATOM      9  C   UNL     1       2.194   5.918  -3.532  0.00  0.00    -0.004 A 
ATOM     10  C   UNL     1       3.129   6.623  -2.779  0.00  0.00    -0.000 A 
ATOM     11  C   UNL     1       3.977   7.556  -3.348  0.00  0.00    -0.000 A 
ATOM     12  C   UNL     1       4.134   7.486  -4.724  0.00  0.00    -0.000 A 
ATOM     13  C   UNL     1       3.101   6.952  -5.453  0.00  0.00    -0.004 A 
ENDBRANCH   1   8
BRANCH   1  14
ATOM     14  C   UNL     1       1.380   6.551  -7.114  0.00  0.00    +0.033 C 
ATOM     15  C   UNL     1       2.420   5.440  -7.706  0.00  0.00    +0.073 C 
ATOM     16  N   UNL     1       2.178   5.555  -9.119  0.00  0.00    -0.272 NA
ATOM     17  C   UNL     1       0.820   5.970  -9.312  0.00  0.00    +0.072 C 
ATOM     18  C   UNL     1       0.148   5.882  -7.949  0.00  0.00    +0.020 C 
BRANCH  16  19
ATOM     19  C   UNL     1       3.152   6.529  -9.585  0.00  0.00    +0.077 C 
BRANCH  19  20
ATOM     20  C   UNL     1       4.428   6.228  -8.806  0.00  0.00    +0.044 C 
BRANCH  20  21
ATOM     21  C   UNL     1       5.448   5.850  -9.827  0.00  0.00    -0.021 A 
ATOM     22  C   UNL     1       5.091   5.441 -11.099  0.00  0.00    -0.005 A 
ATOM     23  C   UNL     1       6.008   5.712 -12.109  0.00  0.00    +0.015 A 
ATOM     24  C   UNL     1       5.860   5.304 -13.543  0.00  0.00    +0.077 C 
ATOM     25  C   UNL     1       7.278   5.555 -14.043  0.00  0.00    +0.210 C 
ATOM     26  O   UNL     1       8.030   5.091 -12.924  0.00  0.00    -0.475 OA
ATOM     27  C   UNL     1       7.363   5.623 -11.817  0.00  0.00    +0.135 A 
ATOM     28  C   UNL     1       7.715   5.561 -10.474  0.00  0.00    +0.036 A 
ATOM     29  C   UNL     1       6.772   5.648  -9.478  0.00  0.00    -0.001 A 
ENDBRANCH  20  21
ENDBRANCH  19  20
ENDBRANCH  16  19
ENDBRANCH   1  14
BRANCH   1  31
ATOM     30  N   UNL     1       0.844   4.127  -5.962  0.00  0.00    -0.087 NA
ATOM     31  C   UNL     1       1.057   4.288  -6.092  0.00  0.00    +0.267 C 
ATOM     32  O   UNL     1       1.847   3.351  -6.032  0.00  0.00    -0.271 OA
ENDBRANCH   1  31
TORSDOF 7
ENDMDL
MODEL 2
REMARK VINA RESULT:      -9.7      2.237      8.690
REMARK  Name = 
REMARK  7 active torsions:
REMARK  status: ('A' for Active; 'I' for Inactive)
REMARK    1  A    between atoms: C_2  and  C_4
REMARK    2  A    between atoms: C_4  and  C_5
REMARK    3  A    between atoms: C_4  and  C_11
REMARK    4  A    between atoms: C_4  and  C_17
REMARK    5  A    between atoms: N_20  and  C_21
REMARK    6  A    between atoms: C_21  and  C_22
REMARK    7  A    between atoms: C_22  and  C_23
REMARK                            x       y       z     vdW  Elec       q    Type
REMARK                         _______ _______ _______ _____ _____    ______ ____
ROOT
ATOM      1  C   UNL     1       3.694   5.561  -9.315  0.00  0.00    +0.111 C 
ENDROOT
BRANCH   1   2
ATOM      2  C   UNL     1       4.935   5.998  -9.958  0.00  0.00    -0.011 A 
ATOM      3  C   UNL     1       6.187   5.505  -9.651  0.00  0.00    -0.004 A 
ATOM      4  C   UNL     1       7.305   6.089 -10.231  0.00  0.00    -0.000 A 
ATOM      5  C   UNL     1       7.254   7.389 -10.722  0.00  0.00    -0.000 A 
ATOM      6  C   UNL     1       5.996   7.876 -11.052  0.00  0.00    -0.000 A 
ATOM      7  C   UNL     1       4.871   7.127 -10.731  0.00  0.00    -0.004 A 
ENDBRANCH   1   2
BRANCH   1   8
ATOM      8  C   UNL     1       2.552   6.028 -10.155  0.00  0.00    -0.011 A 
ATOM      9  C   UNL     1       1.451   6.690  -9.690  0.00  0.00    -0.004 A 
ATOM     10  C   UNL     1       0.343   6.820 -10.521  0.00  0.00    -0.000 A 
ATOM     11  C   UNL     1       0.307   6.270 -11.789  0.00  0.00    -0.000 A 
ATOM     12  C   UNL     1       1.531   5.930 -12.347  0.00  0.00    -0.000 A 
ATOM     13  C   UNL     1       2.554   5.622 -11.486  0.00  0.00    -0.004 A 
ENDBRANCH   1   8
BRANCH   1  14
ATOM     14  C   UNL     1       3.513   6.546  -8.022  0.00  0.00    +0.033 C 
ATOM     15  C   UNL     1       2.396   5.595  -7.307  0.00  0.00    +0.073 C 
ATOM     16  N   UNL     1       2.728   5.769  -5.918  0.00  0.00    -0.272 NA
ATOM     17  C   UNL     1       4.131   6.044  -5.820  0.00  0.00    +0.072 C 
ATOM     18  C   UNL     1       4.712   5.798  -7.206  0.00  0.00    +0.020 C 
BRANCH  16  19
ATOM     19  C   UNL     1       1.891   6.872  -5.472  0.00  0.00    +0.077 C 
BRANCH  19  20
ATOM     20  C   UNL     1       0.545   6.660  -6.157  0.00  0.00    +0.044 C 
BRANCH  20  21
ATOM     21  C   UNL     1      -0.377   6.157  -5.098  0.00  0.00    -0.021 A 
ATOM     22  C   UNL     1       0.077   5.821  -3.835  0.00  0.00    -0.005 A 
ATOM     23  C   UNL     1      -0.835   5.975  -2.796  0.00  0.00    +0.015 A 
ATOM     24  C   UNL     1      -0.584   5.614  -1.364  0.00  0.00    +0.077 C 
ATOM     25  C   UNL     1      -2.006   5.668  -0.818  0.00  0.00    +0.210 C 
ATOM     26  O   UNL     1      -2.720   5.085  -1.905  0.00  0.00    -0.475 OA
ATOM     27  C   UNL     1      -2.173   5.690  -3.041  0.00  0.00    +0.135 A 
ATOM     28  C   UNL     1      -2.557   5.558  -4.370  0.00  0.00    +0.036 A 
ATOM     29  C   UNL     1      -1.669   5.763  -5.399  0.00  0.00    -0.001 A 
ENDBRANCH  20  21
ENDBRANCH  19  20
ENDBRANCH  16  19
ENDBRANCH   1  14
BRANCH   1  31
ATOM     30  N   UNL     1       3.756   4.008  -9.054  0.00  0.00    -0.087 NA
ATOM     31  C   UNL     1       3.595   4.199  -8.894  0.00  0.00    +0.267 C 
ATOM     32  O   UNL     1       2.720   3.359  -8.708  0.00  0.00    -0.271 OA
ENDBRANCH   1  31
TORSDOF 7
ENDMDL
MODEL 3
REMARK VINA RESULT:      -9.6      2.865      7.735
REMARK  Name = 
REMARK  7 active torsions:
REMARK  status: ('A' for Active; 'I' for Inactive)
REMARK    1  A    between atoms: C_2  and  C_4
REMARK    2  A    between atoms: C_4  and  C_5
REMARK    3  A    between atoms: C_4  and  C_11
REMARK    4  A    between atoms: C_4  and  C_17
REMARK    5  A    between atoms: N_20  and  C_21
REMARK    6  A    between atoms: C_21  and  C_22
REMARK    7  A    between atoms: C_22  and  C_23
REMARK                            x       y       z     vdW  Elec       q    Type
REMARK                         _______ _______ _______ _____ _____    ______ ____
ROOT
ATOM      1  C   UNL     1       2.367   6.350  -8.554  0.00  0.00    +0.111 C 
ENDROOT
BRANCH   1   2
ATOM      2  C   UNL     1       1.415   5.833  -9.540  0.00  0.00    -0.011 A 
ATOM      3  C   UNL     1       1.394   4.529  -9.994  0.00  0.00    -0.004 A 
ATOM      4  C   UNL     1       0.532   4.187 -11.027  0.00  0.00    -0.000 A 
ATOM      5  C   UNL     1       0.049   5.155 -11.900  0.00  0.00    -0.000 A 
ATOM      6  C   UNL     1       0.050   6.464 -11.434  0.00  0.00    -0.000 A 
ATOM      7  C   UNL     1       0.666   6.753 -10.223  0.00  0.00    -0.004 A 
ENDBRANCH   1   2
BRANCH   1   8
ATOM      8  C   UNL     1       3.708   6.419  -9.204  0.00  0.00    -0.011 A 
ATOM      9  C   UNL     1       4.002   7.133 -10.331  0.00  0.00    -0.004 A 
ATOM     10  C   UNL     1       5.206   6.892 -10.986  0.00  0.00    -0.000 A 
ATOM     11  C   UNL     1       6.098   5.928 -10.553  0.00  0.00    -0.000 A 
ATOM     12  C   UNL     1       5.942   5.489  -9.246  0.00  0.00    -0.000 A 
ATOM     13  C   UNL     1       4.688   5.569  -8.697  0.00  0.00    -0.004 A 
ENDBRANCH   1   8
BRANCH   1  14
ATOM     14  C   UNL     1       2.621   5.111  -7.517  0.00  0.00    +0.033 C 
ATOM     15  C   UNL     1       3.106   6.080  -6.296  0.00  0.00    +0.073 C 
ATOM     16  N   UNL     1       2.570   5.383  -5.156  0.00  0.00    -0.272 NA
ATOM     17  C   UNL     1       1.393   4.679  -5.571  0.00  0.00    +0.072 C 
ATOM     18  C   UNL     1       1.081   5.161  -6.981  0.00  0.00    +0.020 C 
BRANCH  16  19
ATOM     19  C   UNL     1       3.644   4.506  -4.719  0.00  0.00    +0.077 C 
BRANCH  19  20
ATOM     20  C   UNL     1       4.759   5.435  -4.250  0.00  0.00    +0.044 C 
BRANCH  20  21
ATOM     21  C   UNL     1       4.384   5.856  -2.869  0.00  0.00    -0.021 A 
ATOM     22  C   UNL     1       4.552   7.158  -2.433  0.00  0.00    -0.005 A 
ATOM     23  C   UNL     1       3.661   7.596  -1.458  0.00  0.00    +0.015 A 
ATOM     24  C   UNL     1       3.695   8.939  -0.796  0.00  0.00    +0.077 C 
ATOM     25  C   UNL     1       2.747   8.690   0.370  0.00  0.00    +0.210 C 
ATOM     26  O   UNL     1       3.129   7.366   0.733  0.00  0.00    -0.475 OA
ATOM     27  C   UNL     1       3.244   6.694  -0.487  0.00  0.00    +0.135 A 
ATOM     28  C   UNL     1       3.507   5.349  -0.721  0.00  0.00    +0.036 A 
ATOM     29  C   UNL     1       4.094   4.923  -1.888  0.00  0.00    -0.001 A 
ENDBRANCH  20  21
ENDBRANCH  19  20
ENDBRANCH  16  19
ENDBRANCH   1  14
BRANCH   1  31
ATOM     30  N   UNL     1       1.716   7.565  -7.791  0.00  0.00    -0.087 NA
ATOM     31  C   UNL     1       2.008   7.521  -7.818  0.00  0.00    +0.267 C 
ATOM     32  O   UNL     1       2.223   8.728  -7.858  0.00  0.00    -0.271 OA
ENDBRANCH   1  31
TORSDOF 7
ENDMDL
MODEL 4
REMARK VINA RESULT:      -9.5      3.130      5.088
REMARK  Name = 
REMARK  7 active torsions:
REMARK  status: ('A' for Active; 'I' for Inactive)
REMARK    1  A    between atoms: C_2  and  C_4
REMARK    2  A    between atoms: C_4  and  C_5
REMARK    3  A    between atoms: C_4  and  C_11
REMARK    4  A    between atoms: C_4  and  C_17
REMARK    5  A    between atoms: N_20  and  C_21
REMARK    6  A    between atoms: C_21  and  C_22
REMARK    7  A    between atoms: C_22  and  C_23
REMARK                            x       y       z     vdW  Elec       q    Type
REMARK                         _______ _______ _______ _____ _____    ______ ____
ROOT
ATOM      1  C   UNL     1       2.016   6.459  -6.503  0.00  0.00    +0.111 C 
ENDROOT
BRANCH   1   2
ATOM      2  C   UNL     1       2.734   6.079  -5.285  0.00  0.00    -0.011 A 
ATOM      3  C   UNL     1       3.407   6.966  -4.469  0.00  0.00    -0.004 A 
ATOM      4  C   UNL     1       4.164   6.474  -3.413  0.00  0.00    -0.000 A 
ATOM      5  C   UNL     1       4.629   5.164  -3.423  0.00  0.00    -0.000 A 
ATOM      6  C   UNL     1       3.937   4.267  -4.227  0.00  0.00    -0.000 A 
ATOM      7  C   UNL     1       2.949   4.742  -5.080  0.00  0.00    -0.004 A 
ENDBRANCH   1   2
BRANCH   1   8
ATOM      8  C   UNL     1       0.562   6.534  -6.175  0.00  0.00    -0.011 A 
ATOM      9  C   UNL     1       0.008   7.359  -5.238  0.00  0.00    -0.004 A 
ATOM     10  C   UNL     1      -1.305   7.135  -4.835  0.00  0.00    -0.000 A 
ATOM     11  C   UNL     1      -2.055   6.082  -5.327  0.00  0.00    -0.000 A 
ATOM     12  C   UNL     1      -1.602   5.501  -6.503  0.00  0.00    -0.000 A 
ATOM     13  C   UNL     1      -0.259   5.582  -6.772  0.00  0.00    -0.004 A 
ENDBRANCH   1   8
BRANCH   1  14
ATOM     14  C   UNL     1       2.023   5.117  -7.439  0.00  0.00    +0.033 C 
ATOM     15  C   UNL     1       1.567   5.914  -8.789  0.00  0.00    +0.073 C 
ATOM     16  N   UNL     1       2.302   5.198  -9.798  0.00  0.00    -0.272 NA
ATOM     17  C   UNL     1       3.500   4.684  -9.203  0.00  0.00    +0.072 C 
ATOM     18  C   UNL     1       3.597   5.315  -7.821  0.00  0.00    +0.020 C 
BRANCH  16  19
ATOM     19  C   UNL     1       1.392   4.161 -10.255  0.00  0.00    +0.077 C 
BRANCH  19  20
ATOM     20  C   UNL     1       0.108   4.889 -10.637  0.00  0.00    +0.044 C 
BRANCH  20  21
ATOM     21  C   UNL     1       0.261   5.255 -12.075  0.00  0.00    -0.021 A 
ATOM     22  C   UNL     1       0.087   6.553 -12.521  0.00  0.00    -0.005 A 
ATOM     23  C   UNL     1       0.818   6.916 -13.647  0.00  0.00    +0.015 A 
ATOM     24  C   UNL     1       0.739   8.242 -14.339  0.00  0.00    +0.077 C 
ATOM     25  C   UNL     1       1.459   7.912 -15.641  0.00  0.00    +0.210 C 
ATOM     26  O   UNL     1       0.953   6.603 -15.888  0.00  0.00    -0.475 OA
ATOM     27  C   UNL     1       1.016   5.968 -14.644  0.00  0.00    +0.135 A 
ATOM     28  C   UNL     1       0.729   4.647 -14.323  0.00  0.00    +0.036 A 
ATOM     29  C   UNL     1       0.330   4.283 -13.059  0.00  0.00    -0.001 A 
ENDBRANCH  20  21
ENDBRANCH  19  20
ENDBRANCH  16  19
ENDBRANCH   1  14
BRANCH   1  31
ATOM     30  N   UNL     1       2.705   7.737  -7.116  0.00  0.00    -0.087 NA
ATOM     31  C   UNL     1       2.507   7.568  -7.259  0.00  0.00    +0.267 C 
ATOM     32  O   UNL     1       2.056   8.539  -7.858  0.00  0.00    -0.271 OA
ENDBRANCH   1  31
TORSDOF 7
ENDMDL
MODEL 5
REMARK VINA RESULT:      -9.4      0.787      1.769
REMARK  Name = 
REMARK  7 active torsions:
REMARK  status: ('A' for Active; 'I' for Inactive)
REMARK    1  A    between atoms: C_2  and  C_4
REMARK    2  A    between atoms: C_4  and  C_5
REMARK    3  A    between atoms: C_4  and  C_11
REMARK    4  A    between atoms: C_4  and  C_17
REMARK    5  A    between atoms: N_20  and  C_21
REMARK    6  A    between atoms: C_21  and  C_22
REMARK    7  A    between atoms: C_22  and  C_23
REMARK                            x       y       z     vdW  Elec       q    Type
REMARK                         _______ _______ _______ _____ _____    ______ ____
ROOT
ATOM      1  C   UNL     1       1.017   5.687  -6.003  0.00  0.00    +0.111 C 
ENDROOT
BRANCH   1   2
ATOM      2  C   UNL     1      -0.258   6.235  -5.536  0.00  0.00    -0.011 A 
ATOM      3  C   UNL     1      -0.459   7.558  -5.196  0.00  0.00    -0.004 A 
ATOM      4  C   UNL     1      -1.674   7.936  -4.639  0.00  0.00    -0.000 A 
ATOM      5  C   UNL     1      -2.487   7.002  -4.006  0.00  0.00    -0.000 A 
ATOM      6  C   UNL     1      -2.298   5.673  -4.365  0.00  0.00    -0.000 A 
ATOM      7  C   UNL     1      -1.231   5.337  -5.188  0.00  0.00    -0.004 A 
ENDBRANCH   1   2
BRANCH   1   8
ATOM      8  C   UNL     1       2.107   6.302  -5.190  0.00  0.00    -0.011 A 
ATOM      9  C   UNL     1       3.168   6.999  -5.693  0.00  0.00    -0.004 A 
ATOM     10  C   UNL     1       4.248   7.275  -4.861  0.00  0.00    -0.000 A 
ATOM     11  C   UNL     1       4.297   6.836  -3.550  0.00  0.00    -0.000 A 
ATOM     12  C   UNL     1       3.088   6.458  -2.983  0.00  0.00    -0.000 A 
ATOM     13  C   UNL     1       2.106   6.009  -3.829  0.00  0.00    -0.004 A 
ENDBRANCH   1   8
BRANCH   1  14
ATOM     14  C   UNL     1       1.294   6.416  -7.440  0.00  0.00    +0.033 C 
ATOM     15  C   UNL     1       2.274   5.230  -7.986  0.00  0.00    +0.073 C 
ATOM     16  N   UNL     1       1.942   5.214  -9.386  0.00  0.00    -0.272 NA
ATOM     17  C   UNL     1       0.581   5.640  -9.531  0.00  0.00    +0.072 C 
ATOM     18  C   UNL     1      -0.001   5.698  -8.126  0.00  0.00    +0.020 C 
BRANCH  16  19
ATOM     19  C   UNL     1       2.899   6.117 -10.005  0.00  0.00    +0.077 C 
BRANCH  19  20
ATOM     20  C   UNL     1       2.788   5.857 -11.504  0.00  0.00    +0.044 C 
BRANCH  20  21
ATOM     21  C   UNL     1       4.182   5.919 -12.032  0.00  0.00    -0.021 A 
ATOM     22  C   UNL     1       5.213   6.484 -11.304  0.00  0.00    -0.005 A 
ATOM     23  C   UNL     1       6.483   5.968 -11.543  0.00  0.00    +0.015 A 
ATOM     24  C   UNL     1       7.750   6.468 -10.919  0.00  0.00    +0.077 C 
ATOM     25  C   UNL     1       8.779   5.781 -11.809  0.00  0.00    +0.210 C 
ATOM     26  O   UNL     1       8.148   5.915 -13.081  0.00  0.00    -0.475 OA
ATOM     27  C   UNL     1       6.811   5.585 -12.838  0.00  0.00    +0.135 A 
ATOM     28  C   UNL     1       5.764   5.464 -13.743  0.00  0.00    +0.036 A 
ATOM     29  C   UNL     1       4.457   5.651 -13.362  0.00  0.00    -0.001 A 
ENDBRANCH  20  21
ENDBRANCH  19  20
ENDBRANCH  16  19
ENDBRANCH   1  14
BRANCH   1  31
ATOM     30  N   UNL     1       0.933   4.113  -5.999  0.00  0.00    -0.087 NA
ATOM     31  C   UNL     1       1.127   4.270  -6.159  0.00  0.00    +0.267 C 
ATOM     32  O   UNL     1       1.983   3.400  -6.039  0.00  0.00    -0.271 OA
ENDBRANCH   1  31
TORSDOF 7
ENDMDL
MODEL 6
REMARK VINA RESULT:      -9.3      2.586      7.888
REMARK  Name = 
REMARK  7 active torsions:
REMARK  status: ('A' for Active; 'I' for Inactive)
REMARK    1  A    between atoms: C_2  and  C_4
REMARK    2  A    between atoms: C_4  and  C_5
REMARK    3  A    between atoms: C_4  and  C_11
REMARK    4  A    between atoms: C_4  and  C_17
REMARK    5  A    between atoms: N_20  and  C_21
REMARK    6  A    between atoms: C_21  and  C_22
REMARK    7  A    between atoms: C_22  and  C_23
REMARK                            x       y       z     vdW  Elec       q    Type
REMARK                         _______ _______ _______ _____ _____    ______ ____
ROOT
ATOM      1  C   UNL     1       3.036   6.516  -7.603  0.00  0.00    +0.111 C 
ENDROOT
BRANCH   1   2
ATOM      2  C   UNL     1       4.103   6.023  -8.477  0.00  0.00    -0.011 A 
ATOM      3  C   UNL     1       5.152   5.230  -8.055  0.00  0.00    -0.004 A 
ATOM      4  C   UNL     1       6.176   4.933  -8.945  0.00  0.00    -0.000 A 
ATOM      5  C   UNL     1       6.416   5.745 -10.048  0.00  0.00    -0.000 A 
ATOM      6  C   UNL     1       5.353   6.525 -10.485  0.00  0.00    -0.000 A 
ATOM      7  C   UNL     1       4.192   6.579  -9.725  0.00  0.00    -0.004 A 
ENDBRANCH   1   2
BRANCH   1   8
ATOM      8  C   UNL     1       3.511   6.404  -6.192  0.00  0.00    -0.011 A 
ATOM      9  C   UNL     1       4.266   7.336  -5.539  0.00  0.00    -0.004 A 
ATOM     10  C   UNL     1       4.871   6.990  -4.335  0.00  0.00    -0.000 A 
ATOM     11  C   UNL     1       4.761   5.720  -3.797  0.00  0.00    -0.000 A 
ATOM     12  C   UNL     1       3.728   4.933  -4.283  0.00  0.00    -0.000 A 
ATOM     13  C   UNL     1       3.284   5.187  -5.556  0.00  0.00    -0.004 A 
ENDBRANCH   1   8
BRANCH   1  14
ATOM     14  C   UNL     1       1.900   5.339  -7.611  0.00  0.00    +0.033 C 
ATOM     15  C   UNL     1       0.672   6.362  -7.277  0.00  0.00    +0.073 C 
ATOM     16  N   UNL     1      -0.396   5.776  -8.043  0.00  0.00    -0.272 NA
ATOM     17  C   UNL     1       0.175   5.110  -9.177  0.00  0.00    +0.072 C 
ATOM     18  C   UNL     1       1.643   5.510  -9.213  0.00  0.00    +0.020 C 
BRANCH  16  19
ATOM     19  C   UNL     1      -1.063   4.873  -7.119  0.00  0.00    +0.077 C 
BRANCH  19  20
ATOM     20  C   UNL     1      -2.140   5.713  -6.441  0.00  0.00    +0.044 C 
BRANCH  20  21
ATOM     21  C   UNL     1      -1.935   5.531  -4.974  0.00  0.00    -0.021 A 
ATOM     22  C   UNL     1      -0.674   5.368  -4.429  0.00  0.00    -0.005 A 
ATOM     23  C   UNL     1      -0.510   5.821  -3.124  0.00  0.00    +0.015 A 
ATOM     24  C   UNL     1       0.744   5.690  -2.315  0.00  0.00    +0.077 C 
ATOM     25  C   UNL     1       0.208   6.025  -0.929  0.00  0.00    +0.210 C 
ATOM     26  O   UNL     1      -1.051   5.357  -0.972  0.00  0.00    -0.475 OA
ATOM     27  C   UNL     1      -1.566   5.675  -2.232  0.00  0.00    +0.135 A 
ATOM     28  C   UNL     1      -2.807   5.360  -2.772  0.00  0.00    +0.036 A 
ATOM     29  C   UNL     1      -2.998   5.262  -4.129  0.00  0.00    -0.001 A 
ENDBRANCH  20  21
ENDBRANCH  19  20
ENDBRANCH  16  19
ENDBRANCH   1  14
BRANCH   1  31
ATOM     30  N   UNL     1       2.609   7.967  -8.046  0.00  0.00    -0.087 NA
ATOM     31  C   UNL     1       2.427   7.768  -7.921  0.00  0.00    +0.267 C 
ATOM     32  O   UNL     1       1.800   8.654  -7.348  0.00  0.00    -0.271 OA
ENDBRANCH   1  31
TORSDOF 7
ENDMDL
MODEL 7
REMARK VINA RESULT:      -9.2      2.147      4.128
REMARK  Name = 
REMARK  7 active torsions:
REMARK  status: ('A' for Active; 'I' for Inactive)
REMARK    1  A    between atoms: C_2  and  C_4
REMARK    2  A    between atoms: C_4  and  C_5
REMARK    3  A    between atoms: C_4  and  C_11
REMARK    4  A    between atoms: C_4  and  C_17
REMARK    5  A    between atoms: N_20  and  C_21
REMARK    6  A    between atoms: C_21  and  C_22
REMARK    7  A    between atoms: C_22  and  C_23
REMARK                            x       y       z     vdW  Elec       q    Type
REMARK                         _______ _______ _______ _____ _____    ______ ____
ROOT
ATOM      1  C   UNL     1       1.470   6.342  -7.869  0.00  0.00    +0.111 C 
ENDROOT
BRANCH   1   2
ATOM      2  C   UNL     1       0.440   5.791  -6.986  0.00  0.00    -0.011 A 
ATOM      3  C   UNL     1      -0.870   5.569  -7.360  0.00  0.00    -0.004 A 
ATOM      4  C   UNL     1      -1.789   5.168  -6.399  0.00  0.00    -0.000 A 
ATOM      5  C   UNL     1      -1.563   5.420  -5.051  0.00  0.00    -0.000 A 
ATOM      6  C   UNL     1      -0.242   5.621  -4.672  0.00  0.00    -0.000 A 
ATOM      7  C   UNL     1       0.738   5.721  -5.651  0.00  0.00    -0.004 A 
ENDBRANCH   1   2
BRANCH   1   8
ATOM      8  C   UNL     1       1.035   6.114  -9.278  0.00  0.00    -0.011 A 
ATOM      9  C   UNL     1       0.468   7.055 -10.090  0.00  0.00    -0.004 A 
ATOM     10  C   UNL     1      -0.142   6.646 -11.271  0.00  0.00    -0.000 A 
ATOM     11  C   UNL     1      -0.222   5.314 -11.634  0.00  0.00    -0.000 A 
ATOM     12  C   UNL     1       0.650   4.448 -10.991  0.00  0.00    -0.000 A 
ATOM     13  C   UNL     1       1.083   4.801  -9.737  0.00  0.00    -0.004 A 
ENDBRANCH   1   8
BRANCH   1  14
ATOM     14  C   UNL     1       2.715   5.284  -7.785  0.00  0.00    +0.033 C 
ATOM     15  C   UNL     1       3.731   6.231  -8.642  0.00  0.00    +0.073 C 
ATOM     16  N   UNL     1       4.985   5.955  -7.994  0.00  0.00    -0.272 NA
ATOM     17  C   UNL     1       4.722   5.618  -6.626  0.00  0.00    +0.072 C 
ATOM     18  C   UNL     1       3.251   5.929  -6.385  0.00  0.00    +0.020 C 
BRANCH  16  19
ATOM     19  C   UNL     1       5.564   4.860  -8.757  0.00  0.00    +0.077 C 
BRANCH  19  20
ATOM     20  C   UNL     1       6.998   5.288  -9.054  0.00  0.00    +0.044 C 
BRANCH  20  21
ATOM     21  C   UNL     1       6.943   6.023 -10.350  0.00  0.00    -0.021 A 
ATOM     22  C   UNL     1       7.257   5.411 -11.550  0.00  0.00    -0.005 A 
ATOM     23  C   UNL     1       6.613   5.909 -12.678  0.00  0.00    +0.015 A 
ATOM     24  C   UNL     1       6.847   5.445 -14.083  0.00  0.00    +0.077 C 
ATOM     25  C   UNL     1       6.157   6.562 -14.856  0.00  0.00    +0.210 C 
ATOM     26  O   UNL     1       6.548   7.691 -14.078  0.00  0.00    -0.475 OA
ATOM     27  C   UNL     1       6.371   7.276 -12.755  0.00  0.00    +0.135 A 
ATOM     28  C   UNL     1       6.519   8.009 -11.584  0.00  0.00    +0.036 A 
ATOM     29  C   UNL     1       6.826   7.402 -10.389  0.00  0.00    -0.001 A 
ENDBRANCH  20  21
ENDBRANCH  19  20
ENDBRANCH  16  19
ENDBRANCH   1  14
BRANCH   1  31
ATOM     30  N   UNL     1       1.752   7.842  -7.476  0.00  0.00    -0.087 NA
ATOM     31  C   UNL     1       1.949   7.662  -7.607  0.00  0.00    +0.267 C 
ATOM     32  O   UNL     1       2.439   8.599  -8.230  0.00  0.00    -0.271 OA
ENDBRANCH   1  31
TORSDOF 7
ENDMDL
MODEL 8
REMARK VINA RESULT:      -9.2      3.194      7.535
REMARK  Name = 
REMARK  7 active torsions:
REMARK  status: ('A' for Active; 'I' for Inactive)
REMARK    1  A    between atoms: C_2  and  C_4
REMARK    2  A    between atoms: C_4  and  C_5
REMARK    3  A    between atoms: C_4  and  C_11
REMARK    4  A    between atoms: C_4  and  C_17
REMARK    5  A    between atoms: N_20  and  C_21
REMARK    6  A    between atoms: C_21  and  C_22
REMARK    7  A    between atoms: C_22  and  C_23
REMARK                            x       y       z     vdW  Elec       q    Type
REMARK                         _______ _______ _______ _____ _____    ______ ____
ROOT
ATOM      1  C   UNL     1       1.444   5.420  -7.461  0.00  0.00    +0.111 C 
ENDROOT
BRANCH   1   2
ATOM      2  C   UNL     1       1.217   5.585  -8.898  0.00  0.00    -0.011 A 
ATOM      3  C   UNL     1       0.990   6.799  -9.517  0.00  0.00    -0.004 A 
ATOM      4  C   UNL     1       0.656   6.818 -10.865  0.00  0.00    -0.000 A 
ATOM      5  C   UNL     1       0.107   5.698 -11.477  0.00  0.00    -0.000 A 
ATOM      6  C   UNL     1       0.354   4.475 -10.866  0.00  0.00    -0.000 A 
ATOM      7  C   UNL     1       0.977   4.449  -9.625  0.00  0.00    -0.004 A 
ENDBRANCH   1   2
BRANCH   1   8
ATOM      8  C   UNL     1       0.251   5.957  -6.743  0.00  0.00    -0.011 A 
ATOM      9  C   UNL     1       0.283   6.907  -5.763  0.00  0.00    -0.004 A 
ATOM     10  C   UNL     1      -0.854   7.114  -4.988  0.00  0.00    -0.000 A 
ATOM     11  C   UNL     1      -2.004   6.365  -5.156  0.00  0.00    -0.000 A 
ATOM     12  C   UNL     1      -2.122   5.680  -6.357  0.00  0.00    -0.000 A 
ATOM     13  C   UNL     1      -0.963   5.326  -7.000  0.00  0.00    -0.004 A 
ENDBRANCH   1   8
BRANCH   1  14
ATOM     14  C   UNL     1       2.545   6.563  -7.069  0.00  0.00    +0.033 C 
ATOM     15  C   UNL     1       2.940   5.862  -5.649  0.00  0.00    +0.073 C 
ATOM     16  N   UNL     1       4.349   6.150  -5.577  0.00  0.00    -0.272 NA
ATOM     17  C   UNL     1       4.859   6.241  -6.912  0.00  0.00    +0.072 C 
ATOM     18  C   UNL     1       3.744   5.760  -7.830  0.00  0.00    +0.020 C 
BRANCH  16  19
ATOM     19  C   UNL     1       4.434   7.400  -4.839  0.00  0.00    +0.077 C 
BRANCH  19  20
ATOM     20  C   UNL     1       5.400   7.126  -3.690  0.00  0.00    +0.044 C 
BRANCH  20  21
ATOM     21  C   UNL     1       4.549   6.939  -2.479  0.00  0.00    -0.021 A 
ATOM     22  C   UNL     1       4.351   7.956  -1.563  0.00  0.00    -0.005 A 
ATOM     23  C   UNL     1       3.140   7.933  -0.877  0.00  0.00    +0.015 A 
ATOM     24  C   UNL     1       2.739   8.893   0.201  0.00  0.00    +0.077 C 
ATOM     25  C   UNL     1       1.533   8.163   0.778  0.00  0.00    +0.210 C 
ATOM     26  O   UNL     1       2.002   6.817   0.735  0.00  0.00    -0.475 OA
ATOM     27  C   UNL     1       2.601   6.702  -0.523  0.00  0.00    +0.135 A 
ATOM     28  C   UNL     1       3.148   5.577  -1.129  0.00  0.00    +0.036 A 
ATOM     29  C   UNL     1       4.132   5.680  -2.084  0.00  0.00    -0.001 A 
ENDBRANCH  20  21
ENDBRANCH  19  20
ENDBRANCH  16  19
ENDBRANCH   1  14
BRANCH   1  31
ATOM     30  N   UNL     1       1.905   3.936  -7.198  0.00  0.00    -0.087 NA
ATOM     31  C   UNL     1       1.891   4.147  -6.989  0.00  0.00    +0.267 C 
ATOM     32  O   UNL     1       1.579   3.328  -6.131  0.00  0.00    -0.271 OA
ENDBRANCH   1  31
TORSDOF 7
ENDMDL
MODEL 9
REMARK VINA RESULT:      -8.8      3.457      6.482
REMARK  Name = 
REMARK  7 active torsions:
REMARK  status: ('A' for Active; 'I' for Inactive)
REMARK    1  A    between atoms: C_2  and  C_4
REMARK    2  A    between atoms: C_4  and  C_5
REMARK    3  A    between atoms: C_4  and  C_11
REMARK    4  A    between atoms: C_4  and  C_17
REMARK    5  A    between atoms: N_20  and  C_21
REMARK    6  A    between atoms: C_21  and  C_22
REMARK    7  A    between atoms: C_22  and  C_23
REMARK                            x       y       z     vdW  Elec       q    Type
REMARK                         _______ _______ _______ _____ _____    ______ ____
ROOT
ATOM      1  C   UNL     1       3.004   6.139  -1.185  0.00  0.00    +0.111 C 
ENDROOT
BRANCH   1   2
ATOM      2  C   UNL     1       3.446   6.970  -0.063  0.00  0.00    -0.011 A 
ATOM      3  C   UNL     1       2.805   8.121   0.353  0.00  0.00    -0.004 A 
ATOM      4  C   UNL     1       3.390   8.900   1.343  0.00  0.00    -0.000 A 
ATOM      5  C   UNL     1       4.755   8.825   1.593  0.00  0.00    -0.000 A 
ATOM      6  C   UNL     1       5.394   7.658   1.194  0.00  0.00    -0.000 A 
ATOM      7  C   UNL     1       4.694   6.723   0.442  0.00  0.00    -0.004 A 
ENDBRANCH   1   2
BRANCH   1   8
ATOM      8  C   UNL     1       3.865   6.460  -2.360  0.00  0.00    -0.011 A 
ATOM      9  C   UNL     1       4.121   7.717  -2.830  0.00  0.00    -0.004 A 
ATOM     10  C   UNL     1       4.703   7.862  -4.085  0.00  0.00    -0.000 A 
ATOM     11  C   UNL     1       4.998   6.775  -4.888  0.00  0.00    -0.000 A 
ATOM     12  C   UNL     1       5.058   5.542  -4.255  0.00  0.00    -0.000 A 
ATOM     13  C   UNL     1       4.314   5.380  -3.114  0.00  0.00    -0.004 A 
ENDBRANCH   1   8
BRANCH   1  14
ATOM     14  C   UNL     1       1.594   6.803  -1.679  0.00  0.00    +0.033 C 
ATOM     15  C   UNL     1       1.279   5.618  -2.757  0.00  0.00    +0.073 C 
ATOM     16  N   UNL     1      -0.153   5.523  -2.658  0.00  0.00    -0.272 NA
ATOM     17  C   UNL     1      -0.540   5.905  -1.332  0.00  0.00    +0.072 C 
ATOM     18  C   UNL     1       0.747   6.017  -0.527  0.00  0.00    +0.020 C 
BRANCH  16  19
ATOM     19  C   UNL     1      -0.656   6.420  -3.687  0.00  0.00    +0.077 C 
BRANCH  19  20
ATOM     20  C   UNL     1      -1.298   5.514  -4.734  0.00  0.00    +0.044 C 
BRANCH  20  21
ATOM     21  C   UNL     1      -0.607   5.825  -6.019  0.00  0.00    -0.021 A 
ATOM     22  C   UNL     1       0.370   6.800  -6.105  0.00  0.00    -0.005 A 
ATOM     23  C   UNL     1       1.343   6.605  -7.080  0.00  0.00    +0.015 A 
ATOM     24  C   UNL     1       2.455   7.559  -7.394  0.00  0.00    +0.077 C 
ATOM     25  C   UNL     1       2.934   6.987  -8.723  0.00  0.00    +0.210 C 
ATOM     26  O   UNL     1       1.686   6.645  -9.320  0.00  0.00    -0.475 OA
ATOM     27  C   UNL     1       0.967   6.033  -8.289  0.00  0.00    +0.135 A 
ATOM     28  C   UNL     1      -0.282   5.427  -8.338  0.00  0.00    +0.036 A 
ATOM     29  C   UNL     1      -1.083   5.338  -7.225  0.00  0.00    -0.001 A 
ENDBRANCH  20  21
ENDBRANCH  19  20
ENDBRANCH  16  19
ENDBRANCH   1  14
BRANCH   1  31
ATOM     30  N   UNL     1       2.636   4.675  -0.731  0.00  0.00    -0.087 NA
ATOM     31  C   UNL     1       2.818   4.740  -0.956  0.00  0.00    +0.267 C 
ATOM     32  O   UNL     1       3.506   3.749  -0.733  0.00  0.00    -0.271 OA
ENDBRANCH   1  31
TORSDOF 7
ENDMDL
