MODEL 1
REMARK VINA RESULT:      -7.6      0.000      0.000
REMARK  Name = 
REMARK  8 active torsions:
REMARK  status: ('A' for Active; 'I' for Inactive)
REMARK    1  A    between atoms: C_2  and  C_3
REMARK    2  A    between atoms: C_2  and  N_11
REMARK    3  A    between atoms: C_3  and  C_4
REMARK    4  A    between atoms: C_4  and  C_5
REMARK    5  A    between atoms: N_11  and  C_12
REMARK    6  A    between atoms: C_12  and  C_13
REMARK    7  A    between atoms: C_13  and  C_15
REMARK    8  A    between atoms: C_20  and  C_21
REMARK                            x       y       z     vdW  Elec       q    Type
REMARK                         _______ _______ _______ _____ _____    ______ ____
ROOT
ATOM      1  C   UNL     1       1.844   4.936  -5.730  0.00  0.00    +0.126 C 
ENDROOT
BRANCH   1   2
ATOM      2  C   UNL     1       2.357   6.513  -5.853  0.00  0.00    +0.192 C 
ATOM      3  O   UNL     1       3.767   6.080  -6.263  0.00  0.00    -0.217 OA
BRANCH   2   4
ATOM      4  C   UNL     1       2.785   6.557  -4.278  0.00  0.00    +0.009 A 
ATOM      5  C   UNL     1       1.658   6.433  -3.474  0.00  0.00    +0.006 A 
ATOM      6  C   UNL     1       1.801   5.946  -2.199  0.00  0.00    +0.095 A 
ATOM      7  C   UNL     1       2.979   5.302  -1.868  0.00  0.00    +0.200 A 
ATOM      8  O   UNL     1       3.257   4.964  -0.542  0.00  0.00    -0.286 OA
ATOM      9  C   UNL     1       4.059   5.229  -2.735  0.00  0.00    +0.042 A 
ATOM     10  C   UNL     1       3.848   5.713  -4.008  0.00  0.00    +0.001 A 
BRANCH   6  11
ATOM     11  C   UNL     1       0.635   5.577  -1.390  0.00  0.00    +0.287 C 
ATOM     12  O   UNL     1       0.004   4.503  -1.627  0.00  0.00    -0.267 OA
ATOM     13  N   UNL     1       0.204   6.470  -0.356  0.00  0.00    -0.084 NA
ENDBRANCH   6  11
ENDBRANCH   2   4
ENDBRANCH   1   2
BRANCH   1  14
ATOM     14  N   UNL     1       1.291   4.654  -7.053  0.00  0.00    -0.216 NA
BRANCH  14  16
ATOM     15  C   UNL     1       0.015   5.520  -8.793  0.00  0.00    +0.019 C 
ATOM     16  C   UNL     1       0.292   5.869  -7.206  0.00  0.00    +0.073 C 
BRANCH  16  17
ATOM     17  C   UNL     1      -1.024   5.016  -6.702  0.00  0.00    +0.022 C 
BRANCH  17  18
ATOM     18  C   UNL     1      -2.136   5.939  -6.438  0.00  0.00    +0.028 C 
BRANCH  18  19
ATOM     19  C   UNL     1      -2.374   6.301  -5.040  0.00  0.00    -0.022 A 
ATOM     20  C   UNL     1      -1.775   7.448  -4.545  0.00  0.00    -0.004 A 
ATOM     21  C   UNL     1      -1.980   7.841  -3.229  0.00  0.00    -0.000 A 
ATOM     22  C   UNL     1      -2.724   6.963  -2.453  0.00  0.00    -0.000 A 
ATOM     23  C   UNL     1      -3.106   5.720  -2.887  0.00  0.00    -0.000 A 
ATOM     24  C   UNL     1      -2.745   5.295  -4.156  0.00  0.00    -0.004 A 
ENDBRANCH  18  19
ENDBRANCH  17  18
ENDBRANCH  16  17
ENDBRANCH  14  16
ENDBRANCH   1  14
TORSDOF 8
ENDMDL
MODEL 2
REMARK VINA RESULT:      -7.6      5.639      9.709
REMARK  Name = 
REMARK  8 active torsions:
REMARK  status: ('A' for Active; 'I' for Inactive)
REMARK    1  A    between atoms: C_2  and  C_3
REMARK    2  A    between atoms: C_2  and  N_11
REMARK    3  A    between atoms: C_3  and  C_4
REMARK    4  A    between atoms: C_4  and  C_5
REMARK    5  A    between atoms: N_11  and  C_12
REMARK    6  A    between atoms: C_12  and  C_13
REMARK    7  A    between atoms: C_13  and  C_15
REMARK    8  A    between atoms: C_20  and  C_21
REMARK                            x       y       z     vdW  Elec       q    Type
REMARK                         _______ _______ _______ _____ _____    ______ ____
ROOT
ATOM      1  C   UNL     1       1.517   4.883  -9.179  0.00  0.00    +0.126 C 
ENDROOT
BRANCH   1   2
ATOM      2  C   UNL     1       0.038   5.498  -9.623  0.00  0.00    +0.192 C 
ATOM      3  O   UNL     1      -0.231   4.321 -10.564  0.00  0.00    -0.217 OA
BRANCH   2   4
ATOM      4  C   UNL     1       0.699   6.368 -10.836  0.00  0.00    +0.009 A 
ATOM      5  C   UNL     1       1.362   5.525 -11.721  0.00  0.00    +0.006 A 
ATOM      6  C   UNL     1       1.542   5.932 -13.018  0.00  0.00    +0.095 A 
ATOM      7  C   UNL     1       0.795   6.998 -13.484  0.00  0.00    +0.200 A 
ATOM      8  O   UNL     1       1.076   7.578 -14.724  0.00  0.00    -0.286 OA
ATOM      9  C   UNL     1      -0.042   7.739 -12.662  0.00  0.00    +0.042 A 
ATOM     10  C   UNL     1      -0.201   7.268 -11.377  0.00  0.00    +0.001 A 
BRANCH   6  11
ATOM     11  C   UNL     1       2.022   5.005 -14.048  0.00  0.00    +0.287 C 
ATOM     12  O   UNL     1       3.215   5.079 -14.473  0.00  0.00    -0.267 OA
ATOM     13  N   UNL     1       1.108   4.043 -14.587  0.00  0.00    -0.084 NA
ENDBRANCH   6  11
ENDBRANCH   2   4
ENDBRANCH   1   2
BRANCH   1  14
ATOM     14  N   UNL     1       1.873   5.668  -8.000  0.00  0.00    -0.216 NA
BRANCH  14  16
ATOM     15  C   UNL     1       3.154   3.851  -8.681  0.00  0.00    +0.019 C 
ATOM     16  C   UNL     1       2.856   4.663  -7.277  0.00  0.00    +0.073 C 
BRANCH  16  17
ATOM     17  C   UNL     1       4.179   5.627  -7.456  0.00  0.00    +0.022 C 
BRANCH  17  18
ATOM     18  C   UNL     1       5.078   5.046  -8.462  0.00  0.00    +0.028 C 
BRANCH  18  19
ATOM     19  C   UNL     1       5.741   5.983  -9.371  0.00  0.00    -0.022 A 
ATOM     20  C   UNL     1       4.968   6.654 -10.305  0.00  0.00    -0.004 A 
ATOM     21  C   UNL     1       5.548   7.562 -11.181  0.00  0.00    -0.000 A 
ATOM     22  C   UNL     1       6.932   7.658 -11.113  0.00  0.00    -0.000 A 
ATOM     23  C   UNL     1       7.703   6.816 -10.354  0.00  0.00    -0.000 A 
ATOM     24  C   UNL     1       7.099   5.813  -9.613  0.00  0.00    -0.004 A 
ENDBRANCH  18  19
ENDBRANCH  17  18
ENDBRANCH  16  17
ENDBRANCH  14  16
ENDBRANCH   1  14
TORSDOF 8
ENDMDL
MODEL 3
REMARK VINA RESULT:      -7.2      3.497      6.492
REMARK  Name = 
REMARK  8 active torsions:
REMARK  status: ('A' for Active; 'I' for Inactive)
REMARK    1  A    between atoms: C_2  and  C_3
REMARK    2  A    between atoms: C_2  and  N_11
REMARK    3  A    between atoms: C_3  and  C_4
REMARK    4  A    between atoms: C_4  and  C_5
REMARK    5  A    between atoms: N_11  and  C_12
REMARK    6  A    between atoms: C_12  and  C_13
REMARK    7  A    between atoms: C_13  and  C_15
REMARK    8  A    between atoms: C_20  and  C_21
REMARK                            x       y       z     vdW  Elec       q    Type
REMARK                         _______ _______ _______ _____ _____    ______ ____
ROOT
ATOM      1  C   UNL     1       0.890   6.157  -7.617  0.00  0.00    +0.126 C 
ENDROOT
BRANCH   1   2
ATOM      2  C   UNL     1       0.926   7.044  -6.211  0.00  0.00    +0.192 C 
ATOM      3  O   UNL     1       2.196   6.336  -5.733  0.00  0.00    -0.217 OA
BRANCH   2   4
ATOM      4  C   UNL     1      -0.018   5.961  -5.436  0.00  0.00    +0.009 A 
ATOM      5  C   UNL     1       0.435   5.779  -4.134  0.00  0.00    +0.006 A 
ATOM      6  C   UNL     1      -0.445   5.341  -3.178  0.00  0.00    +0.095 A 
ATOM      7  C   UNL     1      -1.800   5.404  -3.452  0.00  0.00    +0.200 A 
ATOM      8  O   UNL     1      -2.726   4.794  -2.603  0.00  0.00    -0.286 OA
ATOM      9  C   UNL     1      -2.293   5.784  -4.691  0.00  0.00    +0.042 A 
ATOM     10  C   UNL     1      -1.363   6.236  -5.601  0.00  0.00    +0.001 A 
BRANCH   6  11
ATOM     11  C   UNL     1      -0.092   5.351  -1.755  0.00  0.00    +0.287 C 
ATOM     12  O   UNL     1       0.563   4.389  -1.250  0.00  0.00    -0.267 OA
ATOM     13  N   UNL     1      -0.533   6.446  -0.944  0.00  0.00    -0.084 NA
ENDBRANCH   6  11
ENDBRANCH   2   4
ENDBRANCH   1   2
BRANCH   1  14
ATOM     14  N   UNL     1       2.197   5.504  -7.642  0.00  0.00    -0.216 NA
BRANCH  14  16
ATOM     15  C   UNL     1       0.623   5.229  -9.331  0.00  0.00    +0.019 C 
ATOM     16  C   UNL     1       1.953   4.429  -8.776  0.00  0.00    +0.073 C 
BRANCH  16  17
ATOM     17  C   UNL     1       2.951   5.162  -9.862  0.00  0.00    +0.022 C 
BRANCH  17  18
ATOM     18  C   UNL     1       4.350   4.878  -9.514  0.00  0.00    +0.028 C 
BRANCH  18  19
ATOM     19  C   UNL     1       5.357   5.807 -10.030  0.00  0.00    -0.022 A 
ATOM     20  C   UNL     1       6.644   5.730  -9.523  0.00  0.00    -0.004 A 
ATOM     21  C   UNL     1       7.639   6.580  -9.989  0.00  0.00    -0.000 A 
ATOM     22  C   UNL     1       7.223   7.546 -10.896  0.00  0.00    -0.000 A 
ATOM     23  C   UNL     1       5.905   7.763 -11.205  0.00  0.00    -0.000 A 
ATOM     24  C   UNL     1       4.922   6.998 -10.597  0.00  0.00    -0.004 A 
ENDBRANCH  18  19
ENDBRANCH  17  18
ENDBRANCH  16  17
ENDBRANCH  14  16
ENDBRANCH   1  14
TORSDOF 8
ENDMDL
MODEL 4
REMARK VINA RESULT:      -7.2      1.667      2.308
REMARK  Name = 
REMARK  8 active torsions:
REMARK  status: ('A' for Active; 'I' for Inactive)
REMARK    1  A    between atoms: C_2  and  C_3
REMARK    2  A    between atoms: C_2  and  N_11
REMARK    3  A    between atoms: C_3  and  C_4
REMARK    4  A    between atoms: C_4  and  C_5
REMARK    5  A    between atoms: N_11  and  C_12
REMARK    6  A    between atoms: C_12  and  C_13
REMARK    7  A    between atoms: C_13  and  C_15
REMARK    8  A    between atoms: C_20  and  C_21
REMARK                            x       y       z     vdW  Elec       q    Type
REMARK                         _______ _______ _______ _____ _____    ______ ____
ROOT
ATOM      1  C   UNL     1       3.371   5.331  -5.712  0.00  0.00    +0.126 C 
ENDROOT
BRANCH   1   2
ATOM      2  C   UNL     1       4.598   6.196  -4.997  0.00  0.00    +0.192 C 
ATOM      3  O   UNL     1       4.913   5.053  -4.028  0.00  0.00    -0.217 OA
BRANCH   2   4
ATOM      4  C   UNL     1       3.572   6.876  -3.925  0.00  0.00    +0.009 A 
ATOM      5  C   UNL     1       2.711   5.913  -3.412  0.00  0.00    +0.006 A 
ATOM      6  C   UNL     1       2.136   6.121  -2.184  0.00  0.00    +0.095 A 
ATOM      7  C   UNL     1       2.668   7.100  -1.365  0.00  0.00    +0.200 A 
ATOM      8  O   UNL     1       2.008   7.487  -0.197  0.00  0.00    -0.286 OA
ATOM      9  C   UNL     1       3.681   7.951  -1.781  0.00  0.00    +0.042 A 
ATOM     10  C   UNL     1       4.234   7.679  -3.014  0.00  0.00    +0.001 A 
BRANCH   6  11
ATOM     11  C   UNL     1       1.410   5.051  -1.492  0.00  0.00    +0.287 C 
ATOM     12  O   UNL     1       2.002   4.321  -0.640  0.00  0.00    -0.267 OA
ATOM     13  N   UNL     1       0.035   4.825  -1.826  0.00  0.00    -0.084 NA
ENDBRANCH   6  11
ENDBRANCH   2   4
ENDBRANCH   1   2
BRANCH   1  14
ATOM     14  N   UNL     1       3.794   5.229  -7.107  0.00  0.00    -0.216 NA
BRANCH  14  16
ATOM     15  C   UNL     1       2.163   3.797  -6.273  0.00  0.00    +0.019 C 
ATOM     16  C   UNL     1       2.548   4.477  -7.725  0.00  0.00    +0.073 C 
BRANCH  16  17
ATOM     17  C   UNL     1       1.515   5.740  -7.502  0.00  0.00    +0.022 C 
BRANCH  17  18
ATOM     18  C   UNL     1       0.150   5.231  -7.310  0.00  0.00    +0.028 C 
BRANCH  18  19
ATOM     19  C   UNL     1      -0.740   6.033  -6.468  0.00  0.00    -0.022 A 
ATOM     20  C   UNL     1      -0.182   6.779  -5.443  0.00  0.00    -0.004 A 
ATOM     21  C   UNL     1      -0.982   7.566  -4.626  0.00  0.00    -0.000 A 
ATOM     22  C   UNL     1      -2.348   7.463  -4.849  0.00  0.00    -0.000 A 
ATOM     23  C   UNL     1      -2.899   6.542  -5.703  0.00  0.00    -0.000 A 
ATOM     24  C   UNL     1      -2.076   5.661  -6.385  0.00  0.00    -0.004 A 
ENDBRANCH  18  19
ENDBRANCH  17  18
ENDBRANCH  16  17
ENDBRANCH  14  16
ENDBRANCH   1  14
TORSDOF 8
ENDMDL
MODEL 5
REMARK VINA RESULT:      -7.0      3.762      6.591
REMARK  Name = 
REMARK  8 active torsions:
REMARK  status: ('A' for Active; 'I' for Inactive)
REMARK    1  A    between atoms: C_2  and  C_3
REMARK    2  A    between atoms: C_2  and  N_11
REMARK    3  A    between atoms: C_3  and  C_4
REMARK    4  A    between atoms: C_4  and  C_5
REMARK    5  A    between atoms: N_11  and  C_12
REMARK    6  A    between atoms: C_12  and  C_13
REMARK    7  A    between atoms: C_13  and  C_15
REMARK    8  A    between atoms: C_20  and  C_21
REMARK                            x       y       z     vdW  Elec       q    Type
REMARK                         _______ _______ _______ _____ _____    ______ ____
ROOT
ATOM      1  C   UNL     1       2.685   5.390  -5.758  0.00  0.00    +0.126 C 
ENDROOT
BRANCH   1   2
ATOM      2  C   UNL     1       3.081   6.750  -4.886  0.00  0.00    +0.192 C 
ATOM      3  O   UNL     1       3.787   5.921  -3.810  0.00  0.00    -0.217 OA
BRANCH   2   4
ATOM      4  C   UNL     1       1.675   6.699  -4.059  0.00  0.00    +0.009 A 
ATOM      5  C   UNL     1       0.603   6.865  -4.929  0.00  0.00    +0.006 A 
ATOM      6  C   UNL     1      -0.626   6.369  -4.574  0.00  0.00    +0.095 A 
ATOM      7  C   UNL     1      -0.692   5.456  -3.537  0.00  0.00    +0.200 A 
ATOM      8  O   UNL     1      -1.926   5.070  -3.006  0.00  0.00    -0.286 OA
ATOM      9  C   UNL     1       0.413   5.111  -2.774  0.00  0.00    +0.042 A 
ATOM     10  C   UNL     1       1.622   5.621  -3.194  0.00  0.00    +0.001 A 
BRANCH   6  11
ATOM     11  C   UNL     1      -1.729   6.307  -5.537  0.00  0.00    +0.287 C 
ATOM     12  O   UNL     1      -2.678   7.146  -5.480  0.00  0.00    -0.267 OA
ATOM     13  N   UNL     1      -1.732   5.259  -6.514  0.00  0.00    -0.084 NA
ENDBRANCH   6  11
ENDBRANCH   2   4
ENDBRANCH   1   2
BRANCH   1  14
ATOM     14  N   UNL     1       3.396   5.576  -7.021  0.00  0.00    -0.216 NA
BRANCH  14  16
ATOM     15  C   UNL     1       1.997   6.650  -8.536  0.00  0.00    +0.019 C 
ATOM     16  C   UNL     1       2.285   5.104  -8.041  0.00  0.00    +0.073 C 
BRANCH  16  17
ATOM     17  C   UNL     1       3.349   4.821  -9.266  0.00  0.00    +0.022 C 
BRANCH  17  18
ATOM     18  C   UNL     1       3.682   6.089  -9.930  0.00  0.00    +0.028 C 
BRANCH  18  19
ATOM     19  C   UNL     1       5.099   6.338 -10.201  0.00  0.00    -0.022 A 
ATOM     20  C   UNL     1       6.042   5.719  -9.397  0.00  0.00    -0.004 A 
ATOM     21  C   UNL     1       7.399   5.913  -9.623  0.00  0.00    -0.000 A 
ATOM     22  C   UNL     1       7.715   6.828 -10.619  0.00  0.00    -0.000 A 
ATOM     23  C   UNL     1       6.776   7.610 -11.240  0.00  0.00    -0.000 A 
ATOM     24  C   UNL     1       5.443   7.503 -10.875  0.00  0.00    -0.004 A 
ENDBRANCH  18  19
ENDBRANCH  17  18
ENDBRANCH  16  17
ENDBRANCH  14  16
ENDBRANCH   1  14
TORSDOF 8
ENDMDL
MODEL 6
REMARK VINA RESULT:      -6.9      4.681      7.217
REMARK  Name = 
REMARK  8 active torsions:
REMARK  status: ('A' for Active; 'I' for Inactive)
REMARK    1  A    between atoms: C_2  and  C_3
REMARK    2  A    between atoms: C_2  and  N_11
REMARK    3  A    between atoms: C_3  and  C_4
REMARK    4  A    between atoms: C_4  and  C_5
REMARK    5  A    between atoms: N_11  and  C_12
REMARK    6  A    between atoms: C_12  and  C_13
REMARK    7  A    between atoms: C_13  and  C_15
REMARK    8  A    between atoms: C_20  and  C_21
REMARK                            x       y       z     vdW  Elec       q    Type
REMARK                         _______ _______ _______ _____ _____    ______ ____
ROOT
ATOM      1  C   UNL     1       3.180   5.504  -8.720  0.00  0.00    +0.126 C 
ENDROOT
BRANCH   1   2
ATOM      2  C   UNL     1       4.659   4.768  -8.533  0.00  0.00    +0.192 C 
ATOM      3  O   UNL     1       4.909   5.485  -7.204  0.00  0.00    -0.217 OA
BRANCH   2   4
ATOM      4  C   UNL     1       5.418   5.952  -9.361  0.00  0.00    +0.009 A 
ATOM      5  C   UNL     1       6.501   5.428 -10.058  0.00  0.00    +0.006 A 
ATOM      6  C   UNL     1       6.956   6.085 -11.173  0.00  0.00    +0.095 A 
ATOM      7  C   UNL     1       6.143   7.045 -11.749  0.00  0.00    +0.200 A 
ATOM      8  O   UNL     1       6.631   7.878 -12.758  0.00  0.00    -0.286 OA
ATOM      9  C   UNL     1       4.944   7.447 -11.179  0.00  0.00    +0.042 A 
ATOM     10  C   UNL     1       4.529   6.734 -10.076  0.00  0.00    +0.001 A 
BRANCH   6  11
ATOM     11  C   UNL     1       7.934   5.468 -12.075  0.00  0.00    +0.287 C 
ATOM     12  O   UNL     1       7.585   4.531 -12.855  0.00  0.00    -0.267 OA
ATOM     13  N   UNL     1       9.292   5.920 -12.029  0.00  0.00    -0.084 NA
ENDBRANCH   6  11
ENDBRANCH   2   4
ENDBRANCH   1   2
BRANCH   1  14
ATOM     14  N   UNL     1       2.737   5.734  -7.346  0.00  0.00    -0.216 NA
BRANCH  14  16
ATOM     15  C   UNL     1       1.772   3.918  -6.261  0.00  0.00    +0.019 C 
ATOM     16  C   UNL     1       1.320   5.035  -7.386  0.00  0.00    +0.073 C 
BRANCH  16  17
ATOM     17  C   UNL     1       0.656   6.030  -6.254  0.00  0.00    +0.022 C 
BRANCH  17  18
ATOM     18  C   UNL     1      -0.806   5.890  -6.274  0.00  0.00    +0.028 C 
BRANCH  18  19
ATOM     19  C   UNL     1      -1.516   6.229  -5.039  0.00  0.00    -0.022 A 
ATOM     20  C   UNL     1      -2.487   5.356  -4.576  0.00  0.00    -0.004 A 
ATOM     21  C   UNL     1      -3.179   5.626  -3.402  0.00  0.00    -0.000 A 
ATOM     22  C   UNL     1      -2.898   6.851  -2.812  0.00  0.00    -0.000 A 
ATOM     23  C   UNL     1      -2.116   7.807  -3.408  0.00  0.00    -0.000 A 
ATOM     24  C   UNL     1      -1.569   7.564  -4.658  0.00  0.00    -0.004 A 
ENDBRANCH  18  19
ENDBRANCH  17  18
ENDBRANCH  16  17
ENDBRANCH  14  16
ENDBRANCH   1  14
TORSDOF 8
ENDMDL
MODEL 7
REMARK VINA RESULT:      -6.9      3.577      6.250
REMARK  Name = 
REMARK  8 active torsions:
REMARK  status: ('A' for Active; 'I' for Inactive)
REMARK    1  A    between atoms: C_2  and  C_3
REMARK    2  A    between atoms: C_2  and  N_11
REMARK    3  A    between atoms: C_3  and  C_4
REMARK    4  A    between atoms: C_4  and  C_5
REMARK    5  A    between atoms: N_11  and  C_12
REMARK    6  A    between atoms: C_12  and  C_13
REMARK    7  A    between atoms: C_13  and  C_15
REMARK    8  A    between atoms: C_20  and  C_21
REMARK                            x       y       z     vdW  Elec       q    Type
REMARK                         _______ _______ _______ _____ _____    ______ ____
ROOT
ATOM      1  C   UNL     1       0.786   5.435  -7.461  0.00  0.00    +0.126 C 
ENDROOT
BRANCH   1   2
ATOM      2  C   UNL     1       2.057   4.506  -6.927  0.00  0.00    +0.192 C 
ATOM      3  O   UNL     1       1.212   3.897  -5.805  0.00  0.00    -0.217 OA
BRANCH   2   4
ATOM      4  C   UNL     1       2.585   5.693  -5.940  0.00  0.00    +0.009 A 
ATOM      5  C   UNL     1       2.224   5.418  -4.626  0.00  0.00    +0.006 A 
ATOM      6  C   UNL     1       2.957   5.966  -3.604  0.00  0.00    +0.095 A 
ATOM      7  C   UNL     1       4.200   6.498  -3.898  0.00  0.00    +0.200 A 
ATOM      8  O   UNL     1       4.900   7.239  -2.944  0.00  0.00    -0.286 OA
ATOM      9  C   UNL     1       4.681   6.599  -5.195  0.00  0.00    +0.042 A 
ATOM     10  C   UNL     1       3.911   6.010  -6.174  0.00  0.00    +0.001 A 
BRANCH   6  11
ATOM     11  C   UNL     1       2.772   5.533  -2.216  0.00  0.00    +0.287 C 
ATOM     12  O   UNL     1       3.493   4.609  -1.731  0.00  0.00    -0.267 OA
ATOM     13  N   UNL     1       1.740   6.148  -1.435  0.00  0.00    -0.084 NA
ENDBRANCH   6  11
ENDBRANCH   2   4
ENDBRANCH   1   2
BRANCH   1  14
ATOM     14  N   UNL     1       1.295   6.035  -8.692  0.00  0.00    -0.216 NA
BRANCH  14  16
ATOM     15  C   UNL     1       0.530   4.682 -10.422  0.00  0.00    +0.019 C 
ATOM     16  C   UNL     1       1.844   4.747  -9.427  0.00  0.00    +0.073 C 
BRANCH  16  17
ATOM     17  C   UNL     1       2.735   5.595 -10.522  0.00  0.00    +0.022 C 
BRANCH  17  18
ATOM     18  C   UNL     1       3.591   6.559  -9.817  0.00  0.00    +0.028 C 
BRANCH  18  19
ATOM     19  C   UNL     1       5.020   6.526 -10.135  0.00  0.00    -0.022 A 
ATOM     20  C   UNL     1       5.862   5.796  -9.313  0.00  0.00    -0.004 A 
ATOM     21  C   UNL     1       7.223   5.723  -9.580  0.00  0.00    -0.000 A 
ATOM     22  C   UNL     1       7.665   6.500 -10.643  0.00  0.00    -0.000 A 
ATOM     23  C   UNL     1       6.864   7.401 -11.295  0.00  0.00    -0.000 A 
ATOM     24  C   UNL     1       5.547   7.563 -10.894  0.00  0.00    -0.004 A 
ENDBRANCH  18  19
ENDBRANCH  17  18
ENDBRANCH  16  17
ENDBRANCH  14  16
ENDBRANCH   1  14
TORSDOF 8
ENDMDL
MODEL 8
REMARK VINA RESULT:      -6.9      3.819      7.063
REMARK  Name = 
REMARK  8 active torsions:
REMARK  status: ('A' for Active; 'I' for Inactive)
REMARK    1  A    between atoms: C_2  and  C_3
REMARK    2  A    between atoms: C_2  and  N_11
REMARK    3  A    between atoms: C_3  and  C_4
REMARK    4  A    between atoms: C_4  and  C_5
REMARK    5  A    between atoms: N_11  and  C_12
REMARK    6  A    between atoms: C_12  and  C_13
REMARK    7  A    between atoms: C_13  and  C_15
REMARK    8  A    between atoms: C_20  and  C_21
REMARK                            x       y       z     vdW  Elec       q    Type
REMARK                         _______ _______ _______ _____ _____    ______ ____
ROOT
ATOM      1  C   UNL     1       1.573   5.943  -8.809  0.00  0.00    +0.126 C 
ENDROOT
BRANCH   1   2
ATOM      2  C   UNL     1       2.793   6.712  -7.980  0.00  0.00    +0.192 C 
ATOM      3  O   UNL     1       2.815   7.871  -8.980  0.00  0.00    -0.217 OA
BRANCH   2   4
ATOM      4  C   UNL     1       3.943   5.914  -8.818  0.00  0.00    +0.009 A 
ATOM      5  C   UNL     1       4.288   6.631  -9.958  0.00  0.00    +0.006 A 
ATOM      6  C   UNL     1       5.525   6.439 -10.517  0.00  0.00    +0.095 A 
ATOM      7  C   UNL     1       6.495   5.799  -9.767  0.00  0.00    +0.200 A 
ATOM      8  O   UNL     1       7.700   5.403 -10.350  0.00  0.00    -0.286 OA
ATOM      9  C   UNL     1       6.231   5.247  -8.522  0.00  0.00    +0.042 A 
ATOM     10  C   UNL     1       4.978   5.493  -8.003  0.00  0.00    +0.001 A 
BRANCH   6  11
ATOM     11  C   UNL     1       6.031   7.324 -11.571  0.00  0.00    +0.287 C 
ATOM     12  O   UNL     1       6.382   8.512 -11.298  0.00  0.00    -0.267 OA
ATOM     13  N   UNL     1       6.084   6.832 -12.916  0.00  0.00    -0.084 NA
ENDBRANCH   6  11
ENDBRANCH   2   4
ENDBRANCH   1   2
BRANCH   1  14
ATOM     14  N   UNL     1       1.118   4.918  -7.873  0.00  0.00    -0.216 NA
BRANCH  14  16
ATOM     15  C   UNL     1      -1.015   5.246  -7.008  0.00  0.00    +0.019 C 
ATOM     16  C   UNL     1       0.504   5.827  -6.735  0.00  0.00    +0.073 C 
BRANCH  16  17
ATOM     17  C   UNL     1       0.794   4.739  -5.533  0.00  0.00    +0.022 C 
BRANCH  17  18
ATOM     18  C   UNL     1       1.227   5.448  -4.321  0.00  0.00    +0.028 C 
BRANCH  18  19
ATOM     19  C   UNL     1       2.650   5.779  -4.225  0.00  0.00    -0.022 A 
ATOM     20  C   UNL     1       3.022   7.111  -4.290  0.00  0.00    -0.004 A 
ATOM     21  C   UNL     1       4.358   7.478  -4.190  0.00  0.00    -0.000 A 
ATOM     22  C   UNL     1       5.263   6.426  -4.126  0.00  0.00    -0.000 A 
ATOM     23  C   UNL     1       4.900   5.116  -4.304  0.00  0.00    -0.000 A 
ATOM     24  C   UNL     1       3.575   4.800  -4.563  0.00  0.00    -0.004 A 
ENDBRANCH  18  19
ENDBRANCH  17  18
ENDBRANCH  16  17
ENDBRANCH  14  16
ENDBRANCH   1  14
TORSDOF 8
ENDMDL
MODEL 9
REMARK VINA RESULT:      -6.8      5.097      8.827
REMARK  Name = 
REMARK  8 active torsions:
REMARK  status: ('A' for Active; 'I' for Inactive)
REMARK    1  A    between atoms: C_2  and  C_3
REMARK    2  A    between atoms: C_2  and  N_11
REMARK    3  A    between atoms: C_3  and  C_4
REMARK    4  A    between atoms: C_4  and  C_5
REMARK    5  A    between atoms: N_11  and  C_12
REMARK    6  A    between atoms: C_12  and  C_13
REMARK    7  A    between atoms: C_13  and  C_15
REMARK    8  A    between atoms: C_20  and  C_21
REMARK                            x       y       z     vdW  Elec       q    Type
REMARK                         _______ _______ _______ _____ _____    ______ ____
ROOT
ATOM      1  C   UNL     1       3.269   5.808  -8.160  0.00  0.00    +0.126 C 
ENDROOT
BRANCH   1   2
ATOM      2  C   UNL     1       4.307   4.703  -8.845  0.00  0.00    +0.192 C 
ATOM      3  O   UNL     1       5.481   5.198  -7.996  0.00  0.00    -0.217 OA
BRANCH   2   4
ATOM      4  C   UNL     1       4.695   5.729 -10.053  0.00  0.00    +0.009 A 
ATOM      5  C   UNL     1       6.018   5.538 -10.435  0.00  0.00    +0.006 A 
ATOM      6  C   UNL     1       6.403   5.894 -11.703  0.00  0.00    +0.095 A 
ATOM      7  C   UNL     1       5.421   6.124 -12.649  0.00  0.00    +0.200 A 
ATOM      8  O   UNL     1       5.744   6.677 -13.890  0.00  0.00    -0.286 OA
ATOM      9  C   UNL     1       4.069   6.119 -12.338  0.00  0.00    +0.042 A 
ATOM     10  C   UNL     1       3.744   5.730 -11.057  0.00  0.00    +0.001 A 
BRANCH   6  11
ATOM     11  C   UNL     1       7.712   5.507 -12.238  0.00  0.00    +0.287 C 
ATOM     12  O   UNL     1       7.807   4.567 -13.084  0.00  0.00    -0.267 OA
ATOM     13  N   UNL     1       8.879   6.187 -11.760  0.00  0.00    -0.084 NA
ENDBRANCH   6  11
ENDBRANCH   2   4
ENDBRANCH   1   2
BRANCH   1  14
ATOM     14  N   UNL     1       2.075   5.019  -7.867  0.00  0.00    -0.216 NA
BRANCH  14  16
ATOM     15  C   UNL     1       2.259   7.193  -7.063  0.00  0.00    +0.019 C 
ATOM     16  C   UNL     1       1.050   6.173  -7.529  0.00  0.00    +0.073 C 
BRANCH  16  17
ATOM     17  C   UNL     1       1.023   6.771  -9.063  0.00  0.00    +0.022 C 
BRANCH  17  18
ATOM     18  C   UNL     1       0.130   5.952  -9.894  0.00  0.00    +0.028 C 
BRANCH  18  19
ATOM     19  C   UNL     1       0.385   5.957 -11.336  0.00  0.00    -0.022 A 
ATOM     20  C   UNL     1       0.192   7.136 -12.036  0.00  0.00    -0.004 A 
ATOM     21  C   UNL     1       0.433   7.195 -13.402  0.00  0.00    -0.000 A 
ATOM     22  C   UNL     1       0.770   5.989 -14.002  0.00  0.00    -0.000 A 
ATOM     23  C   UNL     1       0.723   4.787 -13.343  0.00  0.00    -0.000 A 
ATOM     24  C   UNL     1       0.322   4.747 -12.017  0.00  0.00    -0.004 A 
ENDBRANCH  18  19
ENDBRANCH  17  18
ENDBRANCH  16  17
ENDBRANCH  14  16
ENDBRANCH   1  14
TORSDOF 8
ENDMDL
