MODEL 1
REMARK VINA RESULT:      -2.5      0.000      0.000
REMARK  Name = 
REMARK  1 active torsions:
REMARK  status: ('A' for Active; 'I' for Inactive)
REMARK    1  A    between atoms: C_2  and  C_3
REMARK                            x       y       z     vdW  Elec       q    Type
REMARK                         _______ _______ _______ _____ _____    ______ ____
ROOT
ATOM      1  N   UNL     1       7.765   4.749 -12.746  0.00  0.00    -0.130 NA
ATOM      2  C   UNL     1       8.418   5.941 -12.228  0.00  0.00    +0.122 C 
ENDROOT
BRANCH   2   3
ATOM      3  C   UNL     1       7.721   6.456 -10.976  0.00  0.00    +0.089 C 
ATOM      4  S   UNL     1       6.561   7.779 -11.386  0.00  0.00    -0.081 S 
ENDBRANCH   2   3
TORSDOF 1
ENDMDL
MODEL 2
REMARK VINA RESULT:      -2.4     12.621     12.960
REMARK  Name = 
REMARK  1 active torsions:
REMARK  status: ('A' for Active; 'I' for Inactive)
REMARK    1  A    between atoms: C_2  and  C_3
REMARK                            x       y       z     vdW  Elec       q    Type
REMARK                         _______ _______ _______ _____ _____    ______ ____
ROOT
ATOM      1  N   UNL     1      -2.640   4.898  -2.238  0.00  0.00    -0.130 NA
ATOM      2  C   UNL     1      -3.070   5.264  -3.579  0.00  0.00    +0.122 C 
ENDROOT
BRANCH   2   3
ATOM      3  C   UNL     1      -1.908   5.794  -4.408  0.00  0.00    +0.089 C 
ATOM      4  S   UNL     1      -2.270   5.669  -6.173  0.00  0.00    -0.081 S 
ENDBRANCH   2   3
TORSDOF 1
ENDMDL
MODEL 3
REMARK VINA RESULT:      -2.2      1.556      1.556
REMARK  Name = 
REMARK  1 active torsions:
REMARK  status: ('A' for Active; 'I' for Inactive)
REMARK    1  A    between atoms: C_2  and  C_3
REMARK                            x       y       z     vdW  Elec       q    Type
REMARK                         _______ _______ _______ _____ _____    ______ ____
ROOT
ATOM      1  N   UNL     1       7.739   4.797 -13.235  0.00  0.00    -0.130 NA
ATOM      2  C   UNL     1       7.751   5.938 -12.333  0.00  0.00    +0.122 C 
ENDROOT
BRANCH   2   3
ATOM      3  C   UNL     1       6.644   5.833 -11.292  0.00  0.00    +0.089 C 
ATOM      4  S   UNL     1       7.329   5.873  -9.621  0.00  0.00    -0.081 S 
ENDBRANCH   2   3
TORSDOF 1
ENDMDL
MODEL 4
REMARK VINA RESULT:      -2.1      2.187      2.199
REMARK  Name = 
REMARK  1 active torsions:
REMARK  status: ('A' for Active; 'I' for Inactive)
REMARK    1  A    between atoms: C_2  and  C_3
REMARK                            x       y       z     vdW  Elec       q    Type
REMARK                         _______ _______ _______ _____ _____    ______ ____
ROOT
ATOM      1  N   UNL     1       7.728   4.694 -12.739  0.00  0.00    -0.130 NA
ATOM      2  C   UNL     1       6.611   5.466 -12.216  0.00  0.00    +0.122 C 
ENDROOT
BRANCH   2   3
ATOM      3  C   UNL     1       6.599   6.879 -12.784  0.00  0.00    +0.089 C 
ATOM      4  S   UNL     1       6.528   6.843 -14.589  0.00  0.00    -0.081 S 
ENDBRANCH   2   3
TORSDOF 1
ENDMDL
MODEL 5
REMARK VINA RESULT:      -2.1     12.041     12.381
REMARK  Name = 
REMARK  1 active torsions:
REMARK  status: ('A' for Active; 'I' for Inactive)
REMARK    1  A    between atoms: C_2  and  C_3
REMARK                            x       y       z     vdW  Elec       q    Type
REMARK                         _______ _______ _______ _____ _____    ______ ____
ROOT
ATOM      1  N   UNL     1      -2.668   4.845  -2.520  0.00  0.00    -0.130 NA
ATOM      2  C   UNL     1      -1.403   5.542  -2.693  0.00  0.00    +0.122 C 
ENDROOT
BRANCH   2   3
ATOM      3  C   UNL     1      -1.025   5.650  -4.165  0.00  0.00    +0.089 C 
ATOM      4  S   UNL     1       0.738   5.334  -4.399  0.00  0.00    -0.081 S 
ENDBRANCH   2   3
TORSDOF 1
ENDMDL
MODEL 6
REMARK VINA RESULT:      -2.0      7.250      7.512
REMARK  Name = 
REMARK  1 active torsions:
REMARK  status: ('A' for Active; 'I' for Inactive)
REMARK    1  A    between atoms: C_2  and  C_3
REMARK                            x       y       z     vdW  Elec       q    Type
REMARK                         _______ _______ _______ _____ _____    ______ ____
ROOT
ATOM      1  N   UNL     1       2.153   8.211  -7.834  0.00  0.00    -0.130 NA
ATOM      2  C   UNL     1       2.848   7.042  -7.317  0.00  0.00    +0.122 C 
ENDROOT
BRANCH   2   3
ATOM      3  C   UNL     1       2.592   6.859  -5.827  0.00  0.00    +0.089 C 
ATOM      4  S   UNL     1       4.109   7.115  -4.880  0.00  0.00    -0.081 S 
ENDBRANCH   2   3
TORSDOF 1
ENDMDL
MODEL 7
REMARK VINA RESULT:      -2.0      6.603      6.664
REMARK  Name = 
REMARK  1 active torsions:
REMARK  status: ('A' for Active; 'I' for Inactive)
REMARK    1  A    between atoms: C_2  and  C_3
REMARK                            x       y       z     vdW  Elec       q    Type
REMARK                         _______ _______ _______ _____ _____    ______ ____
ROOT
ATOM      1  N   UNL     1       2.149   8.094  -7.868  0.00  0.00    -0.130 NA
ATOM      2  C   UNL     1       2.936   7.076  -8.545  0.00  0.00    +0.122 C 
ENDROOT
BRANCH   2   3
ATOM      3  C   UNL     1       3.133   5.849  -7.664  0.00  0.00    +0.089 C 
ATOM      4  S   UNL     1       2.801   4.335  -8.591  0.00  0.00    -0.081 S 
ENDBRANCH   2   3
TORSDOF 1
ENDMDL
MODEL 8
REMARK VINA RESULT:      -1.9      2.198      2.246
REMARK  Name = 
REMARK  1 active torsions:
REMARK  status: ('A' for Active; 'I' for Inactive)
REMARK    1  A    between atoms: C_2  and  C_3
REMARK                            x       y       z     vdW  Elec       q    Type
REMARK                         _______ _______ _______ _____ _____    ______ ____
ROOT
ATOM      1  N   UNL     1       6.103   4.921 -13.459  0.00  0.00    -0.130 NA
ATOM      2  C   UNL     1       5.939   5.701 -12.242  0.00  0.00    +0.122 C 
ENDROOT
BRANCH   2   3
ATOM      3  C   UNL     1       7.100   6.666 -12.041  0.00  0.00    +0.089 C 
ATOM      4  S   UNL     1       8.681   5.824 -12.277  0.00  0.00    -0.081 S 
ENDBRANCH   2   3
TORSDOF 1
ENDMDL
MODEL 9
REMARK VINA RESULT:      -1.9      3.063      3.164
REMARK  Name = 
REMARK  1 active torsions:
REMARK  status: ('A' for Active; 'I' for Inactive)
REMARK    1  A    between atoms: C_2  and  C_3
REMARK                            x       y       z     vdW  Elec       q    Type
REMARK                         _______ _______ _______ _____ _____    ______ ____
ROOT
ATOM      1  N   UNL     1       6.412   8.063 -11.373  0.00  0.00    -0.130 NA
ATOM      2  C   UNL     1       5.244   7.347 -10.883  0.00  0.00    +0.122 C 
ENDROOT
BRANCH   2   3
ATOM      3  C   UNL     1       5.618   5.966 -10.362  0.00  0.00    +0.089 C 
ATOM      4  S   UNL     1       7.345   5.926  -9.834  0.00  0.00    -0.081 S 
ENDBRANCH   2   3
TORSDOF 1
ENDMDL
