MODEL 1
REMARK VINA RESULT:      -4.9      0.000      0.000
REMARK  Name = 
REMARK  5 active torsions:
REMARK  status: ('A' for Active; 'I' for Inactive)
REMARK    1  A    between atoms: C_2  and  C_3
REMARK    2  A    between atoms: C_3  and  C_5
REMARK    3  A    between atoms: C_5  and  C_7
REMARK    4  A    between atoms: C_7  and  C_9
REMARK    5  A    between atoms: C_9  and  C_11
REMARK                            x       y       z     vdW  Elec       q    Type
REMARK                         _______ _______ _______ _____ _____    ______ ____
ROOT
ATOM      1  C   UNL     1       6.600   5.750 -11.458  0.00  0.00    +0.217 C 
ATOM      2  O   UNL     1       7.155   6.726 -10.458  0.00  0.00    -0.217 OA
ENDROOT
BRANCH   1   3
ATOM      3  C   UNL     1       7.631   6.208 -12.768  0.00  0.00    +0.217 C 
ATOM      4  O   UNL     1       7.519   4.827 -13.397  0.00  0.00    -0.217 OA
BRANCH   3   6
ATOM      5  O   UNL     1       9.540   5.869 -12.384  0.00  0.00    -0.217 OA
ATOM      6  C   UNL     1       9.048   5.797 -12.023  0.00  0.00    +0.217 C 
ENDBRANCH   3   6
ENDBRANCH   1   3
BRANCH   1   7
ATOM      7  C   UNL     1       5.348   6.755 -12.085  0.00  0.00    +0.217 C 
ATOM      8  O   UNL     1       4.824   7.270 -10.773  0.00  0.00    -0.217 OA
BRANCH   7   9
ATOM      9  C   UNL     1       4.293   5.389 -12.206  0.00  0.00    +0.217 C 
ATOM     10  O   UNL     1       3.002   6.164 -11.986  0.00  0.00    -0.217 OA
BRANCH   9  11
ATOM     11  C   UNL     1       4.152   5.597 -13.837  0.00  0.00    +0.217 C 
ATOM     12  O   UNL     1       3.168   4.749 -14.266  0.00  0.00    -0.217 OA
ENDBRANCH   9  11
ENDBRANCH   7   9
ENDBRANCH   1   7
TORSDOF 5
ENDMDL
MODEL 2
REMARK VINA RESULT:      -4.6      1.196      2.727
REMARK  Name = 
REMARK  5 active torsions:
REMARK  status: ('A' for Active; 'I' for Inactive)
REMARK    1  A    between atoms: C_2  and  C_3
REMARK    2  A    between atoms: C_3  and  C_5
REMARK    3  A    between atoms: C_5  and  C_7
REMARK    4  A    between atoms: C_7  and  C_9
REMARK    5  A    between atoms: C_9  and  C_11
REMARK                            x       y       z     vdW  Elec       q    Type
REMARK                         _______ _______ _______ _____ _____    ______ ____
ROOT
ATOM      1  C   UNL     1       6.660   5.968 -12.757  0.00  0.00    +0.217 C 
ATOM      2  O   UNL     1       7.108   4.980 -13.798  0.00  0.00    -0.217 OA
ENDROOT
BRANCH   1   3
ATOM      3  C   UNL     1       7.748   5.450 -11.517  0.00  0.00    +0.217 C 
ATOM      4  O   UNL     1       7.698   6.814 -10.843  0.00  0.00    -0.217 OA
BRANCH   3   6
ATOM      5  O   UNL     1       9.633   5.832 -11.970  0.00  0.00    -0.217 OA
ATOM      6  C   UNL     1       9.132   5.855 -12.324  0.00  0.00    +0.217 C 
ENDBRANCH   3   6
ENDBRANCH   1   3
BRANCH   1   7
ATOM      7  C   UNL     1       5.405   5.011 -12.063  0.00  0.00    +0.217 C 
ATOM      8  O   UNL     1       4.708   4.631 -13.339  0.00  0.00    -0.217 OA
BRANCH   7   9
ATOM      9  C   UNL     1       4.478   6.436 -11.739  0.00  0.00    +0.217 C 
ATOM     10  O   UNL     1       3.115   5.788 -11.931  0.00  0.00    -0.217 OA
BRANCH   9  11
ATOM     11  C   UNL     1       4.430   6.083 -10.128  0.00  0.00    +0.217 C 
ATOM     12  O   UNL     1       3.701   7.070  -9.522  0.00  0.00    -0.217 OA
ENDBRANCH   9  11
ENDBRANCH   7   9
ENDBRANCH   1   7
TORSDOF 5
ENDMDL
MODEL 3
REMARK VINA RESULT:      -4.5      9.091     11.193
REMARK  Name = 
REMARK  5 active torsions:
REMARK  status: ('A' for Active; 'I' for Inactive)
REMARK    1  A    between atoms: C_2  and  C_3
REMARK    2  A    between atoms: C_3  and  C_5
REMARK    3  A    between atoms: C_5  and  C_7
REMARK    4  A    between atoms: C_7  and  C_9
REMARK    5  A    between atoms: C_9  and  C_11
REMARK                            x       y       z     vdW  Elec       q    Type
REMARK                         _______ _______ _______ _____ _____    ______ ____
ROOT
ATOM      1  C   UNL     1      -0.544   5.407  -4.452  0.00  0.00    +0.217 C 
ATOM      2  O   UNL     1      -1.493   6.152  -5.349  0.00  0.00    -0.217 OA
ENDROOT
BRANCH   1   3
ATOM      3  C   UNL     1      -1.182   6.001  -2.958  0.00  0.00    +0.217 C 
ATOM      4  O   UNL     1      -0.535   4.866  -2.179  0.00  0.00    -0.217 OA
BRANCH   3   6
ATOM      5  O   UNL     1      -2.769   4.909  -2.515  0.00  0.00    -0.217 OA
ATOM      6  C   UNL     1      -2.613   5.179  -3.044  0.00  0.00    +0.217 C 
ENDBRANCH   3   6
ENDBRANCH   1   3
BRANCH   1   7
ATOM      7  C   UNL     1       0.701   6.598  -4.400  0.00  0.00    +0.217 C 
ATOM      8  O   UNL     1       0.604   7.056  -5.828  0.00  0.00    -0.217 OA
BRANCH   7   9
ATOM      9  C   UNL     1       1.899   5.377  -4.656  0.00  0.00    +0.217 C 
ATOM     10  O   UNL     1       2.921   6.290  -5.316  0.00  0.00    -0.217 OA
BRANCH   9  11
ATOM     11  C   UNL     1       2.572   5.676  -3.179  0.00  0.00    +0.217 C 
ATOM     12  O   UNL     1       3.777   5.029  -3.148  0.00  0.00    -0.217 OA
ENDBRANCH   9  11
ENDBRANCH   7   9
ENDBRANCH   1   7
TORSDOF 5
ENDMDL
MODEL 4
REMARK VINA RESULT:      -4.5      5.622      7.055
REMARK  Name = 
REMARK  5 active torsions:
REMARK  status: ('A' for Active; 'I' for Inactive)
REMARK    1  A    between atoms: C_2  and  C_3
REMARK    2  A    between atoms: C_3  and  C_5
REMARK    3  A    between atoms: C_5  and  C_7
REMARK    4  A    between atoms: C_7  and  C_9
REMARK    5  A    between atoms: C_9  and  C_11
REMARK                            x       y       z     vdW  Elec       q    Type
REMARK                         _______ _______ _______ _____ _____    ______ ____
ROOT
ATOM      1  C   UNL     1       2.131   6.289  -9.141  0.00  0.00    +0.217 C 
ATOM      2  O   UNL     1       1.173   7.215  -9.835  0.00  0.00    -0.217 OA
ENDROOT
BRANCH   1   3
ATOM      3  C   UNL     1       1.026   4.972  -8.952  0.00  0.00    +0.217 C 
ATOM      4  O   UNL     1       2.159   3.958  -8.989  0.00  0.00    -0.217 OA
BRANCH   3   6
ATOM      5  O   UNL     1       0.351   4.295 -10.681  0.00  0.00    -0.217 OA
ATOM      6  C   UNL     1       0.731   4.764 -10.564  0.00  0.00    +0.217 C 
ENDBRANCH   3   6
ENDBRANCH   1   3
BRANCH   1   7
ATOM      7  C   UNL     1       1.809   6.799  -7.526  0.00  0.00    +0.217 C 
ATOM      8  O   UNL     1       2.017   8.273  -7.732  0.00  0.00    -0.217 OA
BRANCH   7   9
ATOM      9  C   UNL     1       3.434   6.423  -7.067  0.00  0.00    +0.217 C 
ATOM     10  O   UNL     1       3.537   7.470  -5.969  0.00  0.00    -0.217 OA
BRANCH   9  11
ATOM     11  C   UNL     1       2.906   5.309  -5.970  0.00  0.00    +0.217 C 
ATOM     12  O   UNL     1       3.982   4.966  -5.198  0.00  0.00    -0.217 OA
ENDBRANCH   9  11
ENDBRANCH   7   9
ENDBRANCH   1   7
TORSDOF 5
ENDMDL
MODEL 5
REMARK VINA RESULT:      -4.5      1.237      4.862
REMARK  Name = 
REMARK  5 active torsions:
REMARK  status: ('A' for Active; 'I' for Inactive)
REMARK    1  A    between atoms: C_2  and  C_3
REMARK    2  A    between atoms: C_3  and  C_5
REMARK    3  A    between atoms: C_5  and  C_7
REMARK    4  A    between atoms: C_7  and  C_9
REMARK    5  A    between atoms: C_9  and  C_11
REMARK                            x       y       z     vdW  Elec       q    Type
REMARK                         _______ _______ _______ _____ _____    ______ ____
ROOT
ATOM      1  C   UNL     1       5.177   5.068 -12.161  0.00  0.00    +0.217 C 
ATOM      2  O   UNL     1       4.616   4.657 -13.494  0.00  0.00    -0.217 OA
ENDROOT
BRANCH   1   3
ATOM      3  C   UNL     1       4.269   6.531 -12.011  0.00  0.00    +0.217 C 
ATOM      4  O   UNL     1       4.463   6.549 -10.502  0.00  0.00    -0.217 OA
BRANCH   3   6
ATOM      5  O   UNL     1       2.327   6.201 -11.850  0.00  0.00    -0.217 OA
ATOM      6  C   UNL     1       2.795   5.802 -11.853  0.00  0.00    +0.217 C 
ENDBRANCH   3   6
ENDBRANCH   1   3
BRANCH   1   7
ATOM      7  C   UNL     1       6.529   5.961 -12.751  0.00  0.00    +0.217 C 
ATOM      8  O   UNL     1       6.857   5.083 -13.926  0.00  0.00    -0.217 OA
BRANCH   7   9
ATOM      9  C   UNL     1       7.565   5.174 -11.610  0.00  0.00    +0.217 C 
ATOM     10  O   UNL     1       8.857   5.412 -12.376  0.00  0.00    -0.217 OA
BRANCH   9  11
ATOM     11  C   UNL     1       7.785   6.584 -10.781  0.00  0.00    +0.217 C 
ATOM     12  O   UNL     1       7.642   6.295  -9.452  0.00  0.00    -0.217 OA
ENDBRANCH   9  11
ENDBRANCH   7   9
ENDBRANCH   1   7
TORSDOF 5
ENDMDL
MODEL 6
REMARK VINA RESULT:      -4.5      9.610     11.046
REMARK  Name = 
REMARK  5 active torsions:
REMARK  status: ('A' for Active; 'I' for Inactive)
REMARK    1  A    between atoms: C_2  and  C_3
REMARK    2  A    between atoms: C_3  and  C_5
REMARK    3  A    between atoms: C_5  and  C_7
REMARK    4  A    between atoms: C_7  and  C_9
REMARK    5  A    between atoms: C_9  and  C_11
REMARK                            x       y       z     vdW  Elec       q    Type
REMARK                         _______ _______ _______ _____ _____    ______ ____
ROOT
ATOM      1  C   UNL     1       0.230   5.312  -4.131  0.00  0.00    +0.217 C 
ATOM      2  O   UNL     1       1.632   5.222  -3.594  0.00  0.00    -0.217 OA
ENDROOT
BRANCH   1   3
ATOM      3  C   UNL     1       0.374   6.907  -4.783  0.00  0.00    +0.217 C 
ATOM      4  O   UNL     1      -0.687   6.620  -5.835  0.00  0.00    -0.217 OA
BRANCH   3   6
ATOM      5  O   UNL     1       1.686   6.996  -6.257  0.00  0.00    -0.217 OA
ATOM      6  C   UNL     1       1.585   6.549  -5.848  0.00  0.00    +0.217 C 
ENDBRANCH   3   6
ENDBRANCH   1   3
BRANCH   1   7
ATOM      7  C   UNL     1      -0.514   5.952  -2.714  0.00  0.00    +0.217 C 
ATOM      8  O   UNL     1      -0.152   4.838  -1.772  0.00  0.00    -0.217 OA
BRANCH   7   9
ATOM      9  C   UNL     1      -2.043   5.313  -3.211  0.00  0.00    +0.217 C 
ATOM     10  O   UNL     1      -2.525   4.947  -1.815  0.00  0.00    -0.217 OA
BRANCH   9  11
ATOM     11  C   UNL     1      -2.749   6.799  -3.075  0.00  0.00    +0.217 C 
ATOM     12  O   UNL     1      -3.933   6.622  -2.413  0.00  0.00    -0.217 OA
ENDBRANCH   9  11
ENDBRANCH   7   9
ENDBRANCH   1   7
TORSDOF 5
ENDMDL
MODEL 7
REMARK VINA RESULT:      -4.5      1.086      4.186
REMARK  Name = 
REMARK  5 active torsions:
REMARK  status: ('A' for Active; 'I' for Inactive)
REMARK    1  A    between atoms: C_2  and  C_3
REMARK    2  A    between atoms: C_3  and  C_5
REMARK    3  A    between atoms: C_5  and  C_7
REMARK    4  A    between atoms: C_7  and  C_9
REMARK    5  A    between atoms: C_9  and  C_11
REMARK                            x       y       z     vdW  Elec       q    Type
REMARK                         _______ _______ _______ _____ _____    ______ ____
ROOT
ATOM      1  C   UNL     1       5.052   6.451 -12.141  0.00  0.00    +0.217 C 
ATOM      2  O   UNL     1       3.724   6.600 -11.454  0.00  0.00    -0.217 OA
ENDROOT
BRANCH   1   3
ATOM      3  C   UNL     1       4.674   4.987 -12.981  0.00  0.00    +0.217 C 
ATOM      4  O   UNL     1       5.866   5.160 -13.910  0.00  0.00    -0.217 OA
BRANCH   3   6
ATOM      5  O   UNL     1       3.458   5.285 -14.511  0.00  0.00    -0.217 OA
ATOM      6  C   UNL     1       3.660   5.681 -14.086  0.00  0.00    +0.217 C 
ENDBRANCH   3   6
ENDBRANCH   1   3
BRANCH   1   7
ATOM      7  C   UNL     1       5.845   5.545 -10.908  0.00  0.00    +0.217 C 
ATOM      8  O   UNL     1       5.173   6.180  -9.723  0.00  0.00    -0.217 OA
BRANCH   7   9
ATOM      9  C   UNL     1       7.203   6.616 -10.974  0.00  0.00    +0.217 C 
ATOM     10  O   UNL     1       7.669   6.372  -9.546  0.00  0.00    -0.217 OA
BRANCH   9  11
ATOM     11  C   UNL     1       8.182   5.401 -11.512  0.00  0.00    +0.217 C 
ATOM     12  O   UNL     1       9.029   5.948 -12.436  0.00  0.00    -0.217 OA
ENDBRANCH   9  11
ENDBRANCH   7   9
ENDBRANCH   1   7
TORSDOF 5
ENDMDL
MODEL 8
REMARK VINA RESULT:      -4.5      5.780      6.537
REMARK  Name = 
REMARK  5 active torsions:
REMARK  status: ('A' for Active; 'I' for Inactive)
REMARK    1  A    between atoms: C_2  and  C_3
REMARK    2  A    between atoms: C_3  and  C_5
REMARK    3  A    between atoms: C_5  and  C_7
REMARK    4  A    between atoms: C_7  and  C_9
REMARK    5  A    between atoms: C_9  and  C_11
REMARK                            x       y       z     vdW  Elec       q    Type
REMARK                         _______ _______ _______ _____ _____    ______ ____
ROOT
ATOM      1  C   UNL     1       2.213   6.322  -6.467  0.00  0.00    +0.217 C 
ATOM      2  O   UNL     1       3.049   7.392  -5.823  0.00  0.00    -0.217 OA
ENDROOT
BRANCH   1   3
ATOM      3  C   UNL     1       3.421   5.085  -6.432  0.00  0.00    +0.217 C 
ATOM      4  O   UNL     1       2.364   3.991  -6.473  0.00  0.00    -0.217 OA
BRANCH   3   6
ATOM      5  O   UNL     1       3.879   4.528  -4.592  0.00  0.00    -0.217 OA
ATOM      6  C   UNL     1       3.517   4.986  -4.786  0.00  0.00    +0.217 C 
ENDBRANCH   3   6
ENDBRANCH   1   3
BRANCH   1   7
ATOM      7  C   UNL     1       2.615   6.676  -8.105  0.00  0.00    +0.217 C 
ATOM      8  O   UNL     1       2.339   8.153  -8.068  0.00  0.00    -0.217 OA
BRANCH   7   9
ATOM      9  C   UNL     1       1.036   6.185  -8.614  0.00  0.00    +0.217 C 
ATOM     10  O   UNL     1       0.946   7.135  -9.799  0.00  0.00    -0.217 OA
BRANCH   9  11
ATOM     11  C   UNL     1       1.674   5.015  -9.588  0.00  0.00    +0.217 C 
ATOM     12  O   UNL     1       0.682   4.619 -10.443  0.00  0.00    -0.217 OA
ENDBRANCH   9  11
ENDBRANCH   7   9
ENDBRANCH   1   7
TORSDOF 5
ENDMDL
MODEL 9
REMARK VINA RESULT:      -4.5      9.874     11.618
REMARK  Name = 
REMARK  5 active torsions:
REMARK  status: ('A' for Active; 'I' for Inactive)
REMARK    1  A    between atoms: C_2  and  C_3
REMARK    2  A    between atoms: C_3  and  C_5
REMARK    3  A    between atoms: C_5  and  C_7
REMARK    4  A    between atoms: C_7  and  C_9
REMARK    5  A    between atoms: C_9  and  C_11
REMARK                            x       y       z     vdW  Elec       q    Type
REMARK                         _______ _______ _______ _____ _____    ______ ____
ROOT
ATOM      1  C   UNL     1       0.905   5.841  -2.155  0.00  0.00    +0.217 C 
ATOM      2  O   UNL     1       0.110   4.623  -1.774  0.00  0.00    -0.217 OA
ENDROOT
BRANCH   1   3
ATOM      3  C   UNL     1       1.137   5.411  -3.814  0.00  0.00    +0.217 C 
ATOM      4  O   UNL     1       1.455   6.851  -4.188  0.00  0.00    -0.217 OA
BRANCH   3   6
ATOM      5  O   UNL     1      -0.533   5.516  -4.864  0.00  0.00    -0.217 OA
ATOM      6  C   UNL     1      -0.441   5.599  -4.262  0.00  0.00    +0.217 C 
ENDBRANCH   3   6
ENDBRANCH   1   3
BRANCH   1   7
ATOM      7  C   UNL     1       2.467   5.222  -1.769  0.00  0.00    +0.217 C 
ATOM      8  O   UNL     1       2.067   4.377  -0.592  0.00  0.00    -0.217 OA
BRANCH   7   9
ATOM      9  C   UNL     1       2.832   6.658  -0.878  0.00  0.00    +0.217 C 
ATOM     10  O   UNL     1       3.883   6.026   0.022  0.00  0.00    -0.217 OA
BRANCH   9  11
ATOM     11  C   UNL     1       4.001   7.079  -1.964  0.00  0.00    +0.217 C 
ATOM     12  O   UNL     1       3.798   8.394  -2.283  0.00  0.00    -0.217 OA
ENDBRANCH   9  11
ENDBRANCH   7   9
ENDBRANCH   1   7
TORSDOF 5
ENDMDL
