MODEL 1
REMARK VINA RESULT:      -5.6      0.000      0.000
REMARK  Name = 
REMARK  20 active torsions:
REMARK  status: ('A' for Active; 'I' for Inactive)
REMARK    1  A    between atoms: C_2  and  C_3
REMARK    2  A    between atoms: C_3  and  C_4
REMARK    3  A    between atoms: C_4  and  C_5
REMARK    4  A    between atoms: C_5  and  C_6
REMARK    5  A    between atoms: C_6  and  C_7
REMARK    6  A    between atoms: C_7  and  C_8
REMARK    7  A    between atoms: C_8  and  C_9
REMARK    8  A    between atoms: C_9  and  C_10
REMARK    9  A    between atoms: C_10  and  C_11
REMARK   10  A    between atoms: C_11  and  C_12
REMARK   11  A    between atoms: C_12  and  C_13
REMARK   12  A    between atoms: C_13  and  C_14
REMARK   13  A    between atoms: C_14  and  C_15
REMARK   14  A    between atoms: C_15  and  C_16
REMARK   15  A    between atoms: C_16  and  O_17
REMARK   16  A    between atoms: O_17  and  P_18
REMARK   17  A    between atoms: P_18  and  O_21
REMARK   18  A    between atoms: O_21  and  C_22
REMARK   19  A    between atoms: C_22  and  C_23
REMARK   20  A    between atoms: C_23  and  N_24
REMARK                            x       y       z     vdW  Elec       q    Type
REMARK                         _______ _______ _______ _____ _____    ______ ____
ROOT
ATOM      1  C   UNL     1       4.648   6.335  -3.328  0.00  0.00    +0.003 C 
ENDROOT
BRANCH   1   2
ATOM      2  C   UNL     1       4.756   7.352  -4.434  0.00  0.00    +0.000 C 
BRANCH   2   3
ATOM      3  C   UNL     1       3.855   6.891  -5.557  0.00  0.00    +0.000 C 
BRANCH   3   4
ATOM      4  C   UNL     1       3.801   5.383  -5.502  0.00  0.00    +0.000 C 
BRANCH   4   5
ATOM      5  C   UNL     1       2.354   4.967  -5.647  0.00  0.00    +0.000 C 
BRANCH   5   6
ATOM      6  C   UNL     1       1.611   6.106  -6.317  0.00  0.00    +0.000 C 
BRANCH   6   7
ATOM      7  C   UNL     1       0.729   5.577  -7.421  0.00  0.00    +0.000 C 
BRANCH   7   8
ATOM      8  C   UNL     1       1.533   5.418  -8.684  0.00  0.00    +0.000 C 
BRANCH   8   9
ATOM      9  C   UNL     1       1.980   6.762  -9.201  0.00  0.00    +0.000 C 
BRANCH   9  10
ATOM     10  C   UNL     1       3.490   6.775  -9.390  0.00  0.00    +0.000 C 
BRANCH  10  11
ATOM     11  C   UNL     1       4.002   5.348  -9.392  0.00  0.00    +0.000 C 
BRANCH  11  12
ATOM     12  C   UNL     1       5.401   5.351  -8.824  0.00  0.00    +0.000 C 
BRANCH  12  14
ATOM     13  C   UNL     1       7.733   5.555  -9.503  0.00  0.00    +0.000 C 
ATOM     14  C   UNL     1       6.374   5.886  -9.843  0.00  0.00    +0.000 C 
ENDBRANCH  12  14
ENDBRANCH  11  12
ENDBRANCH  10  11
ENDBRANCH   9  10
ENDBRANCH   8   9
ENDBRANCH   7   8
ENDBRANCH   6   7
ENDBRANCH   5   6
ENDBRANCH   4   5
ENDBRANCH   3   4
ENDBRANCH   2   3
ENDBRANCH   1   2
BRANCH   1  15
ATOM     15  C   UNL     1       4.538   7.083  -2.011  0.00  0.00    +0.033 C 
BRANCH  15  16
ATOM     16  C   UNL     1       3.085   7.253  -1.630  0.00  0.00    +0.149 C 
BRANCH  16  17
ATOM     17  O   UNL     1       2.331   6.270  -2.255  0.00  0.00    -0.314 OA
BRANCH  17  18
ATOM     18  P   UNL     1       1.585   5.302  -1.090  0.00  0.00    +0.214 P 
ATOM     19  O   UNL     1       1.249   6.213   0.293  0.00  0.00    -0.437 OA
ATOM     20  O   UNL     1       2.492   4.157  -0.677  0.00  0.00    -0.517 OA
BRANCH  18  21
ATOM     21  O   UNL     1       0.154   4.646  -1.709  0.00  0.00    -0.308 OA
BRANCH  21  22
ATOM     22  C   UNL     1      -0.752   5.641  -2.085  0.00  0.00    +0.210 C 
BRANCH  22  23
ATOM     23  C   UNL     1      -0.873   5.590  -3.582  0.00  0.00    +0.142 C 
BRANCH  23  24
ATOM     24  N   UNL     1      -2.167   6.023  -4.065  0.00  0.00    +0.313 N 
ATOM     25  C   UNL     1      -3.246   5.474  -3.276  0.00  0.00    +0.171 C 
ATOM     26  C   UNL     1      -2.371   5.741  -5.464  0.00  0.00    +0.171 C 
ATOM     27  C   UNL     1      -2.211   7.471  -3.881  0.00  0.00    +0.171 C 
ENDBRANCH  23  24
ENDBRANCH  22  23
ENDBRANCH  21  22
ENDBRANCH  18  21
ENDBRANCH  17  18
ENDBRANCH  16  17
ENDBRANCH  15  16
ENDBRANCH   1  15
TORSDOF 20
ENDMDL
MODEL 2
REMARK VINA RESULT:      -5.6      3.886      6.924
REMARK  Name = 
REMARK  20 active torsions:
REMARK  status: ('A' for Active; 'I' for Inactive)
REMARK    1  A    between atoms: C_2  and  C_3
REMARK    2  A    between atoms: C_3  and  C_4
REMARK    3  A    between atoms: C_4  and  C_5
REMARK    4  A    between atoms: C_5  and  C_6
REMARK    5  A    between atoms: C_6  and  C_7
REMARK    6  A    between atoms: C_7  and  C_8
REMARK    7  A    between atoms: C_8  and  C_9
REMARK    8  A    between atoms: C_9  and  C_10
REMARK    9  A    between atoms: C_10  and  C_11
REMARK   10  A    between atoms: C_11  and  C_12
REMARK   11  A    between atoms: C_12  and  C_13
REMARK   12  A    between atoms: C_13  and  C_14
REMARK   13  A    between atoms: C_14  and  C_15
REMARK   14  A    between atoms: C_15  and  C_16
REMARK   15  A    between atoms: C_16  and  O_17
REMARK   16  A    between atoms: O_17  and  P_18
REMARK   17  A    between atoms: P_18  and  O_21
REMARK   18  A    between atoms: O_21  and  C_22
REMARK   19  A    between atoms: C_22  and  C_23
REMARK   20  A    between atoms: C_23  and  N_24
REMARK                            x       y       z     vdW  Elec       q    Type
REMARK                         _______ _______ _______ _____ _____    ______ ____
ROOT
ATOM      1  C   UNL     1       5.106   6.131  -3.820  0.00  0.00    +0.003 C 
ENDROOT
BRANCH   1   2
ATOM      2  C   UNL     1       4.247   4.954  -3.436  0.00  0.00    +0.000 C 
BRANCH   2   3
ATOM      3  C   UNL     1       3.692   5.235  -2.057  0.00  0.00    +0.000 C 
BRANCH   3   4
ATOM      4  C   UNL     1       2.508   6.157  -2.228  0.00  0.00    +0.000 C 
BRANCH   4   5
ATOM      5  C   UNL     1       1.255   5.308  -2.202  0.00  0.00    +0.000 C 
BRANCH   5   6
ATOM      6  C   UNL     1       0.643   5.347  -3.589  0.00  0.00    +0.000 C 
BRANCH   6   7
ATOM      7  C   UNL     1       1.012   6.633  -4.287  0.00  0.00    +0.000 C 
BRANCH   7   8
ATOM      8  C   UNL     1       0.317   6.705  -5.621  0.00  0.00    +0.000 C 
BRANCH   8   9
ATOM      9  C   UNL     1      -0.434   5.427  -5.897  0.00  0.00    +0.000 C 
BRANCH   9  10
ATOM     10  C   UNL     1      -1.872   5.739  -6.287  0.00  0.00    +0.000 C 
BRANCH  10  11
ATOM     11  C   UNL     1      -2.548   6.474  -5.147  0.00  0.00    +0.000 C 
BRANCH  11  12
ATOM     12  C   UNL     1      -2.952   5.457  -4.108  0.00  0.00    +0.000 C 
BRANCH  12  14
ATOM     13  C   UNL     1      -2.350   7.401  -2.765  0.00  0.00    +0.000 C 
ATOM     14  C   UNL     1      -2.896   6.069  -2.732  0.00  0.00    +0.000 C 
ENDBRANCH  12  14
ENDBRANCH  11  12
ENDBRANCH  10  11
ENDBRANCH   9  10
ENDBRANCH   8   9
ENDBRANCH   7   8
ENDBRANCH   6   7
ENDBRANCH   5   6
ENDBRANCH   4   5
ENDBRANCH   3   4
ENDBRANCH   2   3
ENDBRANCH   1   2
BRANCH   1  15
ATOM     15  C   UNL     1       4.603   6.665  -5.149  0.00  0.00    +0.033 C 
BRANCH  15  16
ATOM     16  C   UNL     1       4.142   5.524  -6.026  0.00  0.00    +0.149 C 
BRANCH  16  17
ATOM     17  O   UNL     1       4.983   5.424  -7.125  0.00  0.00    -0.314 OA
BRANCH  17  18
ATOM     18  P   UNL     1       4.063   5.311  -8.536  0.00  0.00    +0.214 P 
ATOM     19  O   UNL     1       3.990   3.704  -9.053  0.00  0.00    -0.437 OA
ATOM     20  O   UNL     1       4.686   6.126  -9.654  0.00  0.00    -0.517 OA
BRANCH  18  21
ATOM     21  O   UNL     1       2.501   5.898  -8.261  0.00  0.00    -0.308 OA
BRANCH  21  22
ATOM     22  C   UNL     1       2.121   6.834  -9.226  0.00  0.00    +0.210 C 
BRANCH  22  23
ATOM     23  C   UNL     1       0.670   6.593  -9.533  0.00  0.00    +0.142 C 
BRANCH  23  24
ATOM     24  N   UNL     1       0.424   6.284 -10.925  0.00  0.00    +0.313 N 
ATOM     25  C   UNL     1      -0.433   7.267 -11.550  0.00  0.00    +0.171 C 
ATOM     26  C   UNL     1      -0.103   4.957 -11.125  0.00  0.00    +0.171 C 
ATOM     27  C   UNL     1       1.716   6.369 -11.601  0.00  0.00    +0.171 C 
ENDBRANCH  23  24
ENDBRANCH  22  23
ENDBRANCH  21  22
ENDBRANCH  18  21
ENDBRANCH  17  18
ENDBRANCH  16  17
ENDBRANCH  15  16
ENDBRANCH   1  15
TORSDOF 20
ENDMDL
MODEL 3
REMARK VINA RESULT:      -5.6      2.191      4.675
REMARK  Name = 
REMARK  20 active torsions:
REMARK  status: ('A' for Active; 'I' for Inactive)
REMARK    1  A    between atoms: C_2  and  C_3
REMARK    2  A    between atoms: C_3  and  C_4
REMARK    3  A    between atoms: C_4  and  C_5
REMARK    4  A    between atoms: C_5  and  C_6
REMARK    5  A    between atoms: C_6  and  C_7
REMARK    6  A    between atoms: C_7  and  C_8
REMARK    7  A    between atoms: C_8  and  C_9
REMARK    8  A    between atoms: C_9  and  C_10
REMARK    9  A    between atoms: C_10  and  C_11
REMARK   10  A    between atoms: C_11  and  C_12
REMARK   11  A    between atoms: C_12  and  C_13
REMARK   12  A    between atoms: C_13  and  C_14
REMARK   13  A    between atoms: C_14  and  C_15
REMARK   14  A    between atoms: C_15  and  C_16
REMARK   15  A    between atoms: C_16  and  O_17
REMARK   16  A    between atoms: O_17  and  P_18
REMARK   17  A    between atoms: P_18  and  O_21
REMARK   18  A    between atoms: O_21  and  C_22
REMARK   19  A    between atoms: C_22  and  C_23
REMARK   20  A    between atoms: C_23  and  N_24
REMARK                            x       y       z     vdW  Elec       q    Type
REMARK                         _______ _______ _______ _____ _____    ______ ____
ROOT
ATOM      1  C   UNL     1      -2.300   5.743  -6.265  0.00  0.00    +0.003 C 
ENDROOT
BRANCH   1   2
ATOM      2  C   UNL     1      -1.056   4.954  -6.581  0.00  0.00    +0.000 C 
BRANCH   2   3
ATOM      3  C   UNL     1      -0.433   5.572  -7.812  0.00  0.00    +0.000 C 
BRANCH   3   4
ATOM      4  C   UNL     1       0.940   6.065  -7.424  0.00  0.00    +0.000 C 
BRANCH   4   5
ATOM      5  C   UNL     1       1.874   4.875  -7.419  0.00  0.00    +0.000 C 
BRANCH   5   6
ATOM      6  C   UNL     1       2.319   4.632  -8.848  0.00  0.00    +0.000 C 
BRANCH   6   7
ATOM      7  C   UNL     1       3.744   4.137  -8.875  0.00  0.00    +0.000 C 
BRANCH   7   8
ATOM      8  C   UNL     1       4.679   5.289  -9.128  0.00  0.00    +0.000 C 
BRANCH   8   9
ATOM      9  C   UNL     1       4.647   5.688 -10.583  0.00  0.00    +0.000 C 
BRANCH   9  10
ATOM     10  C   UNL     1       5.055   7.146 -10.735  0.00  0.00    +0.000 C 
BRANCH  10  11
ATOM     11  C   UNL     1       6.224   7.238 -11.695  0.00  0.00    +0.000 C 
BRANCH  11  12
ATOM     12  C   UNL     1       7.487   6.937 -10.924  0.00  0.00    +0.000 C 
BRANCH  12  14
ATOM     13  C   UNL     1       7.713   5.445 -12.839  0.00  0.00    +0.000 C 
ATOM     14  C   UNL     1       8.412   6.084 -11.754  0.00  0.00    +0.000 C 
ENDBRANCH  12  14
ENDBRANCH  11  12
ENDBRANCH  10  11
ENDBRANCH   9  10
ENDBRANCH   8   9
ENDBRANCH   7   8
ENDBRANCH   6   7
ENDBRANCH   5   6
ENDBRANCH   4   5
ENDBRANCH   3   4
ENDBRANCH   2   3
ENDBRANCH   1   2
BRANCH   1  15
ATOM     15  C   UNL     1      -1.893   6.947  -5.435  0.00  0.00    +0.033 C 
BRANCH  15  16
ATOM     16  C   UNL     1      -2.697   6.991  -4.155  0.00  0.00    +0.149 C 
BRANCH  16  17
ATOM     17  O   UNL     1      -1.838   7.188  -3.083  0.00  0.00    -0.314 OA
BRANCH  17  18
ATOM     18  P   UNL     1      -1.493   5.705  -2.353  0.00  0.00    +0.214 P 
ATOM     19  O   UNL     1      -2.733   4.602  -2.668  0.00  0.00    -0.437 OA
ATOM     20  O   UNL     1      -1.384   5.858  -0.847  0.00  0.00    -0.517 OA
BRANCH  18  21
ATOM     21  O   UNL     1      -0.024   5.100  -2.930  0.00  0.00    -0.308 OA
BRANCH  21  22
ATOM     22  C   UNL     1       0.913   6.117  -3.131  0.00  0.00    +0.210 C 
BRANCH  22  23
ATOM     23  C   UNL     1       1.932   6.007  -2.032  0.00  0.00    +0.142 C 
BRANCH  23  24
ATOM     24  N   UNL     1       3.290   6.213  -2.489  0.00  0.00    +0.313 N 
ATOM     25  C   UNL     1       3.430   7.457  -3.213  0.00  0.00    +0.171 C 
ATOM     26  C   UNL     1       3.794   5.114  -3.274  0.00  0.00    +0.171 C 
ATOM     27  C   UNL     1       4.114   6.333  -1.290  0.00  0.00    +0.171 C 
ENDBRANCH  23  24
ENDBRANCH  22  23
ENDBRANCH  21  22
ENDBRANCH  18  21
ENDBRANCH  17  18
ENDBRANCH  16  17
ENDBRANCH  15  16
ENDBRANCH   1  15
TORSDOF 20
ENDMDL
MODEL 4
REMARK VINA RESULT:      -5.5      3.801      7.940
REMARK  Name = 
REMARK  20 active torsions:
REMARK  status: ('A' for Active; 'I' for Inactive)
REMARK    1  A    between atoms: C_2  and  C_3
REMARK    2  A    between atoms: C_3  and  C_4
REMARK    3  A    between atoms: C_4  and  C_5
REMARK    4  A    between atoms: C_5  and  C_6
REMARK    5  A    between atoms: C_6  and  C_7
REMARK    6  A    between atoms: C_7  and  C_8
REMARK    7  A    between atoms: C_8  and  C_9
REMARK    8  A    between atoms: C_9  and  C_10
REMARK    9  A    between atoms: C_10  and  C_11
REMARK   10  A    between atoms: C_11  and  C_12
REMARK   11  A    between atoms: C_12  and  C_13
REMARK   12  A    between atoms: C_13  and  C_14
REMARK   13  A    between atoms: C_14  and  C_15
REMARK   14  A    between atoms: C_15  and  C_16
REMARK   15  A    between atoms: C_16  and  O_17
REMARK   16  A    between atoms: O_17  and  P_18
REMARK   17  A    between atoms: P_18  and  O_21
REMARK   18  A    between atoms: O_21  and  C_22
REMARK   19  A    between atoms: C_22  and  C_23
REMARK   20  A    between atoms: C_23  and  N_24
REMARK                            x       y       z     vdW  Elec       q    Type
REMARK                         _______ _______ _______ _____ _____    ______ ____
ROOT
ATOM      1  C   UNL     1       4.551   6.704  -3.419  0.00  0.00    +0.003 C 
ENDROOT
BRANCH   1   2
ATOM      2  C   UNL     1       3.914   5.340  -3.351  0.00  0.00    +0.000 C 
BRANCH   2   3
ATOM      3  C   UNL     1       2.785   5.422  -2.348  0.00  0.00    +0.000 C 
BRANCH   3   4
ATOM      4  C   UNL     1       1.500   5.561  -3.127  0.00  0.00    +0.000 C 
BRANCH   4   5
ATOM      5  C   UNL     1       0.370   5.071  -2.248  0.00  0.00    +0.000 C 
BRANCH   5   6
ATOM      6  C   UNL     1       0.231   6.044  -1.093  0.00  0.00    +0.000 C 
BRANCH   6   7
ATOM      7  C   UNL     1      -1.210   6.128  -0.652  0.00  0.00    +0.000 C 
BRANCH   7   8
ATOM      8  C   UNL     1      -1.801   7.441  -1.094  0.00  0.00    +0.000 C 
BRANCH   8   9
ATOM      9  C   UNL     1      -2.327   7.337  -2.504  0.00  0.00    +0.000 C 
BRANCH   9  10
ATOM     10  C   UNL     1      -3.359   6.222  -2.597  0.00  0.00    +0.000 C 
BRANCH  10  11
ATOM     11  C   UNL     1      -3.030   5.338  -3.783  0.00  0.00    +0.000 C 
BRANCH  11  12
ATOM     12  C   UNL     1      -2.232   6.156  -4.770  0.00  0.00    +0.000 C 
BRANCH  12  14
ATOM     13  C   UNL     1      -1.410   5.176  -6.845  0.00  0.00    +0.000 C 
ATOM     14  C   UNL     1      -2.558   5.734  -6.179  0.00  0.00    +0.000 C 
ENDBRANCH  12  14
ENDBRANCH  11  12
ENDBRANCH  10  11
ENDBRANCH   9  10
ENDBRANCH   8   9
ENDBRANCH   7   8
ENDBRANCH   6   7
ENDBRANCH   5   6
ENDBRANCH   4   5
ENDBRANCH   3   4
ENDBRANCH   2   3
ENDBRANCH   1   2
BRANCH   1  15
ATOM     15  C   UNL     1       4.536   7.157  -4.868  0.00  0.00    +0.033 C 
BRANCH  15  16
ATOM     16  C   UNL     1       4.175   5.999  -5.770  0.00  0.00    +0.149 C 
BRANCH  16  17
ATOM     17  O   UNL     1       4.402   6.360  -7.090  0.00  0.00    -0.314 OA
BRANCH  17  18
ATOM     18  P   UNL     1       2.927   6.531  -7.894  0.00  0.00    +0.214 P 
ATOM     19  O   UNL     1       2.391   8.131  -7.786  0.00  0.00    -0.437 OA
ATOM     20  O   UNL     1       1.865   5.647  -7.267  0.00  0.00    -0.517 OA
BRANCH  18  21
ATOM     21  O   UNL     1       3.094   6.089  -9.517  0.00  0.00    -0.308 OA
BRANCH  21  22
ATOM     22  C   UNL     1       4.178   6.731 -10.121  0.00  0.00    +0.210 C 
BRANCH  22  23
ATOM     23  C   UNL     1       5.134   5.663 -10.572  0.00  0.00    +0.142 C 
BRANCH  23  24
ATOM     24  N   UNL     1       6.491   6.141 -10.728  0.00  0.00    +0.313 N 
ATOM     25  C   UNL     1       7.300   5.849  -9.565  0.00  0.00    +0.171 C 
ATOM     26  C   UNL     1       6.563   7.543 -11.052  0.00  0.00    +0.171 C 
ATOM     27  C   UNL     1       7.069   5.386 -11.837  0.00  0.00    +0.171 C 
ENDBRANCH  23  24
ENDBRANCH  22  23
ENDBRANCH  21  22
ENDBRANCH  18  21
ENDBRANCH  17  18
ENDBRANCH  16  17
ENDBRANCH  15  16
ENDBRANCH   1  15
TORSDOF 20
ENDMDL
MODEL 5
REMARK VINA RESULT:      -5.5      3.984      8.323
REMARK  Name = 
REMARK  20 active torsions:
REMARK  status: ('A' for Active; 'I' for Inactive)
REMARK    1  A    between atoms: C_2  and  C_3
REMARK    2  A    between atoms: C_3  and  C_4
REMARK    3  A    between atoms: C_4  and  C_5
REMARK    4  A    between atoms: C_5  and  C_6
REMARK    5  A    between atoms: C_6  and  C_7
REMARK    6  A    between atoms: C_7  and  C_8
REMARK    7  A    between atoms: C_8  and  C_9
REMARK    8  A    between atoms: C_9  and  C_10
REMARK    9  A    between atoms: C_10  and  C_11
REMARK   10  A    between atoms: C_11  and  C_12
REMARK   11  A    between atoms: C_12  and  C_13
REMARK   12  A    between atoms: C_13  and  C_14
REMARK   13  A    between atoms: C_14  and  C_15
REMARK   14  A    between atoms: C_15  and  C_16
REMARK   15  A    between atoms: C_16  and  O_17
REMARK   16  A    between atoms: O_17  and  P_18
REMARK   17  A    between atoms: P_18  and  O_21
REMARK   18  A    between atoms: O_21  and  C_22
REMARK   19  A    between atoms: C_22  and  C_23
REMARK   20  A    between atoms: C_23  and  N_24
REMARK                            x       y       z     vdW  Elec       q    Type
REMARK                         _______ _______ _______ _____ _____    ______ ____
ROOT
ATOM      1  C   UNL     1      -0.875   5.354  -7.523  0.00  0.00    +0.003 C 
ENDROOT
BRANCH   1   2
ATOM      2  C   UNL     1      -1.952   5.474  -6.477  0.00  0.00    +0.000 C 
BRANCH   2   3
ATOM      3  C   UNL     1      -1.390   6.310  -5.348  0.00  0.00    +0.000 C 
BRANCH   3   4
ATOM      4  C   UNL     1      -2.560   6.846  -4.559  0.00  0.00    +0.000 C 
BRANCH   4   5
ATOM      5  C   UNL     1      -2.833   5.883  -3.425  0.00  0.00    +0.000 C 
BRANCH   5   6
ATOM      6  C   UNL     1      -3.394   6.682  -2.266  0.00  0.00    +0.000 C 
BRANCH   6   7
ATOM      7  C   UNL     1      -2.356   6.828  -1.181  0.00  0.00    +0.000 C 
BRANCH   7   8
ATOM      8  C   UNL     1      -1.296   5.772  -1.344  0.00  0.00    +0.000 C 
BRANCH   8   9
ATOM      9  C   UNL     1      -0.088   6.099  -0.502  0.00  0.00    +0.000 C 
BRANCH   9  10
ATOM     10  C   UNL     1       1.178   5.605  -1.189  0.00  0.00    +0.000 C 
BRANCH  10  11
ATOM     11  C   UNL     1       0.888   5.379  -2.660  0.00  0.00    +0.000 C 
BRANCH  11  12
ATOM     12  C   UNL     1       1.888   6.176  -3.462  0.00  0.00    +0.000 C 
BRANCH  12  14
ATOM     13  C   UNL     1       4.192   5.380  -3.506  0.00  0.00    +0.000 C 
ATOM     14  C   UNL     1       2.890   5.254  -4.108  0.00  0.00    +0.000 C 
ENDBRANCH  12  14
ENDBRANCH  11  12
ENDBRANCH  10  11
ENDBRANCH   9  10
ENDBRANCH   8   9
ENDBRANCH   7   8
ENDBRANCH   6   7
ENDBRANCH   5   6
ENDBRANCH   4   5
ENDBRANCH   3   4
ENDBRANCH   2   3
ENDBRANCH   1   2
BRANCH   1  15
ATOM     15  C   UNL     1       0.458   5.208  -6.810  0.00  0.00    +0.033 C 
BRANCH  15  16
ATOM     16  C   UNL     1       1.535   4.819  -7.797  0.00  0.00    +0.149 C 
BRANCH  16  17
ATOM     17  O   UNL     1       2.621   5.668  -7.646  0.00  0.00    -0.314 OA
BRANCH  17  18
ATOM     18  P   UNL     1       2.511   6.933  -8.759  0.00  0.00    +0.214 P 
ATOM     19  O   UNL     1       2.168   8.381  -7.958  0.00  0.00    -0.437 OA
ATOM     20  O   UNL     1       1.394   6.682  -9.754  0.00  0.00    -0.517 OA
BRANCH  18  21
ATOM     21  O   UNL     1       3.960   7.081  -9.617  0.00  0.00    -0.308 OA
BRANCH  21  22
ATOM     22  C   UNL     1       4.778   5.959  -9.452  0.00  0.00    +0.210 C 
BRANCH  22  23
ATOM     23  C   UNL     1       5.409   5.668 -10.784  0.00  0.00    +0.142 C 
BRANCH  23  24
ATOM     24  N   UNL     1       6.811   6.020 -10.841  0.00  0.00    +0.313 N 
ATOM     25  C   UNL     1       7.000   7.429 -11.106  0.00  0.00    +0.171 C 
ATOM     26  C   UNL     1       7.555   5.226 -11.786  0.00  0.00    +0.171 C 
ATOM     27  C   UNL     1       7.353   5.770  -9.508  0.00  0.00    +0.171 C 
ENDBRANCH  23  24
ENDBRANCH  22  23
ENDBRANCH  21  22
ENDBRANCH  18  21
ENDBRANCH  17  18
ENDBRANCH  16  17
ENDBRANCH  15  16
ENDBRANCH   1  15
TORSDOF 20
ENDMDL
MODEL 6
REMARK VINA RESULT:      -5.5      2.396      5.198
REMARK  Name = 
REMARK  20 active torsions:
REMARK  status: ('A' for Active; 'I' for Inactive)
REMARK    1  A    between atoms: C_2  and  C_3
REMARK    2  A    between atoms: C_3  and  C_4
REMARK    3  A    between atoms: C_4  and  C_5
REMARK    4  A    between atoms: C_5  and  C_6
REMARK    5  A    between atoms: C_6  and  C_7
REMARK    6  A    between atoms: C_7  and  C_8
REMARK    7  A    between atoms: C_8  and  C_9
REMARK    8  A    between atoms: C_9  and  C_10
REMARK    9  A    between atoms: C_10  and  C_11
REMARK   10  A    between atoms: C_11  and  C_12
REMARK   11  A    between atoms: C_12  and  C_13
REMARK   12  A    between atoms: C_13  and  C_14
REMARK   13  A    between atoms: C_14  and  C_15
REMARK   14  A    between atoms: C_15  and  C_16
REMARK   15  A    between atoms: C_16  and  O_17
REMARK   16  A    between atoms: O_17  and  P_18
REMARK   17  A    between atoms: P_18  and  O_21
REMARK   18  A    between atoms: O_21  and  C_22
REMARK   19  A    between atoms: C_22  and  C_23
REMARK   20  A    between atoms: C_23  and  N_24
REMARK                            x       y       z     vdW  Elec       q    Type
REMARK                         _______ _______ _______ _____ _____    ______ ____
ROOT
ATOM      1  C   UNL     1      -2.361   6.270  -5.187  0.00  0.00    +0.003 C 
ENDROOT
BRANCH   1   2
ATOM      2  C   UNL     1      -2.038   5.693  -6.541  0.00  0.00    +0.000 C 
BRANCH   2   3
ATOM      3  C   UNL     1      -0.542   5.474  -6.590  0.00  0.00    +0.000 C 
BRANCH   3   4
ATOM      4  C   UNL     1       0.104   6.602  -5.822  0.00  0.00    +0.000 C 
BRANCH   4   5
ATOM      5  C   UNL     1       1.585   6.580  -6.128  0.00  0.00    +0.000 C 
BRANCH   5   6
ATOM      6  C   UNL     1       1.829   7.516  -7.295  0.00  0.00    +0.000 C 
BRANCH   6   7
ATOM      7  C   UNL     1       3.058   7.089  -8.061  0.00  0.00    +0.000 C 
BRANCH   7   8
ATOM      8  C   UNL     1       3.447   5.691  -7.660  0.00  0.00    +0.000 C 
BRANCH   8   9
ATOM      9  C   UNL     1       3.452   4.779  -8.861  0.00  0.00    +0.000 C 
BRANCH   9  10
ATOM     10  C   UNL     1       2.047   4.261  -9.132  0.00  0.00    +0.000 C 
BRANCH  10  11
ATOM     11  C   UNL     1       1.553   4.830 -10.447  0.00  0.00    +0.000 C 
BRANCH  11  12
ATOM     12  C   UNL     1       0.114   5.251 -10.264  0.00  0.00    +0.000 C 
BRANCH  12  14
ATOM     13  C   UNL     1      -0.382   7.211 -11.627  0.00  0.00    +0.000 C 
ATOM     14  C   UNL     1       0.001   6.752 -10.316  0.00  0.00    +0.000 C 
ENDBRANCH  12  14
ENDBRANCH  11  12
ENDBRANCH  10  11
ENDBRANCH   9  10
ENDBRANCH   8   9
ENDBRANCH   7   8
ENDBRANCH   6   7
ENDBRANCH   5   6
ENDBRANCH   4   5
ENDBRANCH   3   4
ENDBRANCH   2   3
ENDBRANCH   1   2
BRANCH   1  15
ATOM     15  C   UNL     1      -2.950   5.161  -4.334  0.00  0.00    +0.033 C 
BRANCH  15  16
ATOM     16  C   UNL     1      -3.429   5.721  -3.013  0.00  0.00    +0.149 C 
BRANCH  16  17
ATOM     17  O   UNL     1      -2.788   5.058  -1.977  0.00  0.00    -0.314 OA
BRANCH  17  18
ATOM     18  P   UNL     1      -1.580   6.046  -1.332  0.00  0.00    +0.214 P 
ATOM     19  O   UNL     1      -1.744   6.141   0.348  0.00  0.00    -0.437 OA
ATOM     20  O   UNL     1      -1.684   7.456  -1.884  0.00  0.00    -0.517 OA
BRANCH  18  21
ATOM     21  O   UNL     1      -0.055   5.434  -1.727  0.00  0.00    -0.308 OA
BRANCH  21  22
ATOM     22  C   UNL     1       0.961   6.066  -1.005  0.00  0.00    +0.210 C 
BRANCH  22  23
ATOM     23  C   UNL     1       2.169   5.174  -1.060  0.00  0.00    +0.142 C 
BRANCH  23  24
ATOM     24  N   UNL     1       3.350   5.844  -1.561  0.00  0.00    +0.313 N 
ATOM     25  C   UNL     1       4.434   5.807  -0.604  0.00  0.00    +0.171 C 
ATOM     26  C   UNL     1       3.096   7.198  -1.983  0.00  0.00    +0.171 C 
ATOM     27  C   UNL     1       3.795   5.080  -2.724  0.00  0.00    +0.171 C 
ENDBRANCH  23  24
ENDBRANCH  22  23
ENDBRANCH  21  22
ENDBRANCH  18  21
ENDBRANCH  17  18
ENDBRANCH  16  17
ENDBRANCH  15  16
ENDBRANCH   1  15
TORSDOF 20
ENDMDL
MODEL 7
REMARK VINA RESULT:      -5.4      6.521      9.171
REMARK  Name = 
REMARK  20 active torsions:
REMARK  status: ('A' for Active; 'I' for Inactive)
REMARK    1  A    between atoms: C_2  and  C_3
REMARK    2  A    between atoms: C_3  and  C_4
REMARK    3  A    between atoms: C_4  and  C_5
REMARK    4  A    between atoms: C_5  and  C_6
REMARK    5  A    between atoms: C_6  and  C_7
REMARK    6  A    between atoms: C_7  and  C_8
REMARK    7  A    between atoms: C_8  and  C_9
REMARK    8  A    between atoms: C_9  and  C_10
REMARK    9  A    between atoms: C_10  and  C_11
REMARK   10  A    between atoms: C_11  and  C_12
REMARK   11  A    between atoms: C_12  and  C_13
REMARK   12  A    between atoms: C_13  and  C_14
REMARK   13  A    between atoms: C_14  and  C_15
REMARK   14  A    between atoms: C_15  and  C_16
REMARK   15  A    between atoms: C_16  and  O_17
REMARK   16  A    between atoms: O_17  and  P_18
REMARK   17  A    between atoms: P_18  and  O_21
REMARK   18  A    between atoms: O_21  and  C_22
REMARK   19  A    between atoms: C_22  and  C_23
REMARK   20  A    between atoms: C_23  and  N_24
REMARK                            x       y       z     vdW  Elec       q    Type
REMARK                         _______ _______ _______ _____ _____    ______ ____
ROOT
ATOM      1  C   UNL     1       7.218   6.688 -10.323  0.00  0.00    +0.003 C 
ENDROOT
BRANCH   1   2
ATOM      2  C   UNL     1       7.289   5.816  -9.097  0.00  0.00    +0.000 C 
BRANCH   2   3
ATOM      3  C   UNL     1       5.918   5.208  -8.899  0.00  0.00    +0.000 C 
BRANCH   3   4
ATOM      4  C   UNL     1       4.951   5.990  -9.756  0.00  0.00    +0.000 C 
BRANCH   4   5
ATOM      5  C   UNL     1       3.557   5.744  -9.221  0.00  0.00    +0.000 C 
BRANCH   5   6
ATOM      6  C   UNL     1       2.922   7.093  -8.952  0.00  0.00    +0.000 C 
BRANCH   6   7
ATOM      7  C   UNL     1       1.432   6.942  -8.767  0.00  0.00    +0.000 C 
BRANCH   7   8
ATOM      8  C   UNL     1       1.095   5.499  -8.499  0.00  0.00    +0.000 C 
BRANCH   8   9
ATOM      9  C   UNL     1      -0.067   5.395  -7.543  0.00  0.00    +0.000 C 
BRANCH   9  10
ATOM     10  C   UNL     1       0.414   4.906  -6.185  0.00  0.00    +0.000 C 
BRANCH  10  11
ATOM     11  C   UNL     1       1.786   4.280  -6.340  0.00  0.00    +0.000 C 
BRANCH  11  12
ATOM     12  C   UNL     1       2.645   4.743  -5.188  0.00  0.00    +0.000 C 
BRANCH  12  14
ATOM     13  C   UNL     1       4.647   6.096  -5.512  0.00  0.00    +0.000 C 
ATOM     14  C   UNL     1       3.207   6.111  -5.475  0.00  0.00    +0.000 C 
ENDBRANCH  12  14
ENDBRANCH  11  12
ENDBRANCH  10  11
ENDBRANCH   9  10
ENDBRANCH   8   9
ENDBRANCH   7   8
ENDBRANCH   6   7
ENDBRANCH   5   6
ENDBRANCH   4   5
ENDBRANCH   3   4
ENDBRANCH   2   3
ENDBRANCH   1   2
BRANCH   1  15
ATOM     15  C   UNL     1       8.326   6.259 -11.269  0.00  0.00    +0.033 C 
BRANCH  15  16
ATOM     16  C   UNL     1       7.849   5.125 -12.147  0.00  0.00    +0.149 C 
BRANCH  16  17
ATOM     17  O   UNL     1       8.116   5.431 -13.474  0.00  0.00    -0.314 OA
BRANCH  17  18
ATOM     18  P   UNL     1       6.706   5.973 -14.227  0.00  0.00    +0.214 P 
ATOM     19  O   UNL     1       6.897   5.942 -15.906  0.00  0.00    -0.437 OA
ATOM     20  O   UNL     1       6.395   7.403 -13.826  0.00  0.00    -0.517 OA
BRANCH  18  21
ATOM     21  O   UNL     1       5.397   5.002 -13.780  0.00  0.00    -0.308 OA
BRANCH  21  22
ATOM     22  C   UNL     1       4.243   5.757 -13.556  0.00  0.00    +0.210 C 
BRANCH  22  23
ATOM     23  C   UNL     1       3.075   4.938 -14.028  0.00  0.00    +0.142 C 
BRANCH  23  24
ATOM     24  N   UNL     1       1.796   5.559 -13.759  0.00  0.00    +0.313 N 
ATOM     25  C   UNL     1       1.490   6.595 -14.720  0.00  0.00    +0.171 C 
ATOM     26  C   UNL     1       1.687   6.069 -12.416  0.00  0.00    +0.171 C 
ATOM     27  C   UNL     1       0.787   4.517 -13.935  0.00  0.00    +0.171 C 
ENDBRANCH  23  24
ENDBRANCH  22  23
ENDBRANCH  21  22
ENDBRANCH  18  21
ENDBRANCH  17  18
ENDBRANCH  16  17
ENDBRANCH  15  16
ENDBRANCH   1  15
TORSDOF 20
ENDMDL
MODEL 8
REMARK VINA RESULT:      -5.4      5.910      9.281
REMARK  Name = 
REMARK  20 active torsions:
REMARK  status: ('A' for Active; 'I' for Inactive)
REMARK    1  A    between atoms: C_2  and  C_3
REMARK    2  A    between atoms: C_3  and  C_4
REMARK    3  A    between atoms: C_4  and  C_5
REMARK    4  A    between atoms: C_5  and  C_6
REMARK    5  A    between atoms: C_6  and  C_7
REMARK    6  A    between atoms: C_7  and  C_8
REMARK    7  A    between atoms: C_8  and  C_9
REMARK    8  A    between atoms: C_9  and  C_10
REMARK    9  A    between atoms: C_10  and  C_11
REMARK   10  A    between atoms: C_11  and  C_12
REMARK   11  A    between atoms: C_12  and  C_13
REMARK   12  A    between atoms: C_13  and  C_14
REMARK   13  A    between atoms: C_14  and  C_15
REMARK   14  A    between atoms: C_15  and  C_16
REMARK   15  A    between atoms: C_16  and  O_17
REMARK   16  A    between atoms: O_17  and  P_18
REMARK   17  A    between atoms: P_18  and  O_21
REMARK   18  A    between atoms: O_21  and  C_22
REMARK   19  A    between atoms: C_22  and  C_23
REMARK   20  A    between atoms: C_23  and  N_24
REMARK                            x       y       z     vdW  Elec       q    Type
REMARK                         _______ _______ _______ _____ _____    ______ ____
ROOT
ATOM      1  C   UNL     1       5.460   5.488  -9.308  0.00  0.00    +0.003 C 
ENDROOT
BRANCH   1   2
ATOM      2  C   UNL     1       5.109   5.138  -7.886  0.00  0.00    +0.000 C 
BRANCH   2   3
ATOM      3  C   UNL     1       4.028   6.097  -7.441  0.00  0.00    +0.000 C 
BRANCH   3   4
ATOM      4  C   UNL     1       3.296   6.556  -8.679  0.00  0.00    +0.000 C 
BRANCH   4   5
ATOM      5  C   UNL     1       2.203   7.507  -8.243  0.00  0.00    +0.000 C 
BRANCH   5   6
ATOM      6  C   UNL     1       1.400   6.820  -7.156  0.00  0.00    +0.000 C 
BRANCH   6   7
ATOM      7  C   UNL     1       0.351   5.925  -7.768  0.00  0.00    +0.000 C 
BRANCH   7   8
ATOM      8  C   UNL     1      -0.220   5.015  -6.713  0.00  0.00    +0.000 C 
BRANCH   8   9
ATOM      9  C   UNL     1      -0.658   5.810  -5.508  0.00  0.00    +0.000 C 
BRANCH   9  10
ATOM     10  C   UNL     1      -2.046   6.390  -5.740  0.00  0.00    +0.000 C 
BRANCH  10  11
ATOM     11  C   UNL     1      -2.349   7.403  -4.654  0.00  0.00    +0.000 C 
BRANCH  11  12
ATOM     12  C   UNL     1      -2.770   6.651  -3.415  0.00  0.00    +0.000 C 
BRANCH  12  14
ATOM     13  C   UNL     1      -2.283   7.149  -1.079  0.00  0.00    +0.000 C 
ATOM     14  C   UNL     1      -1.714   6.775  -2.347  0.00  0.00    +0.000 C 
ENDBRANCH  12  14
ENDBRANCH  11  12
ENDBRANCH  10  11
ENDBRANCH   9  10
ENDBRANCH   8   9
ENDBRANCH   7   8
ENDBRANCH   6   7
ENDBRANCH   5   6
ENDBRANCH   4   5
ENDBRANCH   3   4
ENDBRANCH   2   3
ENDBRANCH   1   2
BRANCH   1  15
ATOM     15  C   UNL     1       6.961   5.699  -9.383  0.00  0.00    +0.033 C 
BRANCH  15  16
ATOM     16  C   UNL     1       7.308   6.542 -10.589  0.00  0.00    +0.149 C 
BRANCH  16  17
ATOM     17  O   UNL     1       6.240   6.532 -11.476  0.00  0.00    -0.314 OA
BRANCH  17  18
ATOM     18  P   UNL     1       6.677   5.706 -12.881  0.00  0.00    +0.214 P 
ATOM     19  O   UNL     1       7.938   4.629 -12.552  0.00  0.00    -0.437 OA
ATOM     20  O   UNL     1       7.163   6.671 -13.947  0.00  0.00    -0.517 OA
BRANCH  18  21
ATOM     21  O   UNL     1       5.348   4.863 -13.498  0.00  0.00    -0.308 OA
BRANCH  21  22
ATOM     22  C   UNL     1       4.140   5.379 -13.022  0.00  0.00    +0.210 C 
BRANCH  22  23
ATOM     23  C   UNL     1       3.155   5.327 -14.156  0.00  0.00    +0.142 C 
BRANCH  23  24
ATOM     24  N   UNL     1       1.811   5.691 -13.762  0.00  0.00    +0.313 N 
ATOM     25  C   UNL     1       0.901   4.572 -13.860  0.00  0.00    +0.171 C 
ATOM     26  C   UNL     1       1.297   6.824 -14.490  0.00  0.00    +0.171 C 
ATOM     27  C   UNL     1       1.879   6.050 -12.348  0.00  0.00    +0.171 C 
ENDBRANCH  23  24
ENDBRANCH  22  23
ENDBRANCH  21  22
ENDBRANCH  18  21
ENDBRANCH  17  18
ENDBRANCH  16  17
ENDBRANCH  15  16
ENDBRANCH   1  15
TORSDOF 20
ENDMDL
MODEL 9
REMARK VINA RESULT:      -5.4      2.580      4.669
REMARK  Name = 
REMARK  20 active torsions:
REMARK  status: ('A' for Active; 'I' for Inactive)
REMARK    1  A    between atoms: C_2  and  C_3
REMARK    2  A    between atoms: C_3  and  C_4
REMARK    3  A    between atoms: C_4  and  C_5
REMARK    4  A    between atoms: C_5  and  C_6
REMARK    5  A    between atoms: C_6  and  C_7
REMARK    6  A    between atoms: C_7  and  C_8
REMARK    7  A    between atoms: C_8  and  C_9
REMARK    8  A    between atoms: C_9  and  C_10
REMARK    9  A    between atoms: C_10  and  C_11
REMARK   10  A    between atoms: C_11  and  C_12
REMARK   11  A    between atoms: C_12  and  C_13
REMARK   12  A    between atoms: C_13  and  C_14
REMARK   13  A    between atoms: C_14  and  C_15
REMARK   14  A    between atoms: C_15  and  C_16
REMARK   15  A    between atoms: C_16  and  O_17
REMARK   16  A    between atoms: O_17  and  P_18
REMARK   17  A    between atoms: P_18  and  O_21
REMARK   18  A    between atoms: O_21  and  C_22
REMARK   19  A    between atoms: C_22  and  C_23
REMARK   20  A    between atoms: C_23  and  N_24
REMARK                            x       y       z     vdW  Elec       q    Type
REMARK                         _______ _______ _______ _____ _____    ______ ____
ROOT
ATOM      1  C   UNL     1       1.073   6.301  -8.550  0.00  0.00    +0.003 C 
ENDROOT
BRANCH   1   2
ATOM      2  C   UNL     1       1.200   5.011  -9.319  0.00  0.00    +0.000 C 
BRANCH   2   3
ATOM      3  C   UNL     1      -0.030   4.886 -10.190  0.00  0.00    +0.000 C 
BRANCH   3   4
ATOM      4  C   UNL     1       0.430   4.937 -11.628  0.00  0.00    +0.000 C 
BRANCH   4   5
ATOM      5  C   UNL     1       0.395   6.383 -12.072  0.00  0.00    +0.000 C 
BRANCH   5   6
ATOM      6  C   UNL     1       1.590   6.616 -12.976  0.00  0.00    +0.000 C 
BRANCH   6   7
ATOM      7  C   UNL     1       2.711   5.674 -12.613  0.00  0.00    +0.000 C 
BRANCH   7   8
ATOM      8  C   UNL     1       3.723   6.391 -11.759  0.00  0.00    +0.000 C 
BRANCH   8   9
ATOM      9  C   UNL     1       4.656   5.404 -11.103  0.00  0.00    +0.000 C 
BRANCH   9  10
ATOM     10  C   UNL     1       5.620   6.132 -10.177  0.00  0.00    +0.000 C 
BRANCH  10  11
ATOM     11  C   UNL     1       6.503   7.050 -11.000  0.00  0.00    +0.000 C 
BRANCH  11  12
ATOM     12  C   UNL     1       7.939   6.639 -10.780  0.00  0.00    +0.000 C 
BRANCH  12  14
ATOM     13  C   UNL     1       7.853   6.041 -13.142  0.00  0.00    +0.000 C 
ATOM     14  C   UNL     1       8.372   5.672 -11.851  0.00  0.00    +0.000 C 
ENDBRANCH  12  14
ENDBRANCH  11  12
ENDBRANCH  10  11
ENDBRANCH   9  10
ENDBRANCH   8   9
ENDBRANCH   7   8
ENDBRANCH   6   7
ENDBRANCH   5   6
ENDBRANCH   4   5
ENDBRANCH   3   4
ENDBRANCH   2   3
ENDBRANCH   1   2
BRANCH   1  15
ATOM     15  C   UNL     1       2.472   6.819  -8.269  0.00  0.00    +0.033 C 
BRANCH  15  16
ATOM     16  C   UNL     1       3.284   5.763  -7.556  0.00  0.00    +0.149 C 
BRANCH  16  17
ATOM     17  O   UNL     1       3.570   6.197  -6.269  0.00  0.00    -0.314 OA
BRANCH  17  18
ATOM     18  P   UNL     1       2.812   5.188  -5.148  0.00  0.00    +0.214 P 
ATOM     19  O   UNL     1       3.970   4.345  -4.251  0.00  0.00    -0.437 OA
ATOM     20  O   UNL     1       1.937   4.164  -5.847  0.00  0.00    -0.517 OA
BRANCH  18  21
ATOM     21  O   UNL     1       1.835   6.100  -4.112  0.00  0.00    -0.308 OA
BRANCH  21  22
ATOM     22  C   UNL     1       0.688   6.567  -4.759  0.00  0.00    +0.210 C 
BRANCH  22  23
ATOM     23  C   UNL     1      -0.482   6.264  -3.867  0.00  0.00    +0.142 C 
BRANCH  23  24
ATOM     24  N   UNL     1      -1.744   6.221  -4.574  0.00  0.00    +0.313 N 
ATOM     25  C   UNL     1      -2.242   7.548  -4.864  0.00  0.00    +0.171 C 
ATOM     26  C   UNL     1      -2.749   5.445  -3.892  0.00  0.00    +0.171 C 
ATOM     27  C   UNL     1      -1.474   5.588  -5.862  0.00  0.00    +0.171 C 
ENDBRANCH  23  24
ENDBRANCH  22  23
ENDBRANCH  21  22
ENDBRANCH  18  21
ENDBRANCH  17  18
ENDBRANCH  16  17
ENDBRANCH  15  16
ENDBRANCH   1  15
TORSDOF 20
ENDMDL
