MODEL 1
REMARK VINA RESULT:      -5.0      0.000      0.000
REMARK  Name = 
REMARK  5 active torsions:
REMARK  status: ('A' for Active; 'I' for Inactive)
REMARK    1  A    between atoms: C_2  and  C_4
REMARK    2  A    between atoms: C_4  and  C_6
REMARK    3  A    between atoms: C_6  and  C_8
REMARK    4  A    between atoms: C_8  and  C_10
REMARK    5  A    between atoms: C_10  and  C_12
REMARK                            x       y       z     vdW  Elec       q    Type
REMARK                         _______ _______ _______ _____ _____    ______ ____
ROOT
ATOM      1  C   UNL     1      -1.479   5.732  -4.844  0.00  0.00    +0.226 C 
ATOM      2  O   UNL     1      -2.182   6.838  -5.592  0.00  0.00    -0.217 OA
ENDROOT
BRANCH   1   3
ATOM      3  C   UNL     1      -1.318   6.605  -3.333  0.00  0.00    +0.287 C 
ATOM      4  O   UNL     1      -2.818   6.903  -3.191  0.00  0.00    -0.208 OA
BRANCH   3   6
ATOM      5  O   UNL     1      -0.603   5.131  -1.671  0.00  0.00    -0.243 OA
ATOM      6  C   UNL     1      -1.483   5.257  -2.408  0.00  0.00    +0.397 C 
ATOM      7  O   UNL     1      -2.711   5.012  -1.907  0.00  0.00    -0.243 OA
ENDBRANCH   3   6
ENDBRANCH   1   3
BRANCH   1   8
ATOM      8  C   UNL     1       0.041   6.322  -5.419  0.00  0.00    +0.218 C 
ATOM      9  O   UNL     1      -0.345   5.950  -6.830  0.00  0.00    -0.217 OA
BRANCH   8  10
ATOM     10  C   UNL     1       0.836   4.819  -5.021  0.00  0.00    +0.218 C 
ATOM     11  O   UNL     1       1.736   5.549  -4.016  0.00  0.00    -0.217 OA
BRANCH  10  12
ATOM     12  C   UNL     1       2.010   4.914  -6.194  0.00  0.00    +0.217 C 
ATOM     13  O   UNL     1       2.100   3.557  -6.508  0.00  0.00    -0.217 OA
ENDBRANCH  10  12
ENDBRANCH   8  10
ENDBRANCH   1   8
TORSDOF 5
ENDMDL
MODEL 2
REMARK VINA RESULT:      -4.9      2.717      4.771
REMARK  Name = 
REMARK  5 active torsions:
REMARK  status: ('A' for Active; 'I' for Inactive)
REMARK    1  A    between atoms: C_2  and  C_4
REMARK    2  A    between atoms: C_4  and  C_6
REMARK    3  A    between atoms: C_6  and  C_8
REMARK    4  A    between atoms: C_8  and  C_10
REMARK    5  A    between atoms: C_10  and  C_12
REMARK                            x       y       z     vdW  Elec       q    Type
REMARK                         _______ _______ _______ _____ _____    ______ ____
ROOT
ATOM      1  C   UNL     1       2.091   6.552  -2.784  0.00  0.00    +0.226 C 
ATOM      2  O   UNL     1       2.576   7.041  -4.126  0.00  0.00    -0.217 OA
ENDROOT
BRANCH   1   3
ATOM      3  C   UNL     1       3.207   5.206  -2.664  0.00  0.00    +0.287 C 
ATOM      4  O   UNL     1       4.459   6.083  -2.519  0.00  0.00    -0.208 OA
BRANCH   3   6
ATOM      5  O   UNL     1       2.634   4.081  -0.701  0.00  0.00    -0.243 OA
ATOM      6  C   UNL     1       3.075   5.097  -1.031  0.00  0.00    +0.397 C 
ATOM      7  O   UNL     1       4.118   5.549  -0.306  0.00  0.00    -0.243 OA
ENDBRANCH   3   6
ENDBRANCH   1   3
BRANCH   1   8
ATOM      8  C   UNL     1       0.904   5.579  -3.578  0.00  0.00    +0.218 C 
ATOM      9  O   UNL     1       0.593   6.719  -4.516  0.00  0.00    -0.217 OA
BRANCH   8  10
ATOM     10  C   UNL     1      -0.299   5.970  -2.373  0.00  0.00    +0.218 C 
ATOM     11  O   UNL     1      -0.189   4.556  -1.788  0.00  0.00    -0.217 OA
BRANCH  10  12
ATOM     12  C   UNL     1      -1.620   5.527  -3.282  0.00  0.00    +0.217 C 
ATOM     13  O   UNL     1      -2.322   4.826  -2.299  0.00  0.00    -0.217 OA
ENDBRANCH  10  12
ENDBRANCH   8  10
ENDBRANCH   1   8
TORSDOF 5
ENDMDL
MODEL 3
REMARK VINA RESULT:      -4.9      4.278      5.790
REMARK  Name = 
REMARK  5 active torsions:
REMARK  status: ('A' for Active; 'I' for Inactive)
REMARK    1  A    between atoms: C_2  and  C_4
REMARK    2  A    between atoms: C_4  and  C_6
REMARK    3  A    between atoms: C_6  and  C_8
REMARK    4  A    between atoms: C_8  and  C_10
REMARK    5  A    between atoms: C_10  and  C_12
REMARK                            x       y       z     vdW  Elec       q    Type
REMARK                         _______ _______ _______ _____ _____    ______ ____
ROOT
ATOM      1  C   UNL     1       2.801   6.834  -7.889  0.00  0.00    +0.226 C 
ATOM      2  O   UNL     1       2.254   8.233  -7.753  0.00  0.00    -0.217 OA
ENDROOT
BRANCH   1   3
ATOM      3  C   UNL     1       1.328   6.121  -8.516  0.00  0.00    +0.287 C 
ATOM      4  O   UNL     1       1.149   7.153  -9.639  0.00  0.00    -0.208 OA
BRANCH   3   6
ATOM      5  O   UNL     1       1.930   4.005  -9.295  0.00  0.00    -0.243 OA
ATOM      6  C   UNL     1       2.120   5.116  -9.546  0.00  0.00    +0.397 C 
ATOM      7  O   UNL     1       2.086   5.438 -10.855  0.00  0.00    -0.243 OA
ENDBRANCH   3   6
ENDBRANCH   1   3
BRANCH   1   8
ATOM      8  C   UNL     1       2.339   6.504  -6.256  0.00  0.00    +0.218 C 
ATOM      9  O   UNL     1       3.337   7.524  -5.766  0.00  0.00    -0.217 OA
BRANCH   8  10
ATOM     10  C   UNL     1       3.404   5.121  -6.178  0.00  0.00    +0.218 C 
ATOM     11  O   UNL     1       2.195   4.185  -6.046  0.00  0.00    -0.217 OA
BRANCH  10  12
ATOM     12  C   UNL     1       3.612   5.141  -4.529  0.00  0.00    +0.217 C 
ATOM     13  O   UNL     1       4.928   4.677  -4.480  0.00  0.00    -0.217 OA
ENDBRANCH  10  12
ENDBRANCH   8  10
ENDBRANCH   1   8
TORSDOF 5
ENDMDL
MODEL 4
REMARK VINA RESULT:      -4.9      1.601      4.248
REMARK  Name = 
REMARK  5 active torsions:
REMARK  status: ('A' for Active; 'I' for Inactive)
REMARK    1  A    between atoms: C_2  and  C_4
REMARK    2  A    between atoms: C_4  and  C_6
REMARK    3  A    between atoms: C_6  and  C_8
REMARK    4  A    between atoms: C_8  and  C_10
REMARK    5  A    between atoms: C_10  and  C_12
REMARK                            x       y       z     vdW  Elec       q    Type
REMARK                         _______ _______ _______ _____ _____    ______ ____
ROOT
ATOM      1  C   UNL     1       0.526   6.800  -5.011  0.00  0.00    +0.226 C 
ATOM      2  O   UNL     1       0.521   6.563  -6.501  0.00  0.00    -0.217 OA
ENDROOT
BRANCH   1   3
ATOM      3  C   UNL     1       1.919   5.792  -4.670  0.00  0.00    +0.287 C 
ATOM      4  O   UNL     1       2.876   6.574  -5.582  0.00  0.00    -0.208 OA
BRANCH   3   6
ATOM      5  O   UNL     1       2.496   6.049  -2.423  0.00  0.00    -0.243 OA
ATOM      6  C   UNL     1       2.392   6.691  -3.379  0.00  0.00    +0.397 C 
ATOM      7  O   UNL     1       3.372   7.592  -3.592  0.00  0.00    -0.243 OA
ENDBRANCH   3   6
ENDBRANCH   1   3
BRANCH   1   8
ATOM      8  C   UNL     1      -0.563   5.474  -4.805  0.00  0.00    +0.218 C 
ATOM      9  O   UNL     1      -1.553   6.139  -5.729  0.00  0.00    -0.217 OA
BRANCH   8  10
ATOM     10  C   UNL     1      -1.185   6.146  -3.318  0.00  0.00    +0.218 C 
ATOM     11  O   UNL     1      -0.632   4.949  -2.533  0.00  0.00    -0.217 OA
BRANCH  10  12
ATOM     12  C   UNL     1      -2.686   5.436  -3.409  0.00  0.00    +0.217 C 
ATOM     13  O   UNL     1      -2.690   4.802  -2.164  0.00  0.00    -0.217 OA
ENDBRANCH  10  12
ENDBRANCH   8  10
ENDBRANCH   1   8
TORSDOF 5
ENDMDL
MODEL 5
REMARK VINA RESULT:      -4.8      1.490      2.978
REMARK  Name = 
REMARK  5 active torsions:
REMARK  status: ('A' for Active; 'I' for Inactive)
REMARK    1  A    between atoms: C_2  and  C_4
REMARK    2  A    between atoms: C_4  and  C_6
REMARK    3  A    between atoms: C_6  and  C_8
REMARK    4  A    between atoms: C_8  and  C_10
REMARK    5  A    between atoms: C_10  and  C_12
REMARK                            x       y       z     vdW  Elec       q    Type
REMARK                         _______ _______ _______ _____ _____    ______ ____
ROOT
ATOM      1  C   UNL     1      -0.262   5.926  -2.675  0.00  0.00    +0.226 C 
ATOM      2  O   UNL     1       0.034   4.719  -1.820  0.00  0.00    -0.217 OA
ENDROOT
BRANCH   1   3
ATOM      3  C   UNL     1      -1.731   5.291  -3.388  0.00  0.00    +0.287 C 
ATOM      4  O   UNL     1      -2.371   4.898  -2.049  0.00  0.00    -0.208 OA
BRANCH   3   6
ATOM      5  O   UNL     1      -2.759   7.118  -4.413  0.00  0.00    -0.243 OA
ATOM      6  C   UNL     1      -2.507   6.738  -3.352  0.00  0.00    +0.397 C 
ATOM      7  O   UNL     1      -3.480   6.882  -2.429  0.00  0.00    -0.243 OA
ENDBRANCH   3   6
ENDBRANCH   1   3
BRANCH   1   8
ATOM      8  C   UNL     1       0.713   5.261  -3.937  0.00  0.00    +0.218 C 
ATOM      9  O   UNL     1       1.925   5.329  -3.040  0.00  0.00    -0.217 OA
BRANCH   8  10
ATOM     10  C   UNL     1       0.918   6.829  -4.678  0.00  0.00    +0.218 C 
ATOM     11  O   UNL     1       0.147   6.356  -5.917  0.00  0.00    -0.217 OA
BRANCH  10  12
ATOM     12  C   UNL     1       2.372   6.496  -5.414  0.00  0.00    +0.217 C 
ATOM     13  O   UNL     1       2.340   7.491  -6.395  0.00  0.00    -0.217 OA
ENDBRANCH  10  12
ENDBRANCH   8  10
ENDBRANCH   1   8
TORSDOF 5
ENDMDL
MODEL 6
REMARK VINA RESULT:      -4.8      7.292      9.162
REMARK  Name = 
REMARK  5 active torsions:
REMARK  status: ('A' for Active; 'I' for Inactive)
REMARK    1  A    between atoms: C_2  and  C_4
REMARK    2  A    between atoms: C_4  and  C_6
REMARK    3  A    between atoms: C_6  and  C_8
REMARK    4  A    between atoms: C_8  and  C_10
REMARK    5  A    between atoms: C_10  and  C_12
REMARK                            x       y       z     vdW  Elec       q    Type
REMARK                         _______ _______ _______ _____ _____    ______ ____
ROOT
ATOM      1  C   UNL     1       3.974   6.713 -10.929  0.00  0.00    +0.226 C 
ATOM      2  O   UNL     1       3.975   6.732  -9.421  0.00  0.00    -0.217 OA
ENDROOT
BRANCH   1   3
ATOM      3  C   UNL     1       2.619   5.613 -11.097  0.00  0.00    +0.287 C 
ATOM      4  O   UNL     1       1.606   6.545 -10.418  0.00  0.00    -0.208 OA
BRANCH   3   6
ATOM      5  O   UNL     1       2.185   5.365 -13.377  0.00  0.00    -0.243 OA
ATOM      6  C   UNL     1       2.187   6.194 -12.572  0.00  0.00    +0.397 C 
ATOM      7  O   UNL     1       1.145   7.049 -12.606  0.00  0.00    -0.243 OA
ENDBRANCH   3   6
ENDBRANCH   1   3
BRANCH   1   8
ATOM      8  C   UNL     1       5.109   5.410 -10.905  0.00  0.00    +0.218 C 
ATOM      9  O   UNL     1       5.981   6.184  -9.948  0.00  0.00    -0.217 OA
BRANCH   8  10
ATOM     10  C   UNL     1       5.867   5.972 -12.375  0.00  0.00    +0.218 C 
ATOM     11  O   UNL     1       5.359   4.732 -13.123  0.00  0.00    -0.217 OA
BRANCH  10  12
ATOM     12  C   UNL     1       7.341   5.250 -12.110  0.00  0.00    +0.217 C 
ATOM     13  O   UNL     1       7.570   4.766 -13.400  0.00  0.00    -0.217 OA
ENDBRANCH  10  12
ENDBRANCH   8  10
ENDBRANCH   1   8
TORSDOF 5
ENDMDL
MODEL 7
REMARK VINA RESULT:      -4.8      7.062     10.472
REMARK  Name = 
REMARK  5 active torsions:
REMARK  status: ('A' for Active; 'I' for Inactive)
REMARK    1  A    between atoms: C_2  and  C_4
REMARK    2  A    between atoms: C_4  and  C_6
REMARK    3  A    between atoms: C_6  and  C_8
REMARK    4  A    between atoms: C_8  and  C_10
REMARK    5  A    between atoms: C_10  and  C_12
REMARK                            x       y       z     vdW  Elec       q    Type
REMARK                         _______ _______ _______ _____ _____    ______ ____
ROOT
ATOM      1  C   UNL     1       5.763   5.988 -12.622  0.00  0.00    +0.226 C 
ATOM      2  O   UNL     1       5.367   4.972 -13.664  0.00  0.00    -0.217 OA
ENDROOT
BRANCH   1   3
ATOM      3  C   UNL     1       7.037   5.024 -11.901  0.00  0.00    +0.287 C 
ATOM      4  O   UNL     1       7.688   4.642 -13.238  0.00  0.00    -0.208 OA
BRANCH   3   6
ATOM      5  O   UNL     1       8.095   6.697 -10.664  0.00  0.00    -0.243 OA
ATOM      6  C   UNL     1       8.065   6.296 -11.748  0.00  0.00    +0.397 C 
ATOM      7  O   UNL     1       9.257   6.193 -12.370  0.00  0.00    -0.243 OA
ENDBRANCH   3   6
ENDBRANCH   1   3
BRANCH   1   8
ATOM      8  C   UNL     1       4.576   5.336 -11.548  0.00  0.00    +0.218 C 
ATOM      9  O   UNL     1       3.484   5.731 -12.511  0.00  0.00    -0.217 OA
BRANCH   8  10
ATOM     10  C   UNL     1       4.552   6.801 -10.598  0.00  0.00    +0.218 C 
ATOM     11  O   UNL     1       5.184   6.057  -9.414  0.00  0.00    -0.217 OA
BRANCH  10  12
ATOM     12  C   UNL     1       3.030   6.586  -9.965  0.00  0.00    +0.217 C 
ATOM     13  O   UNL     1       3.288   7.006  -8.658  0.00  0.00    -0.217 OA
ENDBRANCH  10  12
ENDBRANCH   8  10
ENDBRANCH   1   8
TORSDOF 5
ENDMDL
MODEL 8
REMARK VINA RESULT:      -4.8      3.887      5.059
REMARK  Name = 
REMARK  5 active torsions:
REMARK  status: ('A' for Active; 'I' for Inactive)
REMARK    1  A    between atoms: C_2  and  C_4
REMARK    2  A    between atoms: C_4  and  C_6
REMARK    3  A    between atoms: C_6  and  C_8
REMARK    4  A    between atoms: C_8  and  C_10
REMARK    5  A    between atoms: C_10  and  C_12
REMARK                            x       y       z     vdW  Elec       q    Type
REMARK                         _______ _______ _______ _____ _____    ______ ____
ROOT
ATOM      1  C   UNL     1       1.738   6.870  -7.514  0.00  0.00    +0.226 C 
ATOM      2  O   UNL     1       2.202   8.275  -7.808  0.00  0.00    -0.217 OA
ENDROOT
BRANCH   1   3
ATOM      3  C   UNL     1       3.249   6.321  -6.814  0.00  0.00    +0.287 C 
ATOM      4  O   UNL     1       3.371   7.491  -5.827  0.00  0.00    -0.208 OA
BRANCH   3   6
ATOM      5  O   UNL     1       2.827   4.299  -5.729  0.00  0.00    -0.243 OA
ATOM      6  C   UNL     1       2.513   5.409  -5.664  0.00  0.00    +0.397 C 
ATOM      7  O   UNL     1       2.452   5.930  -4.422  0.00  0.00    -0.243 OA
ENDBRANCH   3   6
ENDBRANCH   1   3
BRANCH   1   8
ATOM      8  C   UNL     1       2.226   6.387  -9.100  0.00  0.00    +0.218 C 
ATOM      9  O   UNL     1       1.190   7.305  -9.701  0.00  0.00    -0.217 OA
BRANCH   8  10
ATOM     10  C   UNL     1       1.221   4.960  -9.032  0.00  0.00    +0.218 C 
ATOM     11  O   UNL     1       2.469   4.068  -9.036  0.00  0.00    -0.217 OA
BRANCH  10  12
ATOM     12  C   UNL     1       1.045   4.779 -10.676  0.00  0.00    +0.217 C 
ATOM     13  O   UNL     1      -0.272   4.314 -10.694  0.00  0.00    -0.217 OA
ENDBRANCH  10  12
ENDBRANCH   8  10
ENDBRANCH   1   8
TORSDOF 5
ENDMDL
MODEL 9
REMARK VINA RESULT:      -4.8      8.762     10.802
REMARK  Name = 
REMARK  5 active torsions:
REMARK  status: ('A' for Active; 'I' for Inactive)
REMARK    1  A    between atoms: C_2  and  C_4
REMARK    2  A    between atoms: C_4  and  C_6
REMARK    3  A    between atoms: C_6  and  C_8
REMARK    4  A    between atoms: C_8  and  C_10
REMARK    5  A    between atoms: C_10  and  C_12
REMARK                            x       y       z     vdW  Elec       q    Type
REMARK                         _______ _______ _______ _____ _____    ______ ____
ROOT
ATOM      1  C   UNL     1       5.519   5.538 -11.303  0.00  0.00    +0.226 C 
ATOM      2  O   UNL     1       5.230   6.454 -10.139  0.00  0.00    -0.217 OA
ENDROOT
BRANCH   1   3
ATOM      3  C   UNL     1       6.723   6.567 -12.052  0.00  0.00    +0.287 C 
ATOM      4  O   UNL     1       7.436   6.917 -10.737  0.00  0.00    -0.208 OA
BRANCH   3   6
ATOM      5  O   UNL     1       7.681   4.904 -13.379  0.00  0.00    -0.243 OA
ATOM      6  C   UNL     1       7.777   5.334 -12.311  0.00  0.00    +0.397 C 
ATOM      7  O   UNL     1       9.035   5.504 -11.856  0.00  0.00    -0.243 OA
ENDBRANCH   3   6
ENDBRANCH   1   3
BRANCH   1   8
ATOM      8  C   UNL     1       4.238   6.282 -12.194  0.00  0.00    +0.218 C 
ATOM      9  O   UNL     1       3.225   5.635 -11.283  0.00  0.00    -0.217 OA
BRANCH   8  10
ATOM     10  C   UNL     1       4.270   5.017 -13.398  0.00  0.00    +0.218 C 
ATOM     11  O   UNL     1       4.729   6.025 -14.460  0.00  0.00    -0.217 OA
BRANCH  10  12
ATOM     12  C   UNL     1       2.686   5.181 -13.879  0.00  0.00    +0.217 C 
ATOM     13  O   UNL     1       2.544   3.960 -14.542  0.00  0.00    -0.217 OA
ENDBRANCH  10  12
ENDBRANCH   8  10
ENDBRANCH   1   8
TORSDOF 5
ENDMDL
