MODEL 1
REMARK VINA RESULT:      -6.9      0.000      0.000
REMARK  Name = 
REMARK  6 active torsions:
REMARK  status: ('A' for Active; 'I' for Inactive)
REMARK    1  A    between atoms: N_2  and  C_4
REMARK    2  A    between atoms: C_4  and  C_5
REMARK    3  A    between atoms: C_5  and  O_6
REMARK    4  A    between atoms: O_6  and  C_7
REMARK    5  A    between atoms: C_12  and  C_13
REMARK    6  A    between atoms: C_13  and  C_14
REMARK                            x       y       z     vdW  Elec       q    Type
REMARK                         _______ _______ _______ _____ _____    ______ ____
ROOT
ATOM      1  C   UNL     1       1.984   5.208  -8.966  0.00  0.00    +0.135 A 
ATOM      2  C   UNL     1       2.889   6.251  -9.137  0.00  0.00    +0.016 A 
ATOM      3  C   UNL     1       2.814   7.397  -8.353  0.00  0.00    -0.001 A 
ATOM      4  C   UNL     1       1.799   7.544  -7.415  0.00  0.00    -0.000 A 
ATOM      5  C   UNL     1       1.074   6.420  -7.079  0.00  0.00    +0.003 A 
ATOM      6  C   UNL     1       1.312   5.226  -7.749  0.00  0.00    +0.037 A 
ENDROOT
BRANCH   2   7
ATOM      7  C   UNL     1       3.588   6.268 -10.460  0.00  0.00    +0.056 C 
BRANCH   7   8
ATOM      8  C   UNL     1       5.030   6.560 -10.289  0.00  0.00    -0.018 A 
ATOM      9  C   UNL     1       5.617   7.602 -10.955  0.00  0.00    -0.004 A 
ATOM     10  C   UNL     1       6.993   7.656 -11.049  0.00  0.00    -0.000 A 
ATOM     11  C   UNL     1       7.753   6.637 -10.533  0.00  0.00    -0.000 A 
ATOM     12  C   UNL     1       7.184   5.788  -9.597  0.00  0.00    -0.000 A 
ATOM     13  C   UNL     1       5.807   5.773  -9.458  0.00  0.00    -0.004 A 
ENDBRANCH   7   8
ENDBRANCH   2   7
BRANCH   1  14
ATOM     14  O   UNL     1       1.504   4.474 -10.056  0.00  0.00    -0.474 OA
BRANCH  14  15
ATOM     15  C   UNL     1       0.203   4.779 -10.532  0.00  0.00    +0.223 C 
BRANCH  15  16
ATOM     16  C   UNL     1       0.341   5.176 -11.995  0.00  0.00    +0.120 C 
BRANCH  16  18
ATOM     17  C   UNL     1      -0.492   7.260 -11.345  0.00  0.00    +0.090 C 
ATOM     18  N   UNL     1       0.591   6.612 -12.081  0.00  0.00    -0.267 NA
ATOM     19  C   UNL     1       0.589   7.048 -13.474  0.00  0.00    +0.090 C 
ENDBRANCH  16  18
ENDBRANCH  15  16
ENDBRANCH  14  15
ENDBRANCH   1  14
TORSDOF 6
ENDMDL
MODEL 2
REMARK VINA RESULT:      -6.8      2.958      6.550
REMARK  Name = 
REMARK  6 active torsions:
REMARK  status: ('A' for Active; 'I' for Inactive)
REMARK    1  A    between atoms: N_2  and  C_4
REMARK    2  A    between atoms: C_4  and  C_5
REMARK    3  A    between atoms: C_5  and  O_6
REMARK    4  A    between atoms: O_6  and  C_7
REMARK    5  A    between atoms: C_12  and  C_13
REMARK    6  A    between atoms: C_13  and  C_14
REMARK                            x       y       z     vdW  Elec       q    Type
REMARK                         _______ _______ _______ _____ _____    ______ ____
ROOT
ATOM      1  C   UNL     1       0.490   5.679  -7.883  0.00  0.00    +0.135 A 
ATOM      2  C   UNL     1      -0.088   5.388  -6.652  0.00  0.00    +0.016 A 
ATOM      3  C   UNL     1       0.624   4.706  -5.672  0.00  0.00    -0.001 A 
ATOM      4  C   UNL     1       1.915   4.257  -5.923  0.00  0.00    -0.000 A 
ATOM      5  C   UNL     1       2.561   4.762  -7.032  0.00  0.00    +0.003 A 
ATOM      6  C   UNL     1       1.878   5.611  -7.895  0.00  0.00    +0.037 A 
ENDROOT
BRANCH   2   7
ATOM      7  C   UNL     1      -1.585   5.416  -6.635  0.00  0.00    +0.056 C 
BRANCH   7   8
ATOM      8  C   UNL     1      -2.085   6.090  -5.415  0.00  0.00    -0.018 A 
ATOM      9  C   UNL     1      -1.829   7.415  -5.192  0.00  0.00    -0.004 A 
ATOM     10  C   UNL     1      -2.006   7.935  -3.927  0.00  0.00    -0.000 A 
ATOM     11  C   UNL     1      -2.371   7.110  -2.893  0.00  0.00    -0.000 A 
ATOM     12  C   UNL     1      -2.937   5.879  -3.191  0.00  0.00    -0.000 A 
ATOM     13  C   UNL     1      -2.814   5.380  -4.476  0.00  0.00    -0.004 A 
ENDBRANCH   7   8
ENDBRANCH   2   7
BRANCH   1  14
ATOM     14  O   UNL     1      -0.256   5.635  -9.067  0.00  0.00    -0.474 OA
BRANCH  14  15
ATOM     15  C   UNL     1       0.263   4.866 -10.140  0.00  0.00    +0.223 C 
BRANCH  15  16
ATOM     16  C   UNL     1      -0.079   5.605 -11.427  0.00  0.00    +0.120 C 
BRANCH  16  18
ATOM     17  C   UNL     1       0.557   7.285 -12.921  0.00  0.00    +0.090 C 
ATOM     18  N   UNL     1       0.881   6.687 -11.628  0.00  0.00    -0.267 NA
ATOM     19  C   UNL     1       2.244   6.166 -11.638  0.00  0.00    +0.090 C 
ENDBRANCH  16  18
ENDBRANCH  15  16
ENDBRANCH  14  15
ENDBRANCH   1  14
TORSDOF 6
ENDMDL
MODEL 3
REMARK VINA RESULT:      -6.7      3.988      6.289
REMARK  Name = 
REMARK  6 active torsions:
REMARK  status: ('A' for Active; 'I' for Inactive)
REMARK    1  A    between atoms: N_2  and  C_4
REMARK    2  A    between atoms: C_4  and  C_5
REMARK    3  A    between atoms: C_5  and  O_6
REMARK    4  A    between atoms: O_6  and  C_7
REMARK    5  A    between atoms: C_12  and  C_13
REMARK    6  A    between atoms: C_13  and  C_14
REMARK                            x       y       z     vdW  Elec       q    Type
REMARK                         _______ _______ _______ _____ _____    ______ ____
ROOT
ATOM      1  C   UNL     1      -0.110   5.784  -4.772  0.00  0.00    +0.135 A 
ATOM      2  C   UNL     1      -0.044   5.206  -6.035  0.00  0.00    +0.016 A 
ATOM      3  C   UNL     1      -1.153   5.194  -6.873  0.00  0.00    -0.001 A 
ATOM      4  C   UNL     1      -2.367   5.717  -6.444  0.00  0.00    -0.000 A 
ATOM      5  C   UNL     1      -2.357   6.502  -5.311  0.00  0.00    +0.003 A 
ATOM      6  C   UNL     1      -1.175   6.661  -4.597  0.00  0.00    +0.037 A 
ENDROOT
BRANCH   2   7
ATOM      7  C   UNL     1       1.074   4.227  -6.224  0.00  0.00    +0.056 C 
BRANCH   7   8
ATOM      8  C   UNL     1       2.020   4.702  -7.259  0.00  0.00    -0.018 A 
ATOM      9  C   UNL     1       2.539   3.836  -8.182  0.00  0.00    -0.004 A 
ATOM     10  C   UNL     1       3.649   4.210  -8.912  0.00  0.00    -0.000 A 
ATOM     11  C   UNL     1       4.259   5.413  -8.660  0.00  0.00    -0.000 A 
ATOM     12  C   UNL     1       3.547   6.393  -7.984  0.00  0.00    -0.000 A 
ATOM     13  C   UNL     1       2.400   6.032  -7.299  0.00  0.00    -0.004 A 
ENDBRANCH   7   8
ENDBRANCH   2   7
BRANCH   1  14
ATOM     14  O   UNL     1       0.568   5.230  -3.681  0.00  0.00    -0.474 OA
BRANCH  14  15
ATOM     15  C   UNL     1       1.366   6.099  -2.893  0.00  0.00    +0.223 C 
BRANCH  15  16
ATOM     16  C   UNL     1       2.680   6.298  -3.635  0.00  0.00    +0.120 C 
BRANCH  16  18
ATOM     17  C   UNL     1       3.889   4.934  -2.172  0.00  0.00    +0.090 C 
ATOM     18  N   UNL     1       3.463   5.067  -3.563  0.00  0.00    -0.267 NA
ATOM     19  C   UNL     1       4.624   5.147  -4.444  0.00  0.00    +0.090 C 
ENDBRANCH  16  18
ENDBRANCH  15  16
ENDBRANCH  14  15
ENDBRANCH   1  14
TORSDOF 6
ENDMDL
MODEL 4
REMARK VINA RESULT:      -6.7      1.775      4.459
REMARK  Name = 
REMARK  6 active torsions:
REMARK  status: ('A' for Active; 'I' for Inactive)
REMARK    1  A    between atoms: N_2  and  C_4
REMARK    2  A    between atoms: C_4  and  C_5
REMARK    3  A    between atoms: C_5  and  O_6
REMARK    4  A    between atoms: O_6  and  C_7
REMARK    5  A    between atoms: C_12  and  C_13
REMARK    6  A    between atoms: C_13  and  C_14
REMARK                            x       y       z     vdW  Elec       q    Type
REMARK                         _______ _______ _______ _____ _____    ______ ____
ROOT
ATOM      1  C   UNL     1       4.944   6.832 -10.671  0.00  0.00    +0.135 A 
ATOM      2  C   UNL     1       5.442   6.035  -9.645  0.00  0.00    +0.016 A 
ATOM      3  C   UNL     1       6.810   5.825  -9.504  0.00  0.00    -0.001 A 
ATOM      4  C   UNL     1       7.705   6.368 -10.418  0.00  0.00    -0.000 A 
ATOM      5  C   UNL     1       7.233   7.348 -11.266  0.00  0.00    +0.003 A 
ATOM      6  C   UNL     1       5.884   7.682 -11.244  0.00  0.00    +0.037 A 
ENDROOT
BRANCH   2   7
ATOM      7  C   UNL     1       4.452   5.085  -9.047  0.00  0.00    +0.056 C 
BRANCH   7   8
ATOM      8  C   UNL     1       3.924   5.611  -7.768  0.00  0.00    -0.018 A 
ATOM      9  C   UNL     1       2.782   6.365  -7.740  0.00  0.00    -0.004 A 
ATOM     10  C   UNL     1       2.492   7.112  -6.617  0.00  0.00    -0.000 A 
ATOM     11  C   UNL     1       3.378   7.145  -5.570  0.00  0.00    -0.000 A 
ATOM     12  C   UNL     1       4.335   6.146  -5.474  0.00  0.00    -0.000 A 
ATOM     13  C   UNL     1       4.587   5.354  -6.581  0.00  0.00    -0.004 A 
ENDBRANCH   7   8
ENDBRANCH   2   7
BRANCH   1  14
ATOM     14  O   UNL     1       3.749   6.515 -11.325  0.00  0.00    -0.474 OA
BRANCH  14  15
ATOM     15  C   UNL     1       3.836   5.756 -12.520  0.00  0.00    +0.223 C 
BRANCH  15  16
ATOM     16  C   UNL     1       2.496   5.883 -13.231  0.00  0.00    +0.120 C 
BRANCH  16  18
ATOM     17  C   UNL     1       0.701   4.982 -12.037  0.00  0.00    +0.090 C 
ATOM     18  N   UNL     1       1.463   6.209 -12.252  0.00  0.00    -0.267 NA
ATOM     19  C   UNL     1       0.592   7.264 -12.760  0.00  0.00    +0.090 C 
ENDBRANCH  16  18
ENDBRANCH  15  16
ENDBRANCH  14  15
ENDBRANCH   1  14
TORSDOF 6
ENDMDL
MODEL 5
REMARK VINA RESULT:      -6.7      2.703      5.838
REMARK  Name = 
REMARK  6 active torsions:
REMARK  status: ('A' for Active; 'I' for Inactive)
REMARK    1  A    between atoms: N_2  and  C_4
REMARK    2  A    between atoms: C_4  and  C_5
REMARK    3  A    between atoms: C_5  and  O_6
REMARK    4  A    between atoms: O_6  and  C_7
REMARK    5  A    between atoms: C_12  and  C_13
REMARK    6  A    between atoms: C_13  and  C_14
REMARK                            x       y       z     vdW  Elec       q    Type
REMARK                         _______ _______ _______ _____ _____    ______ ____
ROOT
ATOM      1  C   UNL     1       2.583   5.187  -7.405  0.00  0.00    +0.135 A 
ATOM      2  C   UNL     1       2.131   5.086  -6.094  0.00  0.00    +0.016 A 
ATOM      3  C   UNL     1       3.019   5.147  -5.026  0.00  0.00    -0.001 A 
ATOM      4  C   UNL     1       4.386   5.260  -5.251  0.00  0.00    -0.000 A 
ATOM      5  C   UNL     1       4.795   5.610  -6.520  0.00  0.00    +0.003 A 
ATOM      6  C   UNL     1       3.852   5.739  -7.533  0.00  0.00    +0.037 A 
ENDROOT
BRANCH   2   7
ATOM      7  C   UNL     1       0.783   4.454  -5.937  0.00  0.00    +0.056 C 
BRANCH   7   8
ATOM      8  C   UNL     1      -0.283   5.482  -5.928  0.00  0.00    -0.018 A 
ATOM      9  C   UNL     1      -0.134   6.638  -5.210  0.00  0.00    -0.004 A 
ATOM     10  C   UNL     1      -1.242   7.416  -4.944  0.00  0.00    -0.000 A 
ATOM     11  C   UNL     1      -2.485   6.994  -5.341  0.00  0.00    -0.000 A 
ATOM     12  C   UNL     1      -2.577   6.024  -6.328  0.00  0.00    -0.000 A 
ATOM     13  C   UNL     1      -1.452   5.281  -6.641  0.00  0.00    -0.004 A 
ENDBRANCH   7   8
ENDBRANCH   2   7
BRANCH   1  14
ATOM     14  O   UNL     1       2.003   4.437  -8.435  0.00  0.00    -0.474 OA
BRANCH  14  15
ATOM     15  C   UNL     1       1.897   5.047  -9.711  0.00  0.00    +0.223 C 
BRANCH  15  16
ATOM     16  C   UNL     1       0.905   6.194  -9.579  0.00  0.00    +0.120 C 
BRANCH  16  18
ATOM     17  C   UNL     1       0.246   4.907 -11.415  0.00  0.00    +0.090 C 
ATOM     18  N   UNL     1      -0.159   6.024 -10.565  0.00  0.00    -0.267 NA
ATOM     19  C   UNL     1      -0.315   7.237 -11.362  0.00  0.00    +0.090 C 
ENDBRANCH  16  18
ENDBRANCH  15  16
ENDBRANCH  14  15
ENDBRANCH   1  14
TORSDOF 6
ENDMDL
MODEL 6
REMARK VINA RESULT:      -6.6      1.659      2.119
REMARK  Name = 
REMARK  6 active torsions:
REMARK  status: ('A' for Active; 'I' for Inactive)
REMARK    1  A    between atoms: N_2  and  C_4
REMARK    2  A    between atoms: C_4  and  C_5
REMARK    3  A    between atoms: C_5  and  O_6
REMARK    4  A    between atoms: O_6  and  C_7
REMARK    5  A    between atoms: C_12  and  C_13
REMARK    6  A    between atoms: C_13  and  C_14
REMARK                            x       y       z     vdW  Elec       q    Type
REMARK                         _______ _______ _______ _____ _____    ______ ____
ROOT
ATOM      1  C   UNL     1       2.566   6.441  -7.933  0.00  0.00    +0.135 A 
ATOM      2  C   UNL     1       3.702   5.638  -7.958  0.00  0.00    +0.016 A 
ATOM      3  C   UNL     1       4.576   5.604  -6.877  0.00  0.00    -0.001 A 
ATOM      4  C   UNL     1       4.358   6.412  -5.768  0.00  0.00    -0.000 A 
ATOM      5  C   UNL     1       3.118   7.003  -5.644  0.00  0.00    +0.003 A 
ATOM      6  C   UNL     1       2.183   6.852  -6.661  0.00  0.00    +0.037 A 
ENDROOT
BRANCH   2   7
ATOM      7  C   UNL     1       4.151   5.224  -9.324  0.00  0.00    +0.056 C 
BRANCH   7   8
ATOM      8  C   UNL     1       5.283   6.062  -9.784  0.00  0.00    -0.018 A 
ATOM      9  C   UNL     1       5.062   7.181 -10.541  0.00  0.00    -0.004 A 
ATOM     10  C   UNL     1       6.115   7.750 -11.228  0.00  0.00    -0.000 A 
ATOM     11  C   UNL     1       7.351   7.157 -11.199  0.00  0.00    -0.000 A 
ATOM     12  C   UNL     1       7.631   6.247 -10.190  0.00  0.00    -0.000 A 
ATOM     13  C   UNL     1       6.583   5.718  -9.459  0.00  0.00    -0.004 A 
ENDBRANCH   7   8
ENDBRANCH   2   7
BRANCH   1  14
ATOM     14  O   UNL     1       2.114   7.099  -9.082  0.00  0.00    -0.474 OA
BRANCH  14  15
ATOM     15  C   UNL     1       0.865   6.695  -9.621  0.00  0.00    +0.223 C 
BRANCH  15  16
ATOM     16  C   UNL     1       1.047   6.567 -11.127  0.00  0.00    +0.120 C 
BRANCH  16  18
ATOM     17  C   UNL     1       0.852   5.084 -12.922  0.00  0.00    +0.090 C 
ATOM     18  N   UNL     1       1.105   5.153 -11.485  0.00  0.00    -0.267 NA
ATOM     19  C   UNL     1       0.092   4.398 -10.754  0.00  0.00    +0.090 C 
ENDBRANCH  16  18
ENDBRANCH  15  16
ENDBRANCH  14  15
ENDBRANCH   1  14
TORSDOF 6
ENDMDL
MODEL 7
REMARK VINA RESULT:      -6.6      2.812      4.725
REMARK  Name = 
REMARK  6 active torsions:
REMARK  status: ('A' for Active; 'I' for Inactive)
REMARK    1  A    between atoms: N_2  and  C_4
REMARK    2  A    between atoms: C_4  and  C_5
REMARK    3  A    between atoms: C_5  and  O_6
REMARK    4  A    between atoms: O_6  and  C_7
REMARK    5  A    between atoms: C_12  and  C_13
REMARK    6  A    between atoms: C_13  and  C_14
REMARK                            x       y       z     vdW  Elec       q    Type
REMARK                         _______ _______ _______ _____ _____    ______ ____
ROOT
ATOM      1  C   UNL     1       0.195   5.748  -7.351  0.00  0.00    +0.135 A 
ATOM      2  C   UNL     1       0.783   6.439  -6.297  0.00  0.00    +0.016 A 
ATOM      3  C   UNL     1       0.020   6.901  -5.231  0.00  0.00    -0.001 A 
ATOM      4  C   UNL     1      -1.359   6.724  -5.222  0.00  0.00    -0.000 A 
ATOM      5  C   UNL     1      -1.892   5.832  -6.128  0.00  0.00    +0.003 A 
ATOM      6  C   UNL     1      -1.062   5.226  -7.064  0.00  0.00    +0.037 A 
ENDROOT
BRANCH   2   7
ATOM      7  C   UNL     1       2.118   7.042  -6.605  0.00  0.00    +0.056 C 
BRANCH   7   8
ATOM      8  C   UNL     1       3.173   6.451  -5.751  0.00  0.00    -0.018 A 
ATOM      9  C   UNL     1       3.186   5.109  -5.482  0.00  0.00    -0.004 A 
ATOM     10  C   UNL     1       3.956   4.636  -4.439  0.00  0.00    -0.000 A 
ATOM     11  C   UNL     1       4.646   5.516  -3.644  0.00  0.00    -0.000 A 
ATOM     12  C   UNL     1       4.887   6.796  -4.120  0.00  0.00    -0.000 A 
ATOM     13  C   UNL     1       4.159   7.254  -5.203  0.00  0.00    -0.004 A 
ENDBRANCH   7   8
ENDBRANCH   2   7
BRANCH   1  14
ATOM     14  O   UNL     1       0.632   5.919  -8.669  0.00  0.00    -0.474 OA
BRANCH  14  15
ATOM     15  C   UNL     1       1.474   4.917  -9.217  0.00  0.00    +0.223 C 
BRANCH  15  16
ATOM     16  C   UNL     1       2.319   5.581 -10.295  0.00  0.00    +0.120 C 
BRANCH  16  18
ATOM     17  C   UNL     1       3.734   4.235  -9.012  0.00  0.00    +0.090 C 
ATOM     18  N   UNL     1       3.712   5.176 -10.130  0.00  0.00    -0.267 NA
ATOM     19  C   UNL     1       4.550   6.334  -9.835  0.00  0.00    +0.090 C 
ENDBRANCH  16  18
ENDBRANCH  15  16
ENDBRANCH  14  15
ENDBRANCH   1  14
TORSDOF 6
ENDMDL
MODEL 8
REMARK VINA RESULT:      -6.5      3.081      6.469
REMARK  Name = 
REMARK  6 active torsions:
REMARK  status: ('A' for Active; 'I' for Inactive)
REMARK    1  A    between atoms: N_2  and  C_4
REMARK    2  A    between atoms: C_4  and  C_5
REMARK    3  A    between atoms: C_5  and  O_6
REMARK    4  A    between atoms: O_6  and  C_7
REMARK    5  A    between atoms: C_12  and  C_13
REMARK    6  A    between atoms: C_13  and  C_14
REMARK                            x       y       z     vdW  Elec       q    Type
REMARK                         _______ _______ _______ _____ _____    ______ ____
ROOT
ATOM      1  C   UNL     1       3.168   6.372  -5.983  0.00  0.00    +0.135 A 
ATOM      2  C   UNL     1       2.312   5.678  -5.135  0.00  0.00    +0.016 A 
ATOM      3  C   UNL     1       2.714   5.315  -3.854  0.00  0.00    -0.001 A 
ATOM      4  C   UNL     1       4.002   5.598  -3.413  0.00  0.00    -0.000 A 
ATOM      5  C   UNL     1       4.745   6.494  -4.151  0.00  0.00    +0.003 A 
ATOM      6  C   UNL     1       4.229   7.000  -5.338  0.00  0.00    +0.037 A 
ENDROOT
BRANCH   2   7
ATOM      7  C   UNL     1       1.190   4.962  -5.820  0.00  0.00    +0.056 C 
BRANCH   7   8
ATOM      8  C   UNL     1      -0.039   5.790  -5.822  0.00  0.00    -0.018 A 
ATOM      9  C   UNL     1      -0.097   6.957  -5.111  0.00  0.00    -0.004 A 
ATOM     10  C   UNL     1      -1.325   7.533  -4.855  0.00  0.00    -0.000 A 
ATOM     11  C   UNL     1      -2.474   6.899  -5.257  0.00  0.00    -0.000 A 
ATOM     12  C   UNL     1      -2.389   5.924  -6.239  0.00  0.00    -0.000 A 
ATOM     13  C   UNL     1      -1.150   5.385  -6.540  0.00  0.00    -0.004 A 
ENDBRANCH   7   8
ENDBRANCH   2   7
BRANCH   1  14
ATOM     14  O   UNL     1       3.194   6.120  -7.359  0.00  0.00    -0.474 OA
BRANCH  14  15
ATOM     15  C   UNL     1       4.331   5.452  -7.882  0.00  0.00    +0.223 C 
BRANCH  15  16
ATOM     16  C   UNL     1       3.842   4.541  -8.999  0.00  0.00    +0.120 C 
BRANCH  16  18
ATOM     17  C   UNL     1       5.581   5.756  -9.979  0.00  0.00    +0.090 C 
ATOM     18  N   UNL     1       4.346   5.035 -10.277  0.00  0.00    -0.267 NA
ATOM     19  C   UNL     1       3.374   5.930 -10.898  0.00  0.00    +0.090 C 
ENDBRANCH  16  18
ENDBRANCH  15  16
ENDBRANCH  14  15
ENDBRANCH   1  14
TORSDOF 6
ENDMDL
MODEL 9
REMARK VINA RESULT:      -6.5      2.923      4.835
REMARK  Name = 
REMARK  6 active torsions:
REMARK  status: ('A' for Active; 'I' for Inactive)
REMARK    1  A    between atoms: N_2  and  C_4
REMARK    2  A    between atoms: C_4  and  C_5
REMARK    3  A    between atoms: C_5  and  O_6
REMARK    4  A    between atoms: O_6  and  C_7
REMARK    5  A    between atoms: C_12  and  C_13
REMARK    6  A    between atoms: C_13  and  C_14
REMARK                            x       y       z     vdW  Elec       q    Type
REMARK                         _______ _______ _______ _____ _____    ______ ____
ROOT
ATOM      1  C   UNL     1       2.608   6.606  -8.038  0.00  0.00    +0.135 A 
ATOM      2  C   UNL     1       3.240   5.701  -8.884  0.00  0.00    +0.016 A 
ATOM      3  C   UNL     1       2.502   4.817  -9.664  0.00  0.00    -0.001 A 
ATOM      4  C   UNL     1       1.116   4.787  -9.575  0.00  0.00    -0.000 A 
ATOM      5  C   UNL     1       0.496   5.841  -8.937  0.00  0.00    +0.003 A 
ATOM      6  C   UNL     1       1.268   6.827  -8.333  0.00  0.00    +0.037 A 
ENDROOT
BRANCH   2   7
ATOM      7  C   UNL     1       4.673   5.422  -8.553  0.00  0.00    +0.056 C 
BRANCH   7   8
ATOM      8  C   UNL     1       5.574   6.024  -9.563  0.00  0.00    -0.018 A 
ATOM      9  C   UNL     1       6.917   5.764  -9.546  0.00  0.00    -0.004 A 
ATOM     10  C   UNL     1       7.773   6.574 -10.264  0.00  0.00    -0.000 A 
ATOM     11  C   UNL     1       7.280   7.667 -10.931  0.00  0.00    -0.000 A 
ATOM     12  C   UNL     1       5.922   7.722 -11.209  0.00  0.00    -0.000 A 
ATOM     13  C   UNL     1       5.067   6.870 -10.534  0.00  0.00    -0.004 A 
ENDBRANCH   7   8
ENDBRANCH   2   7
BRANCH   1  14
ATOM     14  O   UNL     1       3.147   6.933  -6.789  0.00  0.00    -0.474 OA
BRANCH  14  15
ATOM     15  C   UNL     1       2.321   6.749  -5.650  0.00  0.00    +0.223 C 
BRANCH  15  16
ATOM     16  C   UNL     1       3.206   6.919  -4.423  0.00  0.00    +0.120 C 
BRANCH  16  18
ATOM     17  C   UNL     1       4.738   5.173  -4.165  0.00  0.00    +0.090 C 
ATOM     18  N   UNL     1       4.567   6.500  -4.751  0.00  0.00    -0.267 NA
ATOM     19  C   UNL     1       5.538   7.433  -4.187  0.00  0.00    +0.090 C 
ENDBRANCH  16  18
ENDBRANCH  15  16
ENDBRANCH  14  15
ENDBRANCH   1  14
TORSDOF 6
ENDMDL
