MODEL 1
REMARK VINA RESULT:      -9.7      0.000      0.000
REMARK  Name = 
REMARK  5 active torsions:
REMARK  status: ('A' for Active; 'I' for Inactive)
REMARK    1  A    between atoms: C_2  and  O_3
REMARK    2  A    between atoms: C_2  and  C_22
REMARK    3  A    between atoms: O_3  and  C_4
REMARK    4  A    between atoms: C_6  and  C_7
REMARK    5  A    between atoms: N_10  and  C_11
REMARK                            x       y       z     vdW  Elec       q    Type
REMARK                         _______ _______ _______ _____ _____    ______ ____
ROOT
ATOM      1  C   UNL     1       2.851   6.144 -11.046  0.00  0.00    +0.173 A 
ATOM      2  C   UNL     1       1.741   6.195 -11.884  0.00  0.00    +0.204 A 
ATOM      3  N   UNL     1       1.793   5.339 -13.024  0.00  0.00    -0.104 NA
ATOM      4  N   UNL     1       0.577   6.661 -11.366  0.00  0.00    -0.223 NA
ATOM      5  C   UNL     1       0.511   6.810 -10.018  0.00  0.00    +0.101 A 
ATOM      6  C   UNL     1       1.361   6.085  -9.186  0.00  0.00    +0.025 A 
ATOM      7  C   UNL     1       2.656   5.960  -9.684  0.00  0.00    +0.042 A 
ENDROOT
BRANCH   6   8
ATOM      8  C   UNL     1       0.842   5.239  -8.100  0.00  0.00    +0.041 A 
ATOM      9  C   UNL     1      -0.341   5.390  -7.384  0.00  0.00    +0.097 A 
ATOM     10  N   UNL     1      -0.118   5.221  -6.063  0.00  0.00    -0.251 N 
ATOM     11  N   UNL     1       1.008   4.538  -6.002  0.00  0.00    -0.168 NA
ATOM     12  C   UNL     1       1.653   4.565  -7.193  0.00  0.00    +0.122 A 
BRANCH  10  13
ATOM     13  C   UNL     1      -0.785   5.890  -4.947  0.00  0.00    +0.108 C 
ATOM     14  C   UNL     1      -2.282   5.660  -5.007  0.00  0.00    +0.043 C 
ATOM     15  C   UNL     1      -2.870   6.221  -3.717  0.00  0.00    +0.091 C 
ATOM     16  N   UNL     1      -2.280   7.502  -3.375  0.00  0.00    -0.218 NA
ATOM     17  C   UNL     1      -1.766   8.145  -4.557  0.00  0.00    +0.091 C 
ATOM     18  C   UNL     1      -0.509   7.384  -4.961  0.00  0.00    +0.043 C 
ENDBRANCH  10  13
ENDBRANCH   6   8
BRANCH   1  19
ATOM     19  O   UNL     1       4.083   6.422 -11.656  0.00  0.00    -0.472 OA
BRANCH  19  21
ATOM     20  C   UNL     1       5.841   7.908 -11.455  0.00  0.00    +0.052 C 
ATOM     21  C   UNL     1       5.238   6.602 -10.645  0.00  0.00    +0.190 C 
BRANCH  21  22
ATOM     22  C   UNL     1       6.253   5.565 -11.393  0.00  0.00    +0.041 A 
ATOM     23  C   UNL     1       6.378   5.854 -12.750  0.00  0.00    +0.085 A 
ATOM     24 CL   UNL     1       4.903   6.115 -13.645  0.00  0.00    -0.080 Cl
ATOM     25  C   UNL     1       7.558   6.098 -13.394  0.00  0.00    +0.150 A 
ATOM     26  F   UNL     1       7.636   6.628 -14.650  0.00  0.00    -0.203 F 
ATOM     27  C   UNL     1       8.734   5.959 -12.714  0.00  0.00    +0.031 A 
ATOM     28  C   UNL     1       8.694   5.515 -11.426  0.00  0.00    +0.014 A 
ATOM     29  C   UNL     1       7.494   5.549 -10.754  0.00  0.00    +0.058 A 
ATOM     30 CL   UNL     1       7.568   5.390  -9.035  0.00  0.00    -0.082 Cl
ENDBRANCH  21  22
ENDBRANCH  19  21
ENDBRANCH   1  19
TORSDOF 5
ENDMDL
MODEL 2
REMARK VINA RESULT:      -9.6      2.034      2.483
REMARK  Name = 
REMARK  5 active torsions:
REMARK  status: ('A' for Active; 'I' for Inactive)
REMARK    1  A    between atoms: C_2  and  O_3
REMARK    2  A    between atoms: C_2  and  C_22
REMARK    3  A    between atoms: O_3  and  C_4
REMARK    4  A    between atoms: C_6  and  C_7
REMARK    5  A    between atoms: N_10  and  C_11
REMARK                            x       y       z     vdW  Elec       q    Type
REMARK                         _______ _______ _______ _____ _____    ______ ____
ROOT
ATOM      1  C   UNL     1       3.338   5.650  -9.058  0.00  0.00    +0.173 A 
ATOM      2  C   UNL     1       2.092   6.215  -9.306  0.00  0.00    +0.204 A 
ATOM      3  N   UNL     1       1.160   5.374  -9.985  0.00  0.00    -0.104 NA
ATOM      4  N   UNL     1       1.710   7.269  -8.541  0.00  0.00    -0.223 NA
ATOM      5  C   UNL     1       2.454   7.538  -7.437  0.00  0.00    +0.101 A 
ATOM      6  C   UNL     1       3.231   6.541  -6.850  0.00  0.00    +0.025 A 
ATOM      7  C   UNL     1       3.858   5.707  -7.772  0.00  0.00    +0.042 A 
ENDROOT
BRANCH   6   8
ATOM      8  C   UNL     1       3.092   6.191  -5.428  0.00  0.00    +0.041 A 
ATOM      9  C   UNL     1       2.338   5.165  -4.866  0.00  0.00    +0.097 A 
ATOM     10  N   UNL     1       1.652   5.617  -3.794  0.00  0.00    -0.251 N 
ATOM     11  N   UNL     1       2.301   6.703  -3.420  0.00  0.00    -0.168 NA
ATOM     12  C   UNL     1       3.142   7.122  -4.396  0.00  0.00    +0.122 A 
BRANCH  10  13
ATOM     13  C   UNL     1       0.332   5.196  -3.329  0.00  0.00    +0.108 C 
ATOM     14  C   UNL     1      -0.743   6.117  -3.874  0.00  0.00    +0.043 C 
ATOM     15  C   UNL     1      -2.087   5.499  -3.505  0.00  0.00    +0.091 C 
ATOM     16  N   UNL     1      -2.088   5.002  -2.141  0.00  0.00    -0.218 NA
ATOM     17  C   UNL     1      -1.101   5.699  -1.356  0.00  0.00    +0.091 C 
ATOM     18  C   UNL     1       0.262   5.191  -1.811  0.00  0.00    +0.043 C 
ENDBRANCH  10  13
ENDBRANCH   6   8
BRANCH   1  19
ATOM     19  O   UNL     1       4.025   5.180 -10.188  0.00  0.00    -0.472 OA
BRANCH  19  21
ATOM     20  C   UNL     1       3.714   5.992 -12.329  0.00  0.00    +0.052 C 
ATOM     21  C   UNL     1       4.672   6.309 -11.022  0.00  0.00    +0.190 C 
BRANCH  21  22
ATOM     22  C   UNL     1       5.895   5.390 -11.591  0.00  0.00    +0.041 A 
ATOM     23  C   UNL     1       6.089   5.577 -12.958  0.00  0.00    +0.085 A 
ATOM     24 CL   UNL     1       4.674   5.516 -13.976  0.00  0.00    -0.080 Cl
ATOM     25  C   UNL     1       7.268   5.954 -13.539  0.00  0.00    +0.150 A 
ATOM     26  F   UNL     1       7.369   6.379 -14.832  0.00  0.00    -0.203 F 
ATOM     27  C   UNL     1       8.389   6.067 -12.766  0.00  0.00    +0.031 A 
ATOM     28  C   UNL     1       8.308   5.736 -11.447  0.00  0.00    +0.014 A 
ATOM     29  C   UNL     1       7.065   5.632 -10.867  0.00  0.00    +0.058 A 
ATOM     30 CL   UNL     1       7.017   5.637  -9.141  0.00  0.00    -0.082 Cl
ENDBRANCH  21  22
ENDBRANCH  19  21
ENDBRANCH   1  19
TORSDOF 5
ENDMDL
MODEL 3
REMARK VINA RESULT:      -9.1      4.735      9.842
REMARK  Name = 
REMARK  5 active torsions:
REMARK  status: ('A' for Active; 'I' for Inactive)
REMARK    1  A    between atoms: C_2  and  O_3
REMARK    2  A    between atoms: C_2  and  C_22
REMARK    3  A    between atoms: O_3  and  C_4
REMARK    4  A    between atoms: C_6  and  C_7
REMARK    5  A    between atoms: N_10  and  C_11
REMARK                            x       y       z     vdW  Elec       q    Type
REMARK                         _______ _______ _______ _____ _____    ______ ____
ROOT
ATOM      1  C   UNL     1       2.124   5.844  -6.281  0.00  0.00    +0.173 A 
ATOM      2  C   UNL     1       2.643   7.135  -6.282  0.00  0.00    +0.204 A 
ATOM      3  N   UNL     1       3.739   7.357  -5.396  0.00  0.00    -0.104 NA
ATOM      4  N   UNL     1       2.405   7.912  -7.368  0.00  0.00    -0.223 NA
ATOM      5  C   UNL     1       1.896   7.303  -8.470  0.00  0.00    +0.101 A 
ATOM      6  C   UNL     1       2.070   5.934  -8.662  0.00  0.00    +0.025 A 
ATOM      7  C   UNL     1       1.954   5.188  -7.492  0.00  0.00    +0.042 A 
ENDROOT
BRANCH   6   8
ATOM      8  C   UNL     1       2.677   5.397  -9.890  0.00  0.00    +0.041 A 
ATOM      9  C   UNL     1       4.006   5.050 -10.110  0.00  0.00    +0.097 A 
ATOM     10  N   UNL     1       4.428   5.527 -11.301  0.00  0.00    -0.251 N 
ATOM     11  N   UNL     1       3.319   5.729 -11.987  0.00  0.00    -0.168 NA
ATOM     12  C   UNL     1       2.238   5.716 -11.170  0.00  0.00    +0.122 A 
BRANCH  10  13
ATOM     13  C   UNL     1       5.763   6.002 -11.657  0.00  0.00    +0.108 C 
ATOM     14  C   UNL     1       6.312   5.219 -12.833  0.00  0.00    +0.043 C 
ATOM     15  C   UNL     1       7.608   5.900 -13.256  0.00  0.00    +0.091 C 
ATOM     16  N   UNL     1       8.415   6.270 -12.107  0.00  0.00    -0.218 NA
ATOM     17  C   UNL     1       8.091   5.432 -10.980  0.00  0.00    +0.091 C 
ATOM     18  C   UNL     1       6.720   5.875 -10.483  0.00  0.00    +0.043 C 
ENDBRANCH  10  13
ENDBRANCH   6   8
BRANCH   1  19
ATOM     19  O   UNL     1       1.691   5.367  -5.034  0.00  0.00    -0.472 OA
BRANCH  19  21
ATOM     20  C   UNL     1       1.659   6.098  -2.843  0.00  0.00    +0.052 C 
ATOM     21  C   UNL     1       0.845   6.396  -4.248  0.00  0.00    +0.190 C 
BRANCH  21  22
ATOM     22  C   UNL     1      -0.351   5.350  -3.876  0.00  0.00    +0.041 A 
ATOM     23  C   UNL     1      -0.636   5.356  -2.512  0.00  0.00    +0.085 A 
ATOM     24 CL   UNL     1       0.717   5.245  -1.417  0.00  0.00    -0.080 Cl
ATOM     25  C   UNL     1      -1.868   5.595  -1.970  0.00  0.00    +0.150 A 
ATOM     26  F   UNL     1      -2.071   5.851  -0.644  0.00  0.00    -0.203 F 
ATOM     27  C   UNL     1      -2.946   5.743  -2.795  0.00  0.00    +0.031 A 
ATOM     28  C   UNL     1      -2.768   5.582  -4.136  0.00  0.00    +0.014 A 
ATOM     29  C   UNL     1      -1.488   5.617  -4.641  0.00  0.00    +0.058 A 
ATOM     30 CL   UNL     1      -1.338   5.837  -6.347  0.00  0.00    -0.082 Cl
ENDBRANCH  21  22
ENDBRANCH  19  21
ENDBRANCH   1  19
TORSDOF 5
ENDMDL
MODEL 4
REMARK VINA RESULT:      -9.1      4.207      8.159
REMARK  Name = 
REMARK  5 active torsions:
REMARK  status: ('A' for Active; 'I' for Inactive)
REMARK    1  A    between atoms: C_2  and  O_3
REMARK    2  A    between atoms: C_2  and  C_22
REMARK    3  A    between atoms: O_3  and  C_4
REMARK    4  A    between atoms: C_6  and  C_7
REMARK    5  A    between atoms: N_10  and  C_11
REMARK                            x       y       z     vdW  Elec       q    Type
REMARK                         _______ _______ _______ _____ _____    ______ ____
ROOT
ATOM      1  C   UNL     1       0.435   6.280  -5.015  0.00  0.00    +0.173 A 
ATOM      2  C   UNL     1      -0.893   6.674  -5.143  0.00  0.00    +0.204 A 
ATOM      3  N   UNL     1      -1.176   8.017  -4.752  0.00  0.00    -0.104 NA
ATOM      4  N   UNL     1      -1.682   5.976  -5.998  0.00  0.00    -0.223 NA
ATOM      5  C   UNL     1      -1.067   5.109  -6.844  0.00  0.00    +0.101 A 
ATOM      6  C   UNL     1       0.277   5.276  -7.171  0.00  0.00    +0.025 A 
ATOM      7  C   UNL     1       1.066   5.682  -6.098  0.00  0.00    +0.042 A 
ENDROOT
BRANCH   6   8
ATOM      8  C   UNL     1       0.725   5.375  -8.569  0.00  0.00    +0.041 A 
ATOM      9  C   UNL     1       1.774   4.698  -9.184  0.00  0.00    +0.097 A 
ATOM     10  N   UNL     1       2.509   5.549  -9.934  0.00  0.00    -0.251 N 
ATOM     11  N   UNL     1       1.703   6.568 -10.163  0.00  0.00    -0.168 NA
ATOM     12  C   UNL     1       0.639   6.539  -9.325  0.00  0.00    +0.122 A 
BRANCH  10  13
ATOM     13  C   UNL     1       3.948   5.511 -10.183  0.00  0.00    +0.108 C 
ATOM     14  C   UNL     1       4.718   5.764  -8.901  0.00  0.00    +0.043 C 
ATOM     15  C   UNL     1       6.190   5.518  -9.210  0.00  0.00    +0.091 C 
ATOM     16  N   UNL     1       6.570   6.094 -10.487  0.00  0.00    -0.218 NA
ATOM     17  C   UNL     1       5.683   7.177 -10.829  0.00  0.00    +0.091 C 
ATOM     18  C   UNL     1       4.351   6.548 -11.219  0.00  0.00    +0.043 C 
ENDBRANCH  10  13
ENDBRANCH   6   8
BRANCH   1  19
ATOM     19  O   UNL     1       0.983   6.410  -3.730  0.00  0.00    -0.472 OA
BRANCH  19  21
ATOM     20  C   UNL     1       0.699   5.384  -1.679  0.00  0.00    +0.052 C 
ATOM     21  C   UNL     1       1.436   5.063  -3.121  0.00  0.00    +0.190 C 
BRANCH  21  22
ATOM     22  C   UNL     1       2.882   5.615  -2.601  0.00  0.00    +0.041 A 
ATOM     23  C   UNL     1       3.823   5.645  -3.629  0.00  0.00    +0.085 A 
ATOM     24 CL   UNL     1       3.966   4.213  -4.616  0.00  0.00    -0.080 Cl
ATOM     25  C   UNL     1       4.526   6.750  -4.016  0.00  0.00    +0.150 A 
ATOM     26  F   UNL     1       5.241   6.821  -5.177  0.00  0.00    -0.203 F 
ATOM     27  C   UNL     1       4.400   7.908  -3.303  0.00  0.00    +0.031 A 
ATOM     28  C   UNL     1       3.623   7.904  -2.184  0.00  0.00    +0.014 A 
ATOM     29  C   UNL     1       2.738   6.866  -1.999  0.00  0.00    +0.058 A 
ATOM     30 CL   UNL     1       1.498   7.110  -0.821  0.00  0.00    -0.082 Cl
ENDBRANCH  21  22
ENDBRANCH  19  21
ENDBRANCH   1  19
TORSDOF 5
ENDMDL
MODEL 5
REMARK VINA RESULT:      -9.1      2.533      3.817
REMARK  Name = 
REMARK  5 active torsions:
REMARK  status: ('A' for Active; 'I' for Inactive)
REMARK    1  A    between atoms: C_2  and  O_3
REMARK    2  A    between atoms: C_2  and  C_22
REMARK    3  A    between atoms: O_3  and  C_4
REMARK    4  A    between atoms: C_6  and  C_7
REMARK    5  A    between atoms: N_10  and  C_11
REMARK                            x       y       z     vdW  Elec       q    Type
REMARK                         _______ _______ _______ _____ _____    ______ ____
ROOT
ATOM      1  C   UNL     1       3.016   5.986  -7.556  0.00  0.00    +0.173 A 
ATOM      2  C   UNL     1       3.503   5.257  -6.476  0.00  0.00    +0.204 A 
ATOM      3  N   UNL     1       4.548   5.884  -5.734  0.00  0.00    -0.104 NA
ATOM      4  N   UNL     1       2.707   4.291  -5.954  0.00  0.00    -0.223 NA
ATOM      5  C   UNL     1       1.410   4.268  -6.356  0.00  0.00    +0.101 A 
ATOM      6  C   UNL     1       0.808   5.418  -6.862  0.00  0.00    +0.025 A 
ATOM      7  C   UNL     1       1.646   6.173  -7.678  0.00  0.00    +0.042 A 
ENDROOT
BRANCH   6   8
ATOM      8  C   UNL     1      -0.437   5.954  -6.289  0.00  0.00    +0.041 A 
ATOM      9  C   UNL     1      -0.606   6.633  -5.087  0.00  0.00    +0.097 A 
ATOM     10  N   UNL     1      -1.681   6.155  -4.422  0.00  0.00    -0.251 N 
ATOM     11  N   UNL     1      -2.410   5.568  -5.352  0.00  0.00    -0.168 NA
ATOM     12  C   UNL     1      -1.686   5.373  -6.480  0.00  0.00    +0.122 A 
BRANCH  10  13
ATOM     13  C   UNL     1      -1.864   6.037  -2.977  0.00  0.00    +0.108 C 
ATOM     14  C   UNL     1      -2.012   7.407  -2.345  0.00  0.00    +0.043 C 
ATOM     15  C   UNL     1      -2.388   7.186  -0.885  0.00  0.00    +0.091 C 
ATOM     16  N   UNL     1      -1.603   6.121  -0.288  0.00  0.00    -0.218 NA
ATOM     17  C   UNL     1      -0.358   5.963  -0.996  0.00  0.00    +0.091 C 
ATOM     18  C   UNL     1      -0.691   5.316  -2.334  0.00  0.00    +0.043 C 
ENDBRANCH  10  13
ENDBRANCH   6   8
BRANCH   1  19
ATOM     19  O   UNL     1       3.972   6.360  -8.514  0.00  0.00    -0.472 OA
BRANCH  19  21
ATOM     20  C   UNL     1       6.043   5.393  -8.851  0.00  0.00    +0.052 C 
ATOM     21  C   UNL     1       4.487   5.171  -9.358  0.00  0.00    +0.190 C 
BRANCH  21  22
ATOM     22  C   UNL     1       4.716   6.044 -10.717  0.00  0.00    +0.041 A 
ATOM     23  C   UNL     1       5.978   5.825 -11.265  0.00  0.00    +0.085 A 
ATOM     24 CL   UNL     1       7.340   5.905 -10.178  0.00  0.00    -0.080 Cl
ATOM     25  C   UNL     1       6.216   5.404 -12.544  0.00  0.00    +0.150 A 
ATOM     26  F   UNL     1       7.429   4.951 -12.975  0.00  0.00    -0.203 F 
ATOM     27  C   UNL     1       5.170   5.274 -13.411  0.00  0.00    +0.031 A 
ATOM     28  C   UNL     1       3.925   5.633 -12.991  0.00  0.00    +0.014 A 
ATOM     29  C   UNL     1       3.702   5.783 -11.641  0.00  0.00    +0.058 A 
ATOM     30 CL   UNL     1       2.052   5.815 -11.131  0.00  0.00    -0.082 Cl
ENDBRANCH  21  22
ENDBRANCH  19  21
ENDBRANCH   1  19
TORSDOF 5
ENDMDL
MODEL 6
REMARK VINA RESULT:      -8.9      3.202      4.884
REMARK  Name = 
REMARK  5 active torsions:
REMARK  status: ('A' for Active; 'I' for Inactive)
REMARK    1  A    between atoms: C_2  and  O_3
REMARK    2  A    between atoms: C_2  and  C_22
REMARK    3  A    between atoms: O_3  and  C_4
REMARK    4  A    between atoms: C_6  and  C_7
REMARK    5  A    between atoms: N_10  and  C_11
REMARK                            x       y       z     vdW  Elec       q    Type
REMARK                         _______ _______ _______ _____ _____    ______ ____
ROOT
ATOM      1  C   UNL     1       3.779   6.246 -10.645  0.00  0.00    +0.173 A 
ATOM      2  C   UNL     1       5.137   6.527 -10.531  0.00  0.00    +0.204 A 
ATOM      3  N   UNL     1       5.540   7.809 -11.010  0.00  0.00    -0.104 NA
ATOM      4  N   UNL     1       5.856   5.820  -9.624  0.00  0.00    -0.223 NA
ATOM      5  C   UNL     1       5.163   5.071  -8.727  0.00  0.00    +0.101 A 
ATOM      6  C   UNL     1       3.839   5.379  -8.425  0.00  0.00    +0.025 A 
ATOM      7  C   UNL     1       3.094   5.781  -9.531  0.00  0.00    +0.042 A 
ENDROOT
BRANCH   6   8
ATOM      8  C   UNL     1       3.397   5.613  -7.042  0.00  0.00    +0.041 A 
ATOM      9  C   UNL     1       2.409   4.937  -6.330  0.00  0.00    +0.097 A 
ATOM     10  N   UNL     1       1.617   5.814  -5.675  0.00  0.00    -0.251 N 
ATOM     11  N   UNL     1       2.343   6.911  -5.584  0.00  0.00    -0.168 NA
ATOM     12  C   UNL     1       3.398   6.863  -6.432  0.00  0.00    +0.122 A 
BRANCH  10  13
ATOM     13  C   UNL     1       0.188   5.697  -5.396  0.00  0.00    +0.108 C 
ATOM     14  C   UNL     1      -0.608   5.698  -6.686  0.00  0.00    +0.043 C 
ATOM     15  C   UNL     1      -2.053   5.380  -6.319  0.00  0.00    +0.091 C 
ATOM     16  N   UNL     1      -2.471   6.103  -5.131  0.00  0.00    -0.218 NA
ATOM     17  C   UNL     1      -1.675   7.292  -4.965  0.00  0.00    +0.091 C 
ATOM     18  C   UNL     1      -0.293   6.837  -4.513  0.00  0.00    +0.043 C 
ENDBRANCH  10  13
ENDBRANCH   6   8
BRANCH   1  19
ATOM     19  O   UNL     1       3.249   6.337 -11.941  0.00  0.00    -0.472 OA
BRANCH  19  21
ATOM     20  C   UNL     1       3.436   5.335 -14.015  0.00  0.00    +0.052 C 
ATOM     21  C   UNL     1       2.827   4.968 -12.525  0.00  0.00    +0.190 C 
BRANCH  21  22
ATOM     22  C   UNL     1       1.319   5.441 -12.932  0.00  0.00    +0.041 A 
ATOM     23  C   UNL     1       0.467   5.458 -11.829  0.00  0.00    +0.085 A 
ATOM     24 CL   UNL     1       0.474   4.050 -10.799  0.00  0.00    -0.080 Cl
ATOM     25  C   UNL     1      -0.251   6.543 -11.410  0.00  0.00    +0.150 A 
ATOM     26  F   UNL     1      -0.868   6.614 -10.195  0.00  0.00    -0.203 F 
ATOM     27  C   UNL     1      -0.240   7.684 -12.160  0.00  0.00    +0.031 A 
ATOM     28  C   UNL     1       0.439   7.682 -13.341  0.00  0.00    +0.014 A 
ATOM     29  C   UNL     1       1.353   6.680 -13.575  0.00  0.00    +0.058 A 
ATOM     30 CL   UNL     1       2.476   6.945 -14.860  0.00  0.00    -0.082 Cl
ENDBRANCH  21  22
ENDBRANCH  19  21
ENDBRANCH   1  19
TORSDOF 5
ENDMDL
MODEL 7
REMARK VINA RESULT:      -8.8      3.353      3.906
REMARK  Name = 
REMARK  5 active torsions:
REMARK  status: ('A' for Active; 'I' for Inactive)
REMARK    1  A    between atoms: C_2  and  O_3
REMARK    2  A    between atoms: C_2  and  C_22
REMARK    3  A    between atoms: O_3  and  C_4
REMARK    4  A    between atoms: C_6  and  C_7
REMARK    5  A    between atoms: N_10  and  C_11
REMARK                            x       y       z     vdW  Elec       q    Type
REMARK                         _______ _______ _______ _____ _____    ______ ____
ROOT
ATOM      1  C   UNL     1       3.137   5.615  -8.977  0.00  0.00    +0.173 A 
ATOM      2  C   UNL     1       2.127   6.570  -9.019  0.00  0.00    +0.204 A 
ATOM      3  N   UNL     1       0.970   6.209  -9.773  0.00  0.00    -0.104 NA
ATOM      4  N   UNL     1       2.103   7.512  -8.043  0.00  0.00    -0.223 NA
ATOM      5  C   UNL     1       2.908   7.312  -6.967  0.00  0.00    +0.101 A 
ATOM      6  C   UNL     1       3.341   6.029  -6.639  0.00  0.00    +0.025 A 
ATOM      7  C   UNL     1       3.664   5.249  -7.747  0.00  0.00    +0.042 A 
ENDROOT
BRANCH   6   8
ATOM      8  C   UNL     1       3.117   5.456  -5.302  0.00  0.00    +0.041 A 
ATOM      9  C   UNL     1       2.418   6.013  -4.236  0.00  0.00    +0.097 A 
ATOM     10  N   UNL     1       3.114   5.867  -3.088  0.00  0.00    -0.251 N 
ATOM     11  N   UNL     1       3.946   4.872  -3.330  0.00  0.00    -0.168 NA
ATOM     12  C   UNL     1       4.026   4.623  -4.659  0.00  0.00    +0.122 A 
BRANCH  10  13
ATOM     13  C   UNL     1       3.166   6.778  -1.946  0.00  0.00    +0.108 C 
ATOM     14  C   UNL     1       3.871   8.066  -2.325  0.00  0.00    +0.043 C 
ATOM     15  C   UNL     1       3.710   9.024  -1.150  0.00  0.00    +0.091 C 
ATOM     16  N   UNL     1       3.921   8.351   0.118  0.00  0.00    -0.218 NA
ATOM     17  C   UNL     1       4.748   7.186  -0.068  0.00  0.00    +0.091 C 
ATOM     18  C   UNL     1       3.888   6.143  -0.770  0.00  0.00    +0.043 C 
ENDBRANCH  10  13
ENDBRANCH   6   8
BRANCH   1  19
ATOM     19  O   UNL     1       3.628   5.198 -10.224  0.00  0.00    -0.472 OA
BRANCH  19  21
ATOM     20  C   UNL     1       3.470   6.111 -12.341  0.00  0.00    +0.052 C 
ATOM     21  C   UNL     1       4.388   6.310 -10.983  0.00  0.00    +0.190 C 
BRANCH  21  22
ATOM     22  C   UNL     1       5.570   5.330 -11.536  0.00  0.00    +0.041 A 
ATOM     23  C   UNL     1       5.664   5.367 -12.926  0.00  0.00    +0.085 A 
ATOM     24 CL   UNL     1       4.178   5.202 -13.825  0.00  0.00    -0.080 Cl
ATOM     25  C   UNL     1       6.795   5.674 -13.628  0.00  0.00    +0.150 A 
ATOM     26  F   UNL     1       6.801   5.955 -14.963  0.00  0.00    -0.203 F 
ATOM     27  C   UNL     1       7.969   5.865 -12.956  0.00  0.00    +0.031 A 
ATOM     28  C   UNL     1       7.986   5.680 -11.607  0.00  0.00    +0.014 A 
ATOM     29  C   UNL     1       6.788   5.644 -10.930  0.00  0.00    +0.058 A 
ATOM     30 CL   UNL     1       6.865   5.836  -9.215  0.00  0.00    -0.082 Cl
ENDBRANCH  21  22
ENDBRANCH  19  21
ENDBRANCH   1  19
TORSDOF 5
ENDMDL
MODEL 8
REMARK VINA RESULT:      -8.7      4.312      8.487
REMARK  Name = 
REMARK  5 active torsions:
REMARK  status: ('A' for Active; 'I' for Inactive)
REMARK    1  A    between atoms: C_2  and  O_3
REMARK    2  A    between atoms: C_2  and  C_22
REMARK    3  A    between atoms: O_3  and  C_4
REMARK    4  A    between atoms: C_6  and  C_7
REMARK    5  A    between atoms: N_10  and  C_11
REMARK                            x       y       z     vdW  Elec       q    Type
REMARK                         _______ _______ _______ _____ _____    ______ ____
ROOT
ATOM      1  C   UNL     1       0.743   6.568  -4.834  0.00  0.00    +0.173 A 
ATOM      2  C   UNL     1      -0.618   6.632  -5.115  0.00  0.00    +0.204 A 
ATOM      3  N   UNL     1      -1.324   7.703  -4.489  0.00  0.00    -0.104 NA
ATOM      4  N   UNL     1      -1.064   6.013  -6.236  0.00  0.00    -0.223 NA
ATOM      5  C   UNL     1      -0.130   5.591  -7.127  0.00  0.00    +0.101 A 
ATOM      6  C   UNL     1       1.135   6.174  -7.152  0.00  0.00    +0.025 A 
ATOM      7  C   UNL     1       1.641   6.462  -5.887  0.00  0.00    +0.042 A 
ENDROOT
BRANCH   6   8
ATOM      8  C   UNL     1       1.693   6.755  -8.383  0.00  0.00    +0.041 A 
ATOM      9  C   UNL     1       1.210   6.641  -9.683  0.00  0.00    +0.097 A 
ATOM     10  N   UNL     1       2.219   6.373 -10.539  0.00  0.00    -0.251 N 
ATOM     11  N   UNL     1       3.305   6.773  -9.906  0.00  0.00    -0.168 NA
ATOM     12  C   UNL     1       3.053   6.963  -8.589  0.00  0.00    +0.122 A 
BRANCH  10  13
ATOM     13  C   UNL     1       2.176   5.556 -11.751  0.00  0.00    +0.108 C 
ATOM     14  C   UNL     1       3.211   6.032 -12.751  0.00  0.00    +0.043 C 
ATOM     15  C   UNL     1       3.230   5.017 -13.888  0.00  0.00    +0.091 C 
ATOM     16  N   UNL     1       1.887   4.620 -14.270  0.00  0.00    -0.218 NA
ATOM     17  C   UNL     1       0.943   5.647 -13.912  0.00  0.00    +0.091 C 
ATOM     18  C   UNL     1       0.801   5.605 -12.395  0.00  0.00    +0.043 C 
ENDBRANCH  10  13
ENDBRANCH   6   8
BRANCH   1  19
ATOM     19  O   UNL     1       1.077   6.482  -3.474  0.00  0.00    -0.472 OA
BRANCH  19  21
ATOM     20  C   UNL     1       0.745   5.076  -1.670  0.00  0.00    +0.052 C 
ATOM     21  C   UNL     1       1.625   5.094  -3.068  0.00  0.00    +0.190 C 
BRANCH  21  22
ATOM     22  C   UNL     1       2.955   5.675  -2.321  0.00  0.00    +0.041 A 
ATOM     23  C   UNL     1       4.016   5.842  -3.210  0.00  0.00    +0.085 A 
ATOM     24 CL   UNL     1       4.373   4.509  -4.277  0.00  0.00    -0.080 Cl
ATOM     25  C   UNL     1       4.691   7.012  -3.414  0.00  0.00    +0.150 A 
ATOM     26  F   UNL     1       5.541   7.219  -4.462  0.00  0.00    -0.203 F 
ATOM     27  C   UNL     1       4.402   8.097  -2.636  0.00  0.00    +0.031 A 
ATOM     28  C   UNL     1       3.492   7.956  -1.633  0.00  0.00    +0.014 A 
ATOM     29  C   UNL     1       2.658   6.861  -1.647  0.00  0.00    +0.058 A 
ATOM     30 CL   UNL     1       1.266   6.939  -0.627  0.00  0.00    -0.082 Cl
ENDBRANCH  21  22
ENDBRANCH  19  21
ENDBRANCH   1  19
TORSDOF 5
ENDMDL
MODEL 9
REMARK VINA RESULT:      -8.6      5.398      9.639
REMARK  Name = 
REMARK  5 active torsions:
REMARK  status: ('A' for Active; 'I' for Inactive)
REMARK    1  A    between atoms: C_2  and  O_3
REMARK    2  A    between atoms: C_2  and  C_22
REMARK    3  A    between atoms: O_3  and  C_4
REMARK    4  A    between atoms: C_6  and  C_7
REMARK    5  A    between atoms: N_10  and  C_11
REMARK                            x       y       z     vdW  Elec       q    Type
REMARK                         _______ _______ _______ _____ _____    ______ ____
ROOT
ATOM      1  C   UNL     1       1.681   5.627  -6.201  0.00  0.00    +0.173 A 
ATOM      2  C   UNL     1       2.704   6.566  -6.283  0.00  0.00    +0.204 A 
ATOM      3  N   UNL     1       3.913   6.217  -5.612  0.00  0.00    -0.104 NA
ATOM      4  N   UNL     1       2.659   7.465  -7.298  0.00  0.00    -0.223 NA
ATOM      5  C   UNL     1       1.765   7.234  -8.295  0.00  0.00    +0.101 A 
ATOM      6  C   UNL     1       1.289   5.946  -8.530  0.00  0.00    +0.025 A 
ATOM      7  C   UNL     1       1.048   5.219  -7.367  0.00  0.00    +0.042 A 
ENDROOT
BRANCH   6   8
ATOM      8  C   UNL     1       1.394   5.313  -9.855  0.00  0.00    +0.041 A 
ATOM      9  C   UNL     1       2.138   5.737 -10.952  0.00  0.00    +0.097 A 
ATOM     10  N   UNL     1       1.398   5.664 -12.080  0.00  0.00    -0.251 N 
ATOM     11  N   UNL     1       0.439   4.805 -11.791  0.00  0.00    -0.168 NA
ATOM     12  C   UNL     1       0.359   4.603 -10.454  0.00  0.00    +0.122 A 
BRANCH  10  13
ATOM     13  C   UNL     1       1.448   6.545 -13.245  0.00  0.00    +0.108 C 
ATOM     14  C   UNL     1       0.459   7.684 -13.094  0.00  0.00    +0.043 C 
ATOM     15  C   UNL     1       0.712   8.649 -14.246  0.00  0.00    +0.091 C 
ATOM     16  N   UNL     1       0.918   7.942 -15.497  0.00  0.00    -0.218 NA
ATOM     17  C   UNL     1       0.289   6.646 -15.446  0.00  0.00    +0.091 C 
ATOM     18  C   UNL     1       1.137   5.781 -14.522  0.00  0.00    +0.043 C 
ENDBRANCH  10  13
ENDBRANCH   6   8
BRANCH   1  19
ATOM     19  O   UNL     1       1.289   5.271  -4.901  0.00  0.00    -0.472 OA
BRANCH  19  21
ATOM     20  C   UNL     1       1.411   6.148  -2.767  0.00  0.00    +0.052 C 
ATOM     21  C   UNL     1       0.553   6.407  -4.154  0.00  0.00    +0.190 C 
BRANCH  21  22
ATOM     22  C   UNL     1      -0.692   5.475  -3.658  0.00  0.00    +0.041 A 
ATOM     23  C   UNL     1      -0.775   5.421  -2.268  0.00  0.00    +0.085 A 
ATOM     24 CL   UNL     1       0.700   5.091  -1.397  0.00  0.00    -0.080 Cl
ATOM     25  C   UNL     1      -1.878   5.756  -1.534  0.00  0.00    +0.150 A 
ATOM     26  F   UNL     1      -1.857   5.943  -0.183  0.00  0.00    -0.203 F 
ATOM     27  C   UNL     1      -3.039   6.075  -2.179  0.00  0.00    +0.031 A 
ATOM     28  C   UNL     1      -3.077   5.985  -3.538  0.00  0.00    +0.014 A 
ATOM     29  C   UNL     1      -1.888   5.914  -4.228  0.00  0.00    +0.058 A 
ATOM     30 CL   UNL     1      -1.961   6.230  -5.924  0.00  0.00    -0.082 Cl
ENDBRANCH  21  22
ENDBRANCH  19  21
ENDBRANCH   1  19
TORSDOF 5
ENDMDL
