MODEL 1
REMARK VINA RESULT:      -7.1      0.000      0.000
REMARK  Name = 
REMARK  3 active torsions:
REMARK  status: ('A' for Active; 'I' for Inactive)
REMARK    1  A    between atoms: C_2  and  C_3
REMARK    2  A    between atoms: C_11  and  C_12
REMARK    3  A    between atoms: C_12  and  N_13
REMARK                            x       y       z     vdW  Elec       q    Type
REMARK                         _______ _______ _______ _____ _____    ______ ____
ROOT
ATOM      1  C   UNL     1       0.835   5.786  -8.964  0.00  0.00    -0.005 A 
ATOM      2  C   UNL     1       2.185   6.111  -8.895  0.00  0.00    +0.045 A 
ATOM      3  C   UNL     1       3.153   6.018  -9.970  0.00  0.00    +0.175 C 
ATOM      4  C   UNL     1       4.690   6.328  -9.527  0.00  0.00    +0.078 C 
ATOM      5  C   UNL     1       4.687   5.055  -8.457  0.00  0.00    +0.015 C 
ATOM      6  C   UNL     1       4.019   5.744  -7.269  0.00  0.00    +0.046 C 
ATOM      7  O   UNL     1       2.843   6.519 -11.076  0.00  0.00    -0.291 OA
ATOM      8  C   UNL     1       2.587   6.019  -7.585  0.00  0.00    +0.061 A 
ATOM      9  N   UNL     1       1.442   6.090  -6.869  0.00  0.00    -0.254 NA
ATOM     10  C   UNL     1       0.390   5.761  -7.652  0.00  0.00    +0.055 A 
ATOM     11  C   UNL     1      -0.965   5.358  -7.182  0.00  0.00    +0.052 C 
ENDROOT
BRANCH   1  13
ATOM     12  C   UNL     1       0.231   4.314 -10.492  0.00  0.00    +0.005 C 
ATOM     13  C   UNL     1       0.069   5.402 -10.185  0.00  0.00    +0.028 C 
ENDBRANCH   1  13
BRANCH   4  14
ATOM     14  C   UNL     1       5.277   5.375 -10.753  0.00  0.00    +0.080 C 
BRANCH  14  15
ATOM     15  N   UNL     1       6.358   6.140 -11.317  0.00  0.00    -0.268 NA
ATOM     16  C   UNL     1       6.269   6.309 -12.742  0.00  0.00    +0.105 C 
ATOM     17  C   UNL     1       7.175   5.375 -13.481  0.00  0.00    +0.159 C 
ATOM     18  O   UNL     1       8.501   5.452 -13.125  0.00  0.00    -0.351 OA
ATOM     19  C   UNL     1       8.737   5.750 -11.804  0.00  0.00    +0.159 C 
ATOM     20  C   UNL     1       7.572   5.499 -10.894  0.00  0.00    +0.105 C 
ENDBRANCH  14  15
ENDBRANCH   4  14
TORSDOF 3
ENDMDL
MODEL 2
REMARK VINA RESULT:      -6.9      3.930      8.780
REMARK  Name = 
REMARK  3 active torsions:
REMARK  status: ('A' for Active; 'I' for Inactive)
REMARK    1  A    between atoms: C_2  and  C_3
REMARK    2  A    between atoms: C_11  and  C_12
REMARK    3  A    between atoms: C_12  and  N_13
REMARK                            x       y       z     vdW  Elec       q    Type
REMARK                         _______ _______ _______ _____ _____    ______ ____
ROOT
ATOM      1  C   UNL     1       3.621   5.898  -6.623  0.00  0.00    -0.005 A 
ATOM      2  C   UNL     1       2.270   6.216  -6.712  0.00  0.00    +0.045 A 
ATOM      3  C   UNL     1       1.307   6.213  -5.628  0.00  0.00    +0.175 C 
ATOM      4  C   UNL     1      -0.233   6.484  -6.089  0.00  0.00    +0.078 C 
ATOM      5  C   UNL     1      -0.233   5.126  -7.048  0.00  0.00    +0.015 C 
ATOM      6  C   UNL     1       0.429   5.712  -8.293  0.00  0.00    +0.046 C 
ATOM      7  O   UNL     1       1.621   6.806  -4.570  0.00  0.00    -0.291 OA
ATOM      8  C   UNL     1       1.862   6.013  -8.007  0.00  0.00    +0.061 A 
ATOM      9  N   UNL     1       3.004   6.025  -8.733  0.00  0.00    -0.254 NA
ATOM     10  C   UNL     1       4.060   5.764  -7.929  0.00  0.00    +0.055 A 
ATOM     11  C   UNL     1       5.413   5.323  -8.370  0.00  0.00    +0.052 C 
ENDROOT
BRANCH   1  13
ATOM     12  C   UNL     1       4.916   6.543  -4.958  0.00  0.00    +0.005 C 
ATOM     13  C   UNL     1       4.393   5.619  -5.376  0.00  0.00    +0.028 C 
ENDBRANCH   1  13
BRANCH   4  14
ATOM     14  C   UNL     1      -0.813   5.637  -4.785  0.00  0.00    +0.080 C 
BRANCH  14  15
ATOM     15  N   UNL     1      -2.042   6.304  -4.441  0.00  0.00    -0.268 NA
ATOM     16  C   UNL     1      -1.853   7.556  -3.761  0.00  0.00    +0.105 C 
ATOM     17  C   UNL     1      -2.060   7.435  -2.283  0.00  0.00    +0.159 C 
ATOM     18  O   UNL     1      -3.283   6.927  -1.910  0.00  0.00    -0.351 OA
ATOM     19  C   UNL     1      -3.816   5.993  -2.766  0.00  0.00    +0.159 C 
ATOM     20  C   UNL     1      -2.819   5.358  -3.690  0.00  0.00    +0.105 C 
ENDBRANCH  14  15
ENDBRANCH   4  14
TORSDOF 3
ENDMDL
MODEL 3
REMARK VINA RESULT:      -6.9      2.701      4.117
REMARK  Name = 
REMARK  3 active torsions:
REMARK  status: ('A' for Active; 'I' for Inactive)
REMARK    1  A    between atoms: C_2  and  C_3
REMARK    2  A    between atoms: C_11  and  C_12
REMARK    3  A    between atoms: C_12  and  N_13
REMARK                            x       y       z     vdW  Elec       q    Type
REMARK                         _______ _______ _______ _____ _____    ______ ____
ROOT
ATOM      1  C   UNL     1      -0.994   5.650  -5.056  0.00  0.00    -0.005 A 
ATOM      2  C   UNL     1       0.360   5.944  -5.177  0.00  0.00    +0.045 A 
ATOM      3  C   UNL     1       1.163   5.840  -6.379  0.00  0.00    +0.175 C 
ATOM      4  C   UNL     1       2.755   6.112  -6.156  0.00  0.00    +0.078 C 
ATOM      5  C   UNL     1       2.874   4.830  -5.104  0.00  0.00    +0.015 C 
ATOM      6  C   UNL     1       2.396   5.522  -3.830  0.00  0.00    +0.046 C 
ATOM      7  O   UNL     1       0.713   6.358  -7.427  0.00  0.00    -0.291 OA
ATOM      8  C   UNL     1       0.940   5.831  -3.938  0.00  0.00    +0.061 A 
ATOM      9  N   UNL     1      -0.090   5.921  -3.067  0.00  0.00    -0.254 NA
ATOM     10  C   UNL     1      -1.249   5.623  -3.696  0.00  0.00    +0.055 A 
ATOM     11  C   UNL     1      -2.533   5.245  -3.040  0.00  0.00    +0.052 C 
ENDROOT
BRANCH   1  13
ATOM     12  C   UNL     1      -2.665   6.133  -6.412  0.00  0.00    +0.005 C 
ATOM     13  C   UNL     1      -1.933   5.294  -6.160  0.00  0.00    +0.028 C 
ENDBRANCH   1  13
BRANCH   4  14
ATOM     14  C   UNL     1       3.141   5.157  -7.459  0.00  0.00    +0.080 C 
BRANCH  14  15
ATOM     15  N   UNL     1       4.054   5.957  -8.232  0.00  0.00    -0.268 NA
ATOM     16  C   UNL     1       3.554   6.317  -9.531  0.00  0.00    +0.105 C 
ATOM     17  C   UNL     1       4.128   5.463 -10.617  0.00  0.00    +0.159 C 
ATOM     18  O   UNL     1       5.502   5.450 -10.678  0.00  0.00    -0.351 OA
ATOM     19  C   UNL     1       6.144   5.561  -9.467  0.00  0.00    +0.159 C 
ATOM     20  C   UNL     1       5.290   5.227  -8.280  0.00  0.00    +0.105 C 
ENDBRANCH  14  15
ENDBRANCH   4  14
TORSDOF 3
ENDMDL
MODEL 4
REMARK VINA RESULT:      -6.9      4.303      7.034
REMARK  Name = 
REMARK  3 active torsions:
REMARK  status: ('A' for Active; 'I' for Inactive)
REMARK    1  A    between atoms: C_2  and  C_3
REMARK    2  A    between atoms: C_11  and  C_12
REMARK    3  A    between atoms: C_12  and  N_13
REMARK                            x       y       z     vdW  Elec       q    Type
REMARK                         _______ _______ _______ _____ _____    ______ ____
ROOT
ATOM      1  C   UNL     1       0.794   5.298  -7.647  0.00  0.00    -0.005 A 
ATOM      2  C   UNL     1       1.968   5.121  -6.923  0.00  0.00    +0.045 A 
ATOM      3  C   UNL     1       2.223   5.563  -5.566  0.00  0.00    +0.175 C 
ATOM      4  C   UNL     1       3.755   5.337  -5.056  0.00  0.00    +0.078 C 
ATOM      5  C   UNL     1       4.349   6.325  -6.254  0.00  0.00    +0.015 C 
ATOM      6  C   UNL     1       4.393   5.314  -7.397  0.00  0.00    +0.046 C 
ATOM      7  O   UNL     1       1.364   5.295  -4.695  0.00  0.00    -0.291 OA
ATOM      8  C   UNL     1       3.003   4.959  -7.810  0.00  0.00    +0.061 A 
ATOM      9  N   UNL     1       2.409   4.598  -8.970  0.00  0.00    -0.254 NA
ATOM     10  C   UNL     1       1.110   4.975  -8.956  0.00  0.00    +0.055 A 
ATOM     11  C   UNL     1       0.219   5.105 -10.143  0.00  0.00    +0.052 C 
ENDROOT
BRANCH   1  13
ATOM     12  C   UNL     1      -1.258   5.056  -6.877  0.00  0.00    +0.005 C 
ATOM     13  C   UNL     1      -0.492   5.860  -7.140  0.00  0.00    +0.028 C 
ENDBRANCH   1  13
BRANCH   4  14
ATOM     14  C   UNL     1       3.628   6.603  -3.990  0.00  0.00    +0.080 C 
BRANCH  14  15
ATOM     15  N   UNL     1       4.441   6.211  -2.868  0.00  0.00    -0.268 NA
ATOM     16  C   UNL     1       4.108   4.920  -2.333  0.00  0.00    +0.105 C 
ATOM     17  C   UNL     1       3.280   5.018  -1.090  0.00  0.00    +0.159 C 
ATOM     18  O   UNL     1       3.838   5.767  -0.081  0.00  0.00    -0.351 OA
ATOM     19  C   UNL     1       4.600   6.834  -0.494  0.00  0.00    +0.159 C 
ATOM     20  C   UNL     1       4.339   7.272  -1.905  0.00  0.00    +0.105 C 
ENDBRANCH  14  15
ENDBRANCH   4  14
TORSDOF 3
ENDMDL
MODEL 5
REMARK VINA RESULT:      -6.8      1.905      2.663
REMARK  Name = 
REMARK  3 active torsions:
REMARK  status: ('A' for Active; 'I' for Inactive)
REMARK    1  A    between atoms: C_2  and  C_3
REMARK    2  A    between atoms: C_11  and  C_12
REMARK    3  A    between atoms: C_12  and  N_13
REMARK                            x       y       z     vdW  Elec       q    Type
REMARK                         _______ _______ _______ _____ _____    ______ ____
ROOT
ATOM      1  C   UNL     1       0.172   5.920  -6.166  0.00  0.00    -0.005 A 
ATOM      2  C   UNL     1       1.303   6.409  -6.810  0.00  0.00    +0.045 A 
ATOM      3  C   UNL     1       1.707   6.136  -8.176  0.00  0.00    +0.175 C 
ATOM      4  C   UNL     1       3.167   6.736  -8.584  0.00  0.00    +0.078 C 
ATOM      5  C   UNL     1       3.921   5.820  -7.419  0.00  0.00    +0.015 C 
ATOM      6  C   UNL     1       3.688   6.728  -6.214  0.00  0.00    +0.046 C 
ATOM      7  O   UNL     1       0.845   6.270  -9.075  0.00  0.00    -0.291 OA
ATOM      8  C   UNL     1       2.238   6.732  -5.858  0.00  0.00    +0.061 A 
ATOM      9  N   UNL     1       1.531   6.863  -4.713  0.00  0.00    -0.254 NA
ATOM     10  C   UNL     1       0.353   6.208  -4.824  0.00  0.00    +0.055 A 
ATOM     11  C   UNL     1      -0.532   5.794  -3.699  0.00  0.00    +0.052 C 
ENDROOT
BRANCH   1  13
ATOM     12  C   UNL     1      -1.946   5.642  -6.715  0.00  0.00    +0.005 C 
ATOM     13  C   UNL     1      -0.931   5.124  -6.779  0.00  0.00    +0.028 C 
ENDBRANCH   1  13
BRANCH   4  14
ATOM     14  C   UNL     1       3.374   5.556  -9.733  0.00  0.00    +0.080 C 
BRANCH  14  15
ATOM     15  N   UNL     1       4.207   6.172 -10.734  0.00  0.00    -0.268 NA
ATOM     16  C   UNL     1       3.665   6.102 -12.063  0.00  0.00    +0.105 C 
ATOM     17  C   UNL     1       4.302   5.021 -12.879  0.00  0.00    +0.159 C 
ATOM     18  O   UNL     1       5.672   5.104 -12.980  0.00  0.00    -0.351 OA
ATOM     19  C   UNL     1       6.312   5.610 -11.873  0.00  0.00    +0.159 C 
ATOM     20  C   UNL     1       5.502   5.563 -10.612  0.00  0.00    +0.105 C 
ENDBRANCH  14  15
ENDBRANCH   4  14
TORSDOF 3
ENDMDL
MODEL 6
REMARK VINA RESULT:      -6.8      2.525      7.128
REMARK  Name = 
REMARK  3 active torsions:
REMARK  status: ('A' for Active; 'I' for Inactive)
REMARK    1  A    between atoms: C_2  and  C_3
REMARK    2  A    between atoms: C_11  and  C_12
REMARK    3  A    between atoms: C_12  and  N_13
REMARK                            x       y       z     vdW  Elec       q    Type
REMARK                         _______ _______ _______ _____ _____    ______ ____
ROOT
ATOM      1  C   UNL     1       4.481   5.910 -10.088  0.00  0.00    -0.005 A 
ATOM      2  C   UNL     1       3.928   5.446  -8.899  0.00  0.00    +0.045 A 
ATOM      3  C   UNL     1       2.534   5.519  -8.507  0.00  0.00    +0.175 C 
ATOM      4  C   UNL     1       2.232   5.025  -6.984  0.00  0.00    +0.078 C 
ATOM      5  C   UNL     1       3.214   6.210  -6.354  0.00  0.00    +0.015 C 
ATOM      6  C   UNL     1       4.561   5.507  -6.504  0.00  0.00    +0.046 C 
ATOM      7  O   UNL     1       1.676   5.134  -9.335  0.00  0.00    -0.291 OA
ATOM      8  C   UNL     1       4.918   5.402  -7.949  0.00  0.00    +0.061 A 
ATOM      9  N   UNL     1       6.072   5.394  -8.655  0.00  0.00    -0.254 NA
ATOM     10  C   UNL     1       5.852   5.884  -9.897  0.00  0.00    +0.055 A 
ATOM     11  C   UNL     1       6.890   6.386 -10.840  0.00  0.00    +0.052 C 
ENDROOT
BRANCH   1  13
ATOM     12  C   UNL     1       3.659   5.713 -12.125  0.00  0.00    +0.005 C 
ATOM     13  C   UNL     1       3.743   6.457 -11.263  0.00  0.00    +0.028 C 
ENDBRANCH   1  13
BRANCH   4  14
ATOM     14  C   UNL     1       0.892   6.001  -6.891  0.00  0.00    +0.080 C 
BRANCH  14  15
ATOM     15  N   UNL     1      -0.062   5.231  -6.135  0.00  0.00    -0.268 NA
ATOM     16  C   UNL     1      -1.333   5.077  -6.789  0.00  0.00    +0.105 C 
ATOM     17  C   UNL     1      -2.368   6.010  -6.243  0.00  0.00    +0.159 C 
ATOM     18  O   UNL     1      -2.572   5.918  -4.886  0.00  0.00    -0.351 OA
ATOM     19  C   UNL     1      -1.457   5.605  -4.145  0.00  0.00    +0.159 C 
ATOM     20  C   UNL     1      -0.156   5.858  -4.846  0.00  0.00    +0.105 C 
ENDBRANCH  14  15
ENDBRANCH   4  14
TORSDOF 3
ENDMDL
MODEL 7
REMARK VINA RESULT:      -6.7      4.090      7.138
REMARK  Name = 
REMARK  3 active torsions:
REMARK  status: ('A' for Active; 'I' for Inactive)
REMARK    1  A    between atoms: C_2  and  C_3
REMARK    2  A    between atoms: C_11  and  C_12
REMARK    3  A    between atoms: C_12  and  N_13
REMARK                            x       y       z     vdW  Elec       q    Type
REMARK                         _______ _______ _______ _____ _____    ______ ____
ROOT
ATOM      1  C   UNL     1       1.798   6.270  -8.845  0.00  0.00    -0.005 A 
ATOM      2  C   UNL     1       1.438   6.355  -7.505  0.00  0.00    +0.045 A 
ATOM      3  C   UNL     1       2.316   6.657  -6.391  0.00  0.00    +0.175 C 
ATOM      4  C   UNL     1       1.617   6.529  -4.924  0.00  0.00    +0.078 C 
ATOM      5  C   UNL     1       1.298   4.916  -5.164  0.00  0.00    +0.015 C 
ATOM      6  C   UNL     1       0.004   5.045  -5.965  0.00  0.00    +0.046 C 
ATOM      7  O   UNL     1       3.070   7.651  -6.498  0.00  0.00    -0.291 OA
ATOM      8  C   UNL     1       0.300   5.611  -7.314  0.00  0.00    +0.061 A 
ATOM      9  N   UNL     1      -0.236   5.480  -8.549  0.00  0.00    -0.254 NA
ATOM     10  C   UNL     1       0.716   5.690  -9.486  0.00  0.00    +0.055 A 
ATOM     11  C   UNL     1       0.645   5.284 -10.918  0.00  0.00    +0.052 C 
ENDROOT
BRANCH   1  13
ATOM     12  C   UNL     1       3.853   5.720  -9.427  0.00  0.00    +0.005 C 
ATOM     13  C   UNL     1       3.127   6.601  -9.436  0.00  0.00    +0.028 C 
ENDBRANCH   1  13
BRANCH   4  14
ATOM     14  C   UNL     1       3.080   6.197  -4.213  0.00  0.00    +0.080 C 
BRANCH  14  15
ATOM     15  N   UNL     1       2.739   5.508  -2.995  0.00  0.00    -0.268 NA
ATOM     16  C   UNL     1       2.150   6.355  -1.994  0.00  0.00    +0.105 C 
ATOM     17  C   UNL     1       3.132   6.750  -0.936  0.00  0.00    +0.159 C 
ATOM     18  O   UNL     1       3.748   5.699  -0.297  0.00  0.00    -0.351 OA
ATOM     19  C   UNL     1       3.974   4.589  -1.077  0.00  0.00    +0.159 C 
ATOM     20  C   UNL     1       3.938   4.851  -2.554  0.00  0.00    +0.105 C 
ENDBRANCH  14  15
ENDBRANCH   4  14
TORSDOF 3
ENDMDL
MODEL 8
REMARK VINA RESULT:      -6.7      2.376      7.259
REMARK  Name = 
REMARK  3 active torsions:
REMARK  status: ('A' for Active; 'I' for Inactive)
REMARK    1  A    between atoms: C_2  and  C_3
REMARK    2  A    between atoms: C_11  and  C_12
REMARK    3  A    between atoms: C_12  and  N_13
REMARK                            x       y       z     vdW  Elec       q    Type
REMARK                         _______ _______ _______ _____ _____    ______ ____
ROOT
ATOM      1  C   UNL     1       5.096   5.745 -10.393  0.00  0.00    -0.005 A 
ATOM      2  C   UNL     1       3.757   6.054 -10.185  0.00  0.00    +0.045 A 
ATOM      3  C   UNL     1       3.035   5.972  -8.930  0.00  0.00    +0.175 C 
ATOM      4  C   UNL     1       1.434   6.254  -9.048  0.00  0.00    +0.078 C 
ATOM      5  C   UNL     1       1.234   4.960 -10.073  0.00  0.00    +0.015 C 
ATOM      6  C   UNL     1       1.630   5.632 -11.386  0.00  0.00    +0.046 C 
ATOM      7  O   UNL     1       3.560   6.499  -7.921  0.00  0.00    -0.291 OA
ATOM      8  C   UNL     1       3.093   5.930 -11.380  0.00  0.00    +0.061 A 
ATOM      9  N   UNL     1       4.062   6.000 -12.320  0.00  0.00    -0.254 NA
ATOM     10  C   UNL     1       5.259   5.699 -11.767  0.00  0.00    +0.055 A 
ATOM     11  C   UNL     1       6.493   5.302 -12.503  0.00  0.00    +0.052 C 
ENDROOT
BRANCH   1  13
ATOM     12  C   UNL     1       7.019   6.079  -9.366  0.00  0.00    +0.005 C 
ATOM     13  C   UNL     1       6.105   5.396  -9.351  0.00  0.00    +0.028 C 
ENDBRANCH   1  13
BRANCH   4  14
ATOM     14  C   UNL     1       1.130   5.319  -7.710  0.00  0.00    +0.080 C 
BRANCH  14  15
ATOM     15  N   UNL     1       0.198   6.095  -6.935  0.00  0.00    -0.268 NA
ATOM     16  C   UNL     1       0.654   6.392  -5.605  0.00  0.00    +0.105 C 
ATOM     17  C   UNL     1       0.032   5.497  -4.579  0.00  0.00    +0.159 C 
ATOM     18  O   UNL     1      -1.343   5.498  -4.568  0.00  0.00    -0.351 OA
ATOM     19  C   UNL     1      -1.939   5.669  -5.794  0.00  0.00    +0.159 C 
ATOM     20  C   UNL     1      -1.047   5.378  -6.964  0.00  0.00    +0.105 C 
ENDBRANCH  14  15
ENDBRANCH   4  14
TORSDOF 3
ENDMDL
MODEL 9
REMARK VINA RESULT:      -6.7      1.967      3.359
REMARK  Name = 
REMARK  3 active torsions:
REMARK  status: ('A' for Active; 'I' for Inactive)
REMARK    1  A    between atoms: C_2  and  C_3
REMARK    2  A    between atoms: C_11  and  C_12
REMARK    3  A    between atoms: C_12  and  N_13
REMARK                            x       y       z     vdW  Elec       q    Type
REMARK                         _______ _______ _______ _____ _____    ______ ____
ROOT
ATOM      1  C   UNL     1       0.474   5.814  -6.070  0.00  0.00    -0.005 A 
ATOM      2  C   UNL     1       0.963   5.462  -7.323  0.00  0.00    +0.045 A 
ATOM      3  C   UNL     1       2.330   5.597  -7.787  0.00  0.00    +0.175 C 
ATOM      4  C   UNL     1       2.550   5.237  -9.362  0.00  0.00    +0.078 C 
ATOM      5  C   UNL     1       1.512   6.448  -9.832  0.00  0.00    +0.015 C 
ATOM      6  C   UNL     1       0.188   5.706  -9.664  0.00  0.00    +0.046 C 
ATOM      7  O   UNL     1       3.242   5.164  -7.046  0.00  0.00    -0.291 OA
ATOM      8  C   UNL     1      -0.081   5.474  -8.215  0.00  0.00    +0.061 A 
ATOM      9  N   UNL     1      -1.190   5.383  -7.446  0.00  0.00    -0.254 NA
ATOM     10  C   UNL     1      -0.906   5.773  -6.183  0.00  0.00    +0.055 A 
ATOM     11  C   UNL     1      -1.894   6.173  -5.143  0.00  0.00    +0.052 C 
ENDROOT
BRANCH   1  13
ATOM     12  C   UNL     1       1.431   5.463  -4.114  0.00  0.00    +0.005 C 
ATOM     13  C   UNL     1       1.271   6.278  -4.897  0.00  0.00    +0.028 C 
ENDBRANCH   1  13
BRANCH   4  14
ATOM     14  C   UNL     1       3.865   6.246  -9.450  0.00  0.00    +0.080 C 
BRANCH  14  15
ATOM     15  N   UNL     1       4.899   5.438 -10.041  0.00  0.00    -0.268 NA
ATOM     16  C   UNL     1       6.204   5.666  -9.483  0.00  0.00    +0.105 C 
ATOM     17  C   UNL     1       7.049   6.542 -10.355  0.00  0.00    +0.159 C 
ATOM     18  O   UNL     1       7.208   6.091 -11.645  0.00  0.00    -0.351 OA
ATOM     19  C   UNL     1       6.130   5.419 -12.170  0.00  0.00    +0.159 C 
ATOM     20  C   UNL     1       4.835   5.672 -11.457  0.00  0.00    +0.105 C 
ENDBRANCH  14  15
ENDBRANCH   4  14
TORSDOF 3
ENDMDL
