MODEL 1
REMARK VINA RESULT:      -8.6      0.000      0.000
REMARK  Name = 
REMARK  2 active torsions:
REMARK  status: ('A' for Active; 'I' for Inactive)
REMARK    1  A    between atoms: C_23  and  C_24
REMARK    2  A    between atoms: C_24  and  C_26
REMARK                            x       y       z     vdW  Elec       q    Type
REMARK                         _______ _______ _______ _____ _____    ______ ____
ROOT
ATOM      1  C   UNL     1       4.347   4.268  -9.051  0.00  0.00    +0.000 C 
ATOM      2  C   UNL     1       3.712   5.695  -9.497  0.00  0.00    +0.007 C 
ATOM      3  C   UNL     1       2.139   5.106  -9.266  0.00  0.00    +0.060 C 
ATOM      4  C   UNL     1       1.759   6.092  -8.071  0.00  0.00    +0.009 C 
ATOM      5  C   UNL     1       2.945   5.396  -7.215  0.00  0.00    +0.003 C 
ATOM      6  C   UNL     1       2.580   6.514  -6.001  0.00  0.00    +0.033 C 
ATOM      7  C   UNL     1       1.814   5.382  -5.159  0.00  0.00    +0.168 C 
ATOM      8  C   UNL     1       0.888   4.572  -6.229  0.00  0.00    +0.182 C 
ATOM      9  O   UNL     1      -0.424   4.866  -5.519  0.00  0.00    -0.220 OA
ATOM     10  F   UNL     1       2.675   4.405  -4.783  0.00  0.00    -0.237 F 
ATOM     11  C   UNL     1       1.141   6.105  -4.139  0.00  0.00    +0.064 C 
ATOM     12  C   UNL     1       2.263   6.810  -3.437  0.00  0.00    -0.035 C 
ATOM     13  C   UNL     1       2.108   6.940  -2.117  0.00  0.00    +0.034 C 
ATOM     14  C   UNL     1       1.507   5.873  -1.303  0.00  0.00    +0.195 C 
ATOM     15  C   UNL     1       0.798   4.858  -2.096  0.00  0.00    +0.038 C 
ATOM     16  O   UNL     1       1.730   5.737  -0.073  0.00  0.00    -0.287 OA
ATOM     17  C   UNL     1       3.569   7.158  -3.995  0.00  0.00    +0.023 C 
ATOM     18  C   UNL     1       0.259   7.198  -4.733  0.00  0.00    +0.011 C 
ATOM     19  C   UNL     1       0.275   5.368  -3.198  0.00  0.00    -0.017 C 
ATOM     20  C   UNL     1       3.985   6.346  -5.211  0.00  0.00    +0.007 C 
ATOM     21  C   UNL     1       2.029   7.480  -8.377  0.00  0.00    +0.001 C 
ATOM     22  C   UNL     1       0.620   5.803  -7.297  0.00  0.00    +0.036 C 
ATOM     23  C   UNL     1       3.960   6.326  -8.036  0.00  0.00    +0.001 C 
ENDROOT
BRANCH   3  24
ATOM     24  C   UNL     1       1.536   6.080 -10.391  0.00  0.00    +0.183 C 
ATOM     25  O   UNL     1       2.202   6.146 -11.423  0.00  0.00    -0.293 OA
BRANCH  24  26
ATOM     26  C   UNL     1       0.096   5.759 -10.676  0.00  0.00    +0.246 C 
ATOM     27  O   UNL     1      -0.162   4.406 -10.683  0.00  0.00    -0.212 OA
ENDBRANCH  24  26
ENDBRANCH   3  24
TORSDOF 2
ENDMDL
MODEL 2
REMARK VINA RESULT:      -8.5      1.496      6.450
REMARK  Name = 
REMARK  2 active torsions:
REMARK  status: ('A' for Active; 'I' for Inactive)
REMARK    1  A    between atoms: C_23  and  C_24
REMARK    2  A    between atoms: C_24  and  C_26
REMARK                            x       y       z     vdW  Elec       q    Type
REMARK                         _______ _______ _______ _____ _____    ______ ____
ROOT
ATOM      1  C   UNL     1       4.399   8.380  -2.698  0.00  0.00    +0.000 C 
ATOM      2  C   UNL     1       4.349   6.825  -2.233  0.00  0.00    +0.007 C 
ATOM      3  C   UNL     1       2.672   6.769  -2.481  0.00  0.00    +0.060 C 
ATOM      4  C   UNL     1       2.707   5.698  -3.662  0.00  0.00    +0.009 C 
ATOM      5  C   UNL     1       3.549   6.782  -4.523  0.00  0.00    +0.003 C 
ATOM      6  C   UNL     1       3.648   5.593  -5.722  0.00  0.00    +0.033 C 
ATOM      7  C   UNL     1       2.519   6.340  -6.584  0.00  0.00    +0.168 C 
ATOM      8  C   UNL     1       1.344   6.751  -5.532  0.00  0.00    +0.182 C 
ATOM      9  O   UNL     1       0.249   5.972  -6.244  0.00  0.00    -0.220 OA
ATOM     10  F   UNL     1       2.949   7.565  -6.971  0.00  0.00    -0.237 F 
ATOM     11  C   UNL     1       2.181   5.402  -7.596  0.00  0.00    +0.064 C 
ATOM     12  C   UNL     1       3.494   5.167  -8.282  0.00  0.00    -0.035 C 
ATOM     13  C   UNL     1       3.413   4.972  -9.600  0.00  0.00    +0.034 C 
ATOM     14  C   UNL     1       2.462   5.721 -10.434  0.00  0.00    +0.195 C 
ATOM     15  C   UNL     1       1.412   6.400  -9.660  0.00  0.00    +0.038 C 
ATOM     16  O   UNL     1       2.629   5.915 -11.665  0.00  0.00    -0.287 OA
ATOM     17  C   UNL     1       4.829   5.348  -7.712  0.00  0.00    +0.023 C 
ATOM     18  C   UNL     1       1.773   4.064  -6.989  0.00  0.00    +0.011 C 
ATOM     19  C   UNL     1       1.111   5.743  -8.553  0.00  0.00    -0.017 C 
ATOM     20  C   UNL     1       4.892   6.272  -6.507  0.00  0.00    +0.007 C 
ATOM     21  C   UNL     1       3.480   4.520  -3.333  0.00  0.00    +0.001 C 
ATOM     22  C   UNL     1       1.552   5.524  -4.446  0.00  0.00    +0.036 C 
ATOM     23  C   UNL     1       4.833   6.316  -3.683  0.00  0.00    +0.001 C 
ENDROOT
BRANCH   3  24
ATOM     24  C   UNL     1       2.472   5.654  -1.344  0.00  0.00    +0.183 C 
ATOM     25  O   UNL     1       3.198   5.788  -0.359  0.00  0.00    -0.293 OA
BRANCH  24  26
ATOM     26  C   UNL     1       1.027   5.523  -0.956  0.00  0.00    +0.246 C 
ATOM     27  O   UNL     1       0.469   4.329  -1.356  0.00  0.00    -0.212 OA
ENDBRANCH  24  26
ENDBRANCH   3  24
TORSDOF 2
ENDMDL
MODEL 3
REMARK VINA RESULT:      -8.2      1.595      6.446
REMARK  Name = 
REMARK  2 active torsions:
REMARK  status: ('A' for Active; 'I' for Inactive)
REMARK    1  A    between atoms: C_23  and  C_24
REMARK    2  A    between atoms: C_24  and  C_26
REMARK                            x       y       z     vdW  Elec       q    Type
REMARK                         _______ _______ _______ _____ _____    ______ ____
ROOT
ATOM      1  C   UNL     1       5.104   8.035  -4.081  0.00  0.00    +0.000 C 
ATOM      2  C   UNL     1       4.973   6.464  -3.688  0.00  0.00    +0.007 C 
ATOM      3  C   UNL     1       3.286   6.596  -3.579  0.00  0.00    +0.060 C 
ATOM      4  C   UNL     1       2.957   5.610  -4.789  0.00  0.00    +0.009 C 
ATOM      5  C   UNL     1       3.722   6.660  -5.757  0.00  0.00    +0.003 C 
ATOM      6  C   UNL     1       3.438   5.552  -7.003  0.00  0.00    +0.033 C 
ATOM      7  C   UNL     1       2.248   6.467  -7.573  0.00  0.00    +0.168 C 
ATOM      8  C   UNL     1       1.368   6.922  -6.278  0.00  0.00    +0.182 C 
ATOM      9  O   UNL     1       0.069   6.309  -6.778  0.00  0.00    -0.220 OA
ATOM     10  F   UNL     1       2.726   7.666  -7.985  0.00  0.00    -0.237 F 
ATOM     11  C   UNL     1       1.607   5.641  -8.532  0.00  0.00    +0.064 C 
ATOM     12  C   UNL     1       2.716   5.321  -9.489  0.00  0.00    -0.035 C 
ATOM     13  C   UNL     1       2.345   5.226 -10.769  0.00  0.00    +0.034 C 
ATOM     14  C   UNL     1       1.334   6.123 -11.348  0.00  0.00    +0.195 C 
ATOM     15  C   UNL     1       0.550   6.851 -10.340  0.00  0.00    +0.038 C 
ATOM     16  O   UNL     1       1.267   6.383 -12.576  0.00  0.00    -0.287 OA
ATOM     17  C   UNL     1       4.151   5.326  -9.207  0.00  0.00    +0.023 C 
ATOM     18  C   UNL     1       1.182   4.312  -7.916  0.00  0.00    +0.011 C 
ATOM     19  C   UNL     1       0.409   6.153  -9.225  0.00  0.00    -0.017 C 
ATOM     20  C   UNL     1       4.564   6.153  -8.001  0.00  0.00    +0.007 C 
ATOM     21  C   UNL     1       3.642   4.341  -4.685  0.00  0.00    +0.001 C 
ATOM     22  C   UNL     1       1.653   5.609  -5.318  0.00  0.00    +0.036 C 
ATOM     23  C   UNL     1       5.089   6.010  -5.229  0.00  0.00    +0.001 C 
ENDROOT
BRANCH   3  24
ATOM     24  C   UNL     1       3.197   5.432  -2.478  0.00  0.00    +0.183 C 
ATOM     25  O   UNL     1       4.103   5.443  -1.644  0.00  0.00    -0.293 OA
BRANCH  24  26
ATOM     26  C   UNL     1       1.843   5.396  -1.828  0.00  0.00    +0.246 C 
ATOM     27  O   UNL     1       1.821   4.647  -0.673  0.00  0.00    -0.212 OA
ENDBRANCH  24  26
ENDBRANCH   3  24
TORSDOF 2
ENDMDL
MODEL 4
REMARK VINA RESULT:      -8.2      2.165      4.240
REMARK  Name = 
REMARK  2 active torsions:
REMARK  status: ('A' for Active; 'I' for Inactive)
REMARK    1  A    between atoms: C_23  and  C_24
REMARK    2  A    between atoms: C_24  and  C_26
REMARK                            x       y       z     vdW  Elec       q    Type
REMARK                         _______ _______ _______ _____ _____    ______ ____
ROOT
ATOM      1  C   UNL     1      -0.557   7.873 -11.696  0.00  0.00    +0.000 C 
ATOM      2  C   UNL     1      -0.356   6.310 -12.091  0.00  0.00    +0.007 C 
ATOM      3  C   UNL     1       1.331   6.488 -12.074  0.00  0.00    +0.060 C 
ATOM      4  C   UNL     1       1.597   5.499 -10.851  0.00  0.00    +0.009 C 
ATOM      5  C   UNL     1       0.735   6.519  -9.933  0.00  0.00    +0.003 C 
ATOM      6  C   UNL     1       0.956   5.406  -8.679  0.00  0.00    +0.033 C 
ATOM      7  C   UNL     1       2.076   6.347  -8.016  0.00  0.00    +0.168 C 
ATOM      8  C   UNL     1       3.036   6.838  -9.238  0.00  0.00    +0.182 C 
ATOM      9  O   UNL     1       4.311   6.254  -8.649  0.00  0.00    -0.220 OA
ATOM     10  F   UNL     1       1.537   7.529  -7.631  0.00  0.00    -0.237 F 
ATOM     11  C   UNL     1       2.668   5.528  -7.018  0.00  0.00    +0.064 C 
ATOM     12  C   UNL     1       1.501   5.170  -6.148  0.00  0.00    -0.035 C 
ATOM     13  C   UNL     1       1.779   5.072  -4.845  0.00  0.00    +0.034 C 
ATOM     14  C   UNL     1       2.720   5.989  -4.186  0.00  0.00    +0.195 C 
ATOM     15  C   UNL     1       3.556   6.748  -5.128  0.00  0.00    +0.038 C 
ATOM     16  O   UNL     1       2.690   6.239  -2.955  0.00  0.00    -0.287 OA
ATOM     17  C   UNL     1       0.090   5.140  -6.535  0.00  0.00    +0.023 C 
ATOM     18  C   UNL     1       3.172   4.217  -7.613  0.00  0.00    +0.011 C 
ATOM     19  C   UNL     1       3.797   6.065  -6.235  0.00  0.00    -0.017 C 
ATOM     20  C   UNL     1      -0.255   5.968  -7.761  0.00  0.00    +0.007 C 
ATOM     21  C   UNL     1       0.956   4.213 -11.015  0.00  0.00    +0.001 C 
ATOM     22  C   UNL     1       2.858   5.527 -10.227  0.00  0.00    +0.036 C 
ATOM     23  C   UNL     1      -0.572   5.838 -10.566  0.00  0.00    +0.001 C 
ENDROOT
BRANCH   3  24
ATOM     24  C   UNL     1       1.532   5.337 -13.175  0.00  0.00    +0.183 C 
ATOM     25  O   UNL     1       0.720   5.364 -14.100  0.00  0.00    -0.293 OA
BRANCH  24  26
ATOM     26  C   UNL     1       2.947   5.302 -13.677  0.00  0.00    +0.246 C 
ATOM     27  O   UNL     1       3.128   6.038 -14.826  0.00  0.00    -0.212 OA
ENDBRANCH  24  26
ENDBRANCH   3  24
TORSDOF 2
ENDMDL
MODEL 5
REMARK VINA RESULT:      -8.1      2.175      6.258
REMARK  Name = 
REMARK  2 active torsions:
REMARK  status: ('A' for Active; 'I' for Inactive)
REMARK    1  A    between atoms: C_23  and  C_24
REMARK    2  A    between atoms: C_24  and  C_26
REMARK                            x       y       z     vdW  Elec       q    Type
REMARK                         _______ _______ _______ _____ _____    ______ ____
ROOT
ATOM      1  C   UNL     1      -2.754   4.447  -5.678  0.00  0.00    +0.000 C 
ATOM      2  C   UNL     1      -2.585   5.949  -5.082  0.00  0.00    +0.007 C 
ATOM      3  C   UNL     1      -1.295   5.450  -4.099  0.00  0.00    +0.060 C 
ATOM      4  C   UNL     1      -0.182   6.347  -4.805  0.00  0.00    +0.009 C 
ATOM      5  C   UNL     1      -0.456   5.497  -6.156  0.00  0.00    +0.003 C 
ATOM      6  C   UNL     1       0.662   6.523  -6.902  0.00  0.00    +0.033 C 
ATOM      7  C   UNL     1       1.781   5.373  -6.851  0.00  0.00    +0.168 C 
ATOM      8  C   UNL     1       1.700   4.729  -5.355  0.00  0.00    +0.182 C 
ATOM      9  O   UNL     1       3.143   5.046  -4.995  0.00  0.00    -0.220 OA
ATOM     10  F   UNL     1       1.406   4.311  -7.603  0.00  0.00    -0.237 F 
ATOM     11  C   UNL     1       2.982   6.045  -7.200  0.00  0.00    +0.064 C 
ATOM     12  C   UNL     1       2.667   6.606  -8.555  0.00  0.00    -0.035 C 
ATOM     13  C   UNL     1       3.693   6.626  -9.409  0.00  0.00    +0.034 C 
ATOM     14  C   UNL     1       4.675   5.533  -9.460  0.00  0.00    +0.195 C 
ATOM     15  C   UNL     1       4.626   4.644  -8.289  0.00  0.00    +0.038 C 
ATOM     16  O   UNL     1       5.363   5.271 -10.479  0.00  0.00    -0.287 OA
ATOM     17  C   UNL     1       1.342   6.913  -9.093  0.00  0.00    +0.023 C 
ATOM     18  C   UNL     1       3.224   7.245  -6.290  0.00  0.00    +0.011 C 
ATOM     19  C   UNL     1       4.248   5.287  -7.196  0.00  0.00    -0.017 C 
ATOM     20  C   UNL     1       0.190   6.189  -8.416  0.00  0.00    +0.007 C 
ATOM     21  C   UNL     1      -0.570   7.736  -4.928  0.00  0.00    +0.001 C 
ATOM     22  C   UNL     1       1.172   6.067  -4.544  0.00  0.00    +0.036 C 
ATOM     23  C   UNL     1      -1.745   6.427  -6.371  0.00  0.00    +0.001 C 
ENDROOT
BRANCH   3  24
ATOM     24  C   UNL     1      -1.624   6.561  -2.987  0.00  0.00    +0.183 C 
ATOM     25  O   UNL     1      -2.823   6.715  -2.754  0.00  0.00    -0.293 OA
BRANCH  24  26
ATOM     26  C   UNL     1      -0.839   6.323  -1.729  0.00  0.00    +0.246 C 
ATOM     27  O   UNL     1      -0.595   4.989  -1.491  0.00  0.00    -0.212 OA
ENDBRANCH  24  26
ENDBRANCH   3  24
TORSDOF 2
ENDMDL
MODEL 6
REMARK VINA RESULT:      -7.9      1.966      6.194
REMARK  Name = 
REMARK  2 active torsions:
REMARK  status: ('A' for Active; 'I' for Inactive)
REMARK    1  A    between atoms: C_23  and  C_24
REMARK    2  A    between atoms: C_24  and  C_26
REMARK                            x       y       z     vdW  Elec       q    Type
REMARK                         _______ _______ _______ _____ _____    ______ ____
ROOT
ATOM      1  C   UNL     1       2.040   7.077  -3.386  0.00  0.00    +0.000 C 
ATOM      2  C   UNL     1       1.270   5.695  -3.755  0.00  0.00    +0.007 C 
ATOM      3  C   UNL     1       0.395   6.472  -4.983  0.00  0.00    +0.060 C 
ATOM      4  C   UNL     1       1.018   5.640  -6.193  0.00  0.00    +0.009 C 
ATOM      5  C   UNL     1       2.455   6.273  -5.792  0.00  0.00    +0.003 C 
ATOM      6  C   UNL     1       3.102   5.310  -7.022  0.00  0.00    +0.033 C 
ATOM      7  C   UNL     1       3.226   6.588  -7.986  0.00  0.00    +0.168 C 
ATOM      8  C   UNL     1       1.820   7.400  -7.843  0.00  0.00    +0.182 C 
ATOM      9  O   UNL     1       1.467   7.315  -9.320  0.00  0.00    -0.220 OA
ATOM     10  F   UNL     1       4.092   7.492  -7.466  0.00  0.00    -0.237 F 
ATOM     11  C   UNL     1       3.527   6.034  -9.258  0.00  0.00    +0.064 C 
ATOM     12  C   UNL     1       4.792   5.273  -8.998  0.00  0.00    -0.035 C 
ATOM     13  C   UNL     1       5.668   5.275 -10.006  0.00  0.00    +0.034 C 
ATOM     14  C   UNL     1       5.883   6.467 -10.838  0.00  0.00    +0.195 C 
ATOM     15  C   UNL     1       4.829   7.483 -10.692  0.00  0.00    +0.038 C 
ATOM     16  O   UNL     1       6.946   6.683 -11.472  0.00  0.00    -0.287 OA
ATOM     17  C   UNL     1       5.248   4.736  -7.716  0.00  0.00    +0.023 C 
ATOM     18  C   UNL     1       2.484   4.998  -9.665  0.00  0.00    +0.011 C 
ATOM     19  C   UNL     1       3.654   6.940 -10.416  0.00  0.00    -0.017 C 
ATOM     20  C   UNL     1       4.631   5.389  -6.490  0.00  0.00    +0.007 C 
ATOM     21  C   UNL     1       0.957   4.210  -5.985  0.00  0.00    +0.001 C 
ATOM     22  C   UNL     1       0.835   6.119  -7.503  0.00  0.00    +0.036 C 
ATOM     23  C   UNL     1       2.515   5.169  -4.631  0.00  0.00    +0.001 C 
ENDROOT
BRANCH   3  24
ATOM     24  C   UNL     1      -0.855   5.478  -4.816  0.00  0.00    +0.183 C 
ATOM     25  O   UNL     1      -1.234   5.320  -3.656  0.00  0.00    -0.293 OA
BRANCH  24  26
ATOM     26  C   UNL     1      -1.986   5.865  -5.724  0.00  0.00    +0.246 C 
ATOM     27  O   UNL     1      -2.534   7.089  -5.409  0.00  0.00    -0.212 OA
ENDBRANCH  24  26
ENDBRANCH   3  24
TORSDOF 2
ENDMDL
MODEL 7
REMARK VINA RESULT:      -7.9      2.101      3.686
REMARK  Name = 
REMARK  2 active torsions:
REMARK  status: ('A' for Active; 'I' for Inactive)
REMARK    1  A    between atoms: C_23  and  C_24
REMARK    2  A    between atoms: C_24  and  C_26
REMARK                            x       y       z     vdW  Elec       q    Type
REMARK                         _______ _______ _______ _____ _____    ______ ____
ROOT
ATOM      1  C   UNL     1      -0.827   6.538  -6.847  0.00  0.00    +0.000 C 
ATOM      2  C   UNL     1      -0.091   5.173  -7.330  0.00  0.00    +0.007 C 
ATOM      3  C   UNL     1       1.339   6.022  -7.663  0.00  0.00    +0.060 C 
ATOM      4  C   UNL     1       2.232   5.296  -6.559  0.00  0.00    +0.009 C 
ATOM      5  C   UNL     1       1.239   5.925  -5.445  0.00  0.00    +0.003 C 
ATOM      6  C   UNL     1       2.149   5.070  -4.305  0.00  0.00    +0.033 C 
ATOM      7  C   UNL     1       2.897   6.420  -3.860  0.00  0.00    +0.168 C 
ATOM      8  C   UNL     1       3.297   7.190  -5.240  0.00  0.00    +0.182 C 
ATOM      9  O   UNL     1       4.791   7.209  -4.953  0.00  0.00    -0.220 OA
ATOM     10  F   UNL     1       2.014   7.300  -3.329  0.00  0.00    -0.237 F 
ATOM     11  C   UNL     1       3.964   5.969  -3.039  0.00  0.00    +0.064 C 
ATOM     12  C   UNL     1       3.252   5.215  -1.955  0.00  0.00    -0.035 C 
ATOM     13  C   UNL     1       3.808   5.311  -0.745  0.00  0.00    +0.034 C 
ATOM     14  C   UNL     1       4.406   6.566  -0.267  0.00  0.00    +0.195 C 
ATOM     15  C   UNL     1       4.645   7.546  -1.337  0.00  0.00    +0.038 C 
ATOM     16  O   UNL     1       4.531   6.850   0.951  0.00  0.00    -0.287 OA
ATOM     17  C   UNL     1       1.931   4.593  -2.037  0.00  0.00    +0.023 C 
ATOM     18  C   UNL     1       4.825   4.945  -3.772  0.00  0.00    +0.011 C 
ATOM     19  C   UNL     1       4.910   6.961  -2.494  0.00  0.00    -0.017 C 
ATOM     20  C   UNL     1       1.032   5.140  -3.134  0.00  0.00    +0.007 C 
ATOM     21  C   UNL     1       2.155   3.853  -6.629  0.00  0.00    +0.001 C 
ATOM     22  C   UNL     1       3.471   5.868  -6.214  0.00  0.00    +0.036 C 
ATOM     23  C   UNL     1       0.225   4.739  -5.811  0.00  0.00    +0.001 C 
ENDROOT
BRANCH   3  24
ATOM     24  C   UNL     1       1.761   4.993  -8.821  0.00  0.00    +0.183 C 
ATOM     25  O   UNL     1       0.869   4.735  -9.629  0.00  0.00    -0.293 OA
BRANCH  24  26
ATOM     26  C   UNL     1       3.024   5.430  -9.506  0.00  0.00    +0.246 C 
ATOM     27  O   UNL     1       4.000   4.459  -9.504  0.00  0.00    -0.212 OA
ENDBRANCH  24  26
ENDBRANCH   3  24
TORSDOF 2
ENDMDL
MODEL 8
REMARK VINA RESULT:      -7.8      1.939      3.540
REMARK  Name = 
REMARK  2 active torsions:
REMARK  status: ('A' for Active; 'I' for Inactive)
REMARK    1  A    between atoms: C_23  and  C_24
REMARK    2  A    between atoms: C_24  and  C_26
REMARK                            x       y       z     vdW  Elec       q    Type
REMARK                         _______ _______ _______ _____ _____    ______ ____
ROOT
ATOM      1  C   UNL     1       1.444   7.338  -8.651  0.00  0.00    +0.000 C 
ATOM      2  C   UNL     1       1.979   5.806  -8.726  0.00  0.00    +0.007 C 
ATOM      3  C   UNL     1       3.517   6.282  -8.193  0.00  0.00    +0.060 C 
ATOM      4  C   UNL     1       3.482   5.473  -6.819  0.00  0.00    +0.009 C 
ATOM      5  C   UNL     1       2.228   6.403  -6.387  0.00  0.00    +0.003 C 
ATOM      6  C   UNL     1       2.157   5.469  -4.980  0.00  0.00    +0.033 C 
ATOM      7  C   UNL     1       2.844   6.651  -4.137  0.00  0.00    +0.168 C 
ATOM      8  C   UNL     1       4.087   7.189  -5.044  0.00  0.00    +0.182 C 
ATOM      9  O   UNL     1       5.151   6.898  -3.996  0.00  0.00    -0.220 OA
ATOM     10  F   UNL     1       2.050   7.749  -4.124  0.00  0.00    -0.237 F 
ATOM     11  C   UNL     1       3.165   6.046  -2.893  0.00  0.00    +0.064 C 
ATOM     12  C   UNL     1       1.831   5.568  -2.402  0.00  0.00    -0.035 C 
ATOM     13  C   UNL     1       1.659   5.642  -1.080  0.00  0.00    +0.034 C 
ATOM     14  C   UNL     1       2.183   6.769  -0.296  0.00  0.00    +0.195 C 
ATOM     15  C   UNL     1       3.180   7.574  -1.019  0.00  0.00    +0.038 C 
ATOM     16  O   UNL     1       1.701   7.122   0.810  0.00  0.00    -0.287 OA
ATOM     17  C   UNL     1       0.656   5.252  -3.214  0.00  0.00    +0.023 C 
ATOM     18  C   UNL     1       4.016   4.796  -3.095  0.00  0.00    +0.011 C 
ATOM     19  C   UNL     1       3.875   6.845  -1.876  0.00  0.00    -0.017 C 
ATOM     20  C   UNL     1       0.640   5.889  -4.594  0.00  0.00    +0.007 C 
ATOM     21  C   UNL     1       3.118   4.084  -6.990  0.00  0.00    +0.001 C 
ATOM     22  C   UNL     1       4.438   5.781  -5.833  0.00  0.00    +0.036 C 
ATOM     23  C   UNL     1       1.322   5.446  -7.300  0.00  0.00    +0.001 C 
ENDROOT
BRANCH   3  24
ATOM     24  C   UNL     1       4.237   5.087  -8.990  0.00  0.00    +0.183 C 
ATOM     25  O   UNL     1       3.924   5.000 -10.177  0.00  0.00    -0.293 OA
BRANCH  24  26
ATOM     26  C   UNL     1       5.727   5.130  -8.808  0.00  0.00    +0.246 C 
ATOM     27  O   UNL     1       6.377   5.761  -9.846  0.00  0.00    -0.212 OA
ENDBRANCH  24  26
ENDBRANCH   3  24
TORSDOF 2
ENDMDL
MODEL 9
REMARK VINA RESULT:      -7.7      1.805      3.404
REMARK  Name = 
REMARK  2 active torsions:
REMARK  status: ('A' for Active; 'I' for Inactive)
REMARK    1  A    between atoms: C_23  and  C_24
REMARK    2  A    between atoms: C_24  and  C_26
REMARK                            x       y       z     vdW  Elec       q    Type
REMARK                         _______ _______ _______ _____ _____    ______ ____
ROOT
ATOM      1  C   UNL     1       0.048   7.273 -10.901  0.00  0.00    +0.000 C 
ATOM      2  C   UNL     1       0.797   5.845 -11.094  0.00  0.00    +0.007 C 
ATOM      3  C   UNL     1       2.258   6.497 -10.530  0.00  0.00    +0.060 C 
ATOM      4  C   UNL     1       2.358   5.591  -9.221  0.00  0.00    +0.009 C 
ATOM      5  C   UNL     1       0.989   6.294  -8.717  0.00  0.00    +0.003 C 
ATOM      6  C   UNL     1       1.072   5.257  -7.385  0.00  0.00    +0.033 C 
ATOM      7  C   UNL     1       1.593   6.459  -6.456  0.00  0.00    +0.168 C 
ATOM      8  C   UNL     1       2.733   7.238  -7.322  0.00  0.00    +0.182 C 
ATOM      9  O   UNL     1       3.841   7.026  -6.302  0.00  0.00    -0.220 OA
ATOM     10  F   UNL     1       0.648   7.425  -6.357  0.00  0.00    -0.237 F 
ATOM     11  C   UNL     1       2.014   5.815  -5.263  0.00  0.00    +0.064 C 
ATOM     12  C   UNL     1       0.770   5.113  -4.807  0.00  0.00    -0.035 C 
ATOM     13  C   UNL     1       0.606   5.062  -3.482  0.00  0.00    +0.034 C 
ATOM     14  C   UNL     1       0.973   6.191  -2.615  0.00  0.00    +0.195 C 
ATOM     15  C   UNL     1       1.833   7.183  -3.277  0.00  0.00    +0.038 C 
ATOM     16  O   UNL     1       0.460   6.387  -1.485  0.00  0.00    -0.287 OA
ATOM     17  C   UNL     1      -0.358   4.692  -5.638  0.00  0.00    +0.023 C 
ATOM     18  C   UNL     1       3.034   4.720  -5.561  0.00  0.00    +0.011 C 
ATOM     19  C   UNL     1       2.615   6.630  -4.190  0.00  0.00    -0.017 C 
ATOM     20  C   UNL     1      -0.484   5.422  -6.965  0.00  0.00    +0.007 C 
ATOM     21  C   UNL     1       2.196   4.180  -9.497  0.00  0.00    +0.001 C 
ATOM     22  C   UNL     1       3.273   5.959  -8.217  0.00  0.00    +0.036 C 
ATOM     23  C   UNL     1       0.218   5.287  -9.698  0.00  0.00    +0.001 C 
ENDROOT
BRANCH   3  24
ATOM     24  C   UNL     1       3.132   5.483 -11.417  0.00  0.00    +0.183 C 
ATOM     25  O   UNL     1       2.766   5.378 -12.588  0.00  0.00    -0.293 OA
BRANCH  24  26
ATOM     26  C   UNL     1       4.598   5.794 -11.318  0.00  0.00    +0.246 C 
ATOM     27  O   UNL     1       4.849   7.127 -11.078  0.00  0.00    -0.212 OA
ENDBRANCH  24  26
ENDBRANCH   3  24
TORSDOF 2
ENDMDL
