MODEL 1
REMARK VINA RESULT:      -8.1      0.000      0.000
REMARK  Name = 
REMARK  3 active torsions:
REMARK  status: ('A' for Active; 'I' for Inactive)
REMARK    1  A    between atoms: N_2  and  C_4
REMARK    2  A    between atoms: C_4  and  C_5
REMARK    3  A    between atoms: C_5  and  C_6
REMARK                            x       y       z     vdW  Elec       q    Type
REMARK                         _______ _______ _______ _____ _____    ______ ____
ROOT
ATOM      1  C   UNL     1       0.868   5.368  -3.600  0.00  0.00    -0.025 C 
ATOM      2  C   UNL     1       1.699   5.476  -4.620  0.00  0.00    -0.005 C 
ATOM      3  C   UNL     1       3.040   5.994  -4.317  0.00  0.00    -0.004 A 
ATOM      4  C   UNL     1       4.039   6.205  -5.259  0.00  0.00    -0.022 A 
ATOM      5  C   UNL     1       5.095   7.004  -4.835  0.00  0.00    -0.004 A 
ATOM      6  C   UNL     1       4.953   7.899  -3.781  0.00  0.00    -0.000 A 
ATOM      7  C   UNL     1       3.829   7.838  -2.972  0.00  0.00    -0.000 A 
ATOM      8  C   UNL     1       4.014   6.112  -6.749  0.00  0.00    +0.031 C 
ATOM      9  C   UNL     1       3.318   4.878  -7.245  0.00  0.00    +0.031 C 
ATOM     10  C   UNL     1       1.835   4.981  -7.097  0.00  0.00    -0.022 A 
ATOM     11  C   UNL     1       1.179   5.139  -8.311  0.00  0.00    -0.004 A 
ATOM     12  C   UNL     1      -0.148   5.546  -8.321  0.00  0.00    -0.000 A 
ATOM     13  C   UNL     1      -0.889   5.401  -7.155  0.00  0.00    -0.000 A 
ATOM     14  C   UNL     1      -0.247   5.181  -5.941  0.00  0.00    -0.000 A 
ATOM     15  C   UNL     1       3.049   6.697  -3.121  0.00  0.00    -0.000 A 
ATOM     16  C   UNL     1       1.133   5.030  -5.899  0.00  0.00    -0.004 A 
ENDROOT
BRANCH   1  17
ATOM     17  C   UNL     1      -0.589   5.594  -3.681  0.00  0.00    +0.043 C 
BRANCH  17  18
ATOM     18  C   UNL     1      -1.172   5.367  -2.316  0.00  0.00    +0.077 C 
BRANCH  18  20
ATOM     19  C   UNL     1      -3.186   5.106  -3.614  0.00  0.00    +0.090 C 
ATOM     20  N   UNL     1      -2.610   5.333  -2.297  0.00  0.00    -0.270 NA
ATOM     21  C   UNL     1      -3.096   6.605  -1.803  0.00  0.00    +0.090 C 
ENDBRANCH  18  20
ENDBRANCH  17  18
ENDBRANCH   1  17
TORSDOF 3
ENDMDL
MODEL 2
REMARK VINA RESULT:      -7.9      2.600      6.437
REMARK  Name = 
REMARK  3 active torsions:
REMARK  status: ('A' for Active; 'I' for Inactive)
REMARK    1  A    between atoms: N_2  and  C_4
REMARK    2  A    between atoms: C_4  and  C_5
REMARK    3  A    between atoms: C_5  and  C_6
REMARK                            x       y       z     vdW  Elec       q    Type
REMARK                         _______ _______ _______ _____ _____    ______ ____
ROOT
ATOM      1  C   UNL     1       2.194   4.521  -6.781  0.00  0.00    -0.025 C 
ATOM      2  C   UNL     1       1.771   5.041  -5.645  0.00  0.00    -0.005 C 
ATOM      3  C   UNL     1       0.319   5.031  -5.423  0.00  0.00    -0.004 A 
ATOM      4  C   UNL     1      -0.315   5.557  -4.304  0.00  0.00    -0.022 A 
ATOM      5  C   UNL     1      -1.685   5.753  -4.437  0.00  0.00    -0.004 A 
ATOM      6  C   UNL     1      -2.284   5.886  -5.684  0.00  0.00    -0.000 A 
ATOM      7  C   UNL     1      -1.566   5.579  -6.829  0.00  0.00    -0.000 A 
ATOM      8  C   UNL     1       0.222   6.345  -3.156  0.00  0.00    +0.031 C 
ATOM      9  C   UNL     1       1.496   5.777  -2.602  0.00  0.00    +0.031 C 
ATOM     10  C   UNL     1       2.659   6.048  -3.500  0.00  0.00    -0.022 A 
ATOM     11  C   UNL     1       3.534   6.994  -2.983  0.00  0.00    -0.004 A 
ATOM     12  C   UNL     1       4.485   7.569  -3.814  0.00  0.00    -0.000 A 
ATOM     13  C   UNL     1       4.802   6.919  -5.000  0.00  0.00    -0.000 A 
ATOM     14  C   UNL     1       3.966   5.926  -5.498  0.00  0.00    -0.000 A 
ATOM     15  C   UNL     1      -0.371   4.900  -6.619  0.00  0.00    -0.000 A 
ATOM     16  C   UNL     1       2.849   5.527  -4.774  0.00  0.00    -0.004 A 
ENDROOT
BRANCH   1  17
ATOM     17  C   UNL     1       3.356   5.016  -7.546  0.00  0.00    +0.043 C 
BRANCH  17  18
ATOM     18  C   UNL     1       3.425   4.252  -8.837  0.00  0.00    +0.077 C 
BRANCH  18  20
ATOM     19  C   UNL     1       5.429   5.543  -9.192  0.00  0.00    +0.090 C 
ATOM     20  N   UNL     1       4.321   4.826  -9.805  0.00  0.00    -0.270 NA
ATOM     21  C   UNL     1       3.577   5.759 -10.627  0.00  0.00    +0.090 C 
ENDBRANCH  18  20
ENDBRANCH  17  18
ENDBRANCH   1  17
TORSDOF 3
ENDMDL
MODEL 3
REMARK VINA RESULT:      -7.8      1.538      2.493
REMARK  Name = 
REMARK  3 active torsions:
REMARK  status: ('A' for Active; 'I' for Inactive)
REMARK    1  A    between atoms: N_2  and  C_4
REMARK    2  A    between atoms: C_4  and  C_5
REMARK    3  A    between atoms: C_5  and  C_6
REMARK                            x       y       z     vdW  Elec       q    Type
REMARK                         _______ _______ _______ _____ _____    ______ ____
ROOT
ATOM      1  C   UNL     1       0.054   5.050  -6.453  0.00  0.00    -0.025 C 
ATOM      2  C   UNL     1       1.256   5.175  -6.981  0.00  0.00    -0.005 C 
ATOM      3  C   UNL     1       2.363   5.390  -6.039  0.00  0.00    -0.004 A 
ATOM      4  C   UNL     1       3.691   5.573  -6.406  0.00  0.00    -0.022 A 
ATOM      5  C   UNL     1       4.514   6.090  -5.413  0.00  0.00    -0.004 A 
ATOM      6  C   UNL     1       3.998   6.811  -4.342  0.00  0.00    -0.000 A 
ATOM      7  C   UNL     1       2.631   6.818  -4.111  0.00  0.00    -0.000 A 
ATOM      8  C   UNL     1       4.322   5.731  -7.749  0.00  0.00    +0.031 C 
ATOM      9  C   UNL     1       3.814   4.739  -8.754  0.00  0.00    +0.031 C 
ATOM     10  C   UNL     1       2.435   5.078  -9.218  0.00  0.00    -0.022 A 
ATOM     11  C   UNL     1       2.403   5.547 -10.525  0.00  0.00    -0.004 A 
ATOM     12  C   UNL     1       1.260   6.179 -10.994  0.00  0.00    -0.000 A 
ATOM     13  C   UNL     1       0.068   5.978 -10.309  0.00  0.00    -0.000 A 
ATOM     14  C   UNL     1       0.082   5.451  -9.022  0.00  0.00    -0.000 A 
ATOM     15  C   UNL     1       1.902   5.873  -4.823  0.00  0.00    -0.000 A 
ATOM     16  C   UNL     1       1.281   5.053  -8.444  0.00  0.00    -0.004 A 
ENDROOT
BRANCH   1  17
ATOM     17  C   UNL     1      -1.190   5.540  -7.080  0.00  0.00    +0.043 C 
BRANCH  17  18
ATOM     18  C   UNL     1      -2.288   5.463  -6.060  0.00  0.00    +0.077 C 
BRANCH  18  20
ATOM     19  C   UNL     1      -2.674   5.456  -3.680  0.00  0.00    +0.090 C 
ATOM     20  N   UNL     1      -1.945   6.048  -4.791  0.00  0.00    -0.270 NA
ATOM     21  C   UNL     1      -2.258   7.463  -4.835  0.00  0.00    +0.090 C 
ENDBRANCH  18  20
ENDBRANCH  17  18
ENDBRANCH   1  17
TORSDOF 3
ENDMDL
MODEL 4
REMARK VINA RESULT:      -7.7      1.923      4.395
REMARK  Name = 
REMARK  3 active torsions:
REMARK  status: ('A' for Active; 'I' for Inactive)
REMARK    1  A    between atoms: N_2  and  C_4
REMARK    2  A    between atoms: C_4  and  C_5
REMARK    3  A    between atoms: C_5  and  C_6
REMARK                            x       y       z     vdW  Elec       q    Type
REMARK                         _______ _______ _______ _____ _____    ______ ____
ROOT
ATOM      1  C   UNL     1       1.719   5.326  -3.744  0.00  0.00    -0.025 C 
ATOM      2  C   UNL     1       1.061   5.377  -4.887  0.00  0.00    -0.005 C 
ATOM      3  C   UNL     1       1.833   5.073  -6.099  0.00  0.00    -0.004 A 
ATOM      4  C   UNL     1       1.324   5.103  -7.392  0.00  0.00    -0.022 A 
ATOM      5  C   UNL     1       2.276   5.119  -8.404  0.00  0.00    -0.004 A 
ATOM      6  C   UNL     1       3.575   5.556  -8.174  0.00  0.00    -0.000 A 
ATOM      7  C   UNL     1       4.017   5.753  -6.875  0.00  0.00    -0.000 A 
ATOM      8  C   UNL     1      -0.004   5.547  -7.909  0.00  0.00    +0.031 C 
ATOM      9  C   UNL     1      -1.152   5.032  -7.091  0.00  0.00    +0.031 C 
ATOM     10  C   UNL     1      -1.272   5.755  -5.789  0.00  0.00    -0.022 A 
ATOM     11  C   UNL     1      -2.371   6.604  -5.740  0.00  0.00    -0.004 A 
ATOM     12  C   UNL     1      -2.451   7.557  -4.734  0.00  0.00    -0.000 A 
ATOM     13  C   UNL     1      -1.667   7.384  -3.601  0.00  0.00    -0.000 A 
ATOM     14  C   UNL     1      -0.601   6.492  -3.616  0.00  0.00    -0.000 A 
ATOM     15  C   UNL     1       3.194   5.233  -5.881  0.00  0.00    -0.000 A 
ATOM     16  C   UNL     1      -0.361   5.712  -4.741  0.00  0.00    -0.004 A 
ENDROOT
BRANCH   1  17
ATOM     17  C   UNL     1       1.466   6.215  -2.593  0.00  0.00    +0.043 C 
BRANCH  17  18
ATOM     18  C   UNL     1       2.788   6.563  -1.972  0.00  0.00    +0.077 C 
BRANCH  18  20
ATOM     19  C   UNL     1       4.734   7.286  -3.197  0.00  0.00    +0.090 C 
ATOM     20  N   UNL     1       3.457   7.664  -2.611  0.00  0.00    -0.270 NA
ATOM     21  C   UNL     1       3.700   8.694  -1.620  0.00  0.00    +0.090 C 
ENDBRANCH  18  20
ENDBRANCH  17  18
ENDBRANCH   1  17
TORSDOF 3
ENDMDL
MODEL 5
REMARK VINA RESULT:      -7.7      3.425      5.348
REMARK  Name = 
REMARK  3 active torsions:
REMARK  status: ('A' for Active; 'I' for Inactive)
REMARK    1  A    between atoms: N_2  and  C_4
REMARK    2  A    between atoms: C_4  and  C_5
REMARK    3  A    between atoms: C_5  and  C_6
REMARK                            x       y       z     vdW  Elec       q    Type
REMARK                         _______ _______ _______ _____ _____    ______ ____
ROOT
ATOM      1  C   UNL     1       1.695   4.891  -8.937  0.00  0.00    -0.025 C 
ATOM      2  C   UNL     1       2.305   5.224 -10.058  0.00  0.00    -0.005 C 
ATOM      3  C   UNL     1       3.767   5.080 -10.073  0.00  0.00    -0.004 A 
ATOM      4  C   UNL     1       4.585   5.406 -11.149  0.00  0.00    -0.022 A 
ATOM      5  C   UNL     1       5.938   5.519 -10.852  0.00  0.00    -0.004 A 
ATOM      6  C   UNL     1       6.381   5.771  -9.559  0.00  0.00    -0.000 A 
ATOM      7  C   UNL     1       5.497   5.671  -8.496  0.00  0.00    -0.000 A 
ATOM      8  C   UNL     1       4.272   6.072 -12.447  0.00  0.00    +0.031 C 
ATOM      9  C   UNL     1       3.034   5.529 -13.099  0.00  0.00    +0.031 C 
ATOM     10  C   UNL     1       1.794   6.000 -12.411  0.00  0.00    -0.022 A 
ATOM     11  C   UNL     1       1.081   6.930 -13.156  0.00  0.00    -0.004 A 
ATOM     12  C   UNL     1       0.086   7.677 -12.541  0.00  0.00    -0.000 A 
ATOM     13  C   UNL     1      -0.437   7.215 -11.341  0.00  0.00    -0.000 A 
ATOM     14  C   UNL     1       0.236   6.239 -10.614  0.00  0.00    -0.000 A 
ATOM     15  C   UNL     1       4.284   5.058  -8.786  0.00  0.00    -0.000 A 
ATOM     16  C   UNL     1       1.396   5.667 -11.122  0.00  0.00    -0.004 A 
ENDROOT
BRANCH   1  17
ATOM     17  C   UNL     1       0.494   5.566  -8.406  0.00  0.00    +0.043 C 
BRANCH  17  18
ATOM     18  C   UNL     1       0.772   5.964  -6.985  0.00  0.00    +0.077 C 
BRANCH  18  20
ATOM     19  C   UNL     1      -1.547   5.344  -6.762  0.00  0.00    +0.090 C 
ATOM     20  N   UNL     1      -0.304   5.666  -6.077  0.00  0.00    -0.270 NA
ATOM     21  C   UNL     1      -0.535   6.825  -5.239  0.00  0.00    +0.090 C 
ENDBRANCH  18  20
ENDBRANCH  17  18
ENDBRANCH   1  17
TORSDOF 3
ENDMDL
MODEL 6
REMARK VINA RESULT:      -7.7      3.511      6.631
REMARK  Name = 
REMARK  3 active torsions:
REMARK  status: ('A' for Active; 'I' for Inactive)
REMARK    1  A    between atoms: N_2  and  C_4
REMARK    2  A    between atoms: C_4  and  C_5
REMARK    3  A    between atoms: C_5  and  C_6
REMARK                            x       y       z     vdW  Elec       q    Type
REMARK                         _______ _______ _______ _____ _____    ______ ____
ROOT
ATOM      1  C   UNL     1       1.320   6.600  -9.366  0.00  0.00    -0.025 C 
ATOM      2  C   UNL     1       2.337   6.384 -10.177  0.00  0.00    -0.005 C 
ATOM      3  C   UNL     1       2.009   6.164 -11.592  0.00  0.00    -0.004 A 
ATOM      4  C   UNL     1       2.939   5.892 -12.589  0.00  0.00    -0.022 A 
ATOM      5  C   UNL     1       2.411   5.388 -13.771  0.00  0.00    -0.004 A 
ATOM      6  C   UNL     1       1.174   4.755 -13.804  0.00  0.00    -0.000 A 
ATOM      7  C   UNL     1       0.331   4.831 -12.706  0.00  0.00    -0.000 A 
ATOM      8  C   UNL     1       4.406   5.628 -12.511  0.00  0.00    +0.031 C 
ATOM      9  C   UNL     1       5.126   6.589 -11.611  0.00  0.00    +0.031 C 
ATOM     10  C   UNL     1       4.866   6.297 -10.169  0.00  0.00    -0.022 A 
ATOM     11  C   UNL     1       5.969   5.759  -9.517  0.00  0.00    -0.004 A 
ATOM     12  C   UNL     1       5.802   5.162  -8.275  0.00  0.00    -0.000 A 
ATOM     13  C   UNL     1       4.656   5.463  -7.550  0.00  0.00    -0.000 A 
ATOM     14  C   UNL     1       3.567   6.058  -8.176  0.00  0.00    -0.000 A 
ATOM     15  C   UNL     1       0.687   5.772 -11.746  0.00  0.00    -0.000 A 
ATOM     16  C   UNL     1       3.647   6.424  -9.514  0.00  0.00    -0.004 A 
ENDROOT
BRANCH   1  17
ATOM     17  C   UNL     1       1.255   6.141  -7.964  0.00  0.00    +0.043 C 
BRANCH  17  18
ATOM     18  C   UNL     1      -0.083   5.497  -7.746  0.00  0.00    +0.077 C 
BRANCH  18  20
ATOM     19  C   UNL     1      -0.707   6.028  -5.479  0.00  0.00    +0.090 C 
ATOM     20  N   UNL     1      -0.276   4.997  -6.410  0.00  0.00    -0.270 NA
ATOM     21  C   UNL     1       0.981   4.454  -5.935  0.00  0.00    +0.090 C 
ENDBRANCH  18  20
ENDBRANCH  17  18
ENDBRANCH   1  17
TORSDOF 3
ENDMDL
MODEL 7
REMARK VINA RESULT:      -7.6      2.563      5.033
REMARK  Name = 
REMARK  3 active torsions:
REMARK  status: ('A' for Active; 'I' for Inactive)
REMARK    1  A    between atoms: N_2  and  C_4
REMARK    2  A    between atoms: C_4  and  C_5
REMARK    3  A    between atoms: C_5  and  C_6
REMARK                            x       y       z     vdW  Elec       q    Type
REMARK                         _______ _______ _______ _____ _____    ______ ____
ROOT
ATOM      1  C   UNL     1       2.972   6.798  -5.845  0.00  0.00    -0.025 C 
ATOM      2  C   UNL     1       1.981   6.509  -5.025  0.00  0.00    -0.005 C 
ATOM      3  C   UNL     1       2.343   6.273  -3.621  0.00  0.00    -0.004 A 
ATOM      4  C   UNL     1       1.444   5.930  -2.617  0.00  0.00    -0.022 A 
ATOM      5  C   UNL     1       2.017   5.426  -1.456  0.00  0.00    -0.004 A 
ATOM      6  C   UNL     1       3.286   4.858  -1.457  0.00  0.00    -0.000 A 
ATOM      7  C   UNL     1       4.105   5.004  -2.566  0.00  0.00    -0.000 A 
ATOM      8  C   UNL     1      -0.008   5.592  -2.680  0.00  0.00    +0.031 C 
ATOM      9  C   UNL     1      -0.792   6.535  -3.545  0.00  0.00    +0.031 C 
ATOM     10  C   UNL     1      -0.540   6.291  -4.997  0.00  0.00    -0.022 A 
ATOM     11  C   UNL     1      -1.624   5.713  -5.645  0.00  0.00    -0.004 A 
ATOM     12  C   UNL     1      -1.447   5.156  -6.904  0.00  0.00    -0.000 A 
ATOM     13  C   UNL     1      -0.330   5.532  -7.639  0.00  0.00    -0.000 A 
ATOM     14  C   UNL     1       0.737   6.168  -7.014  0.00  0.00    -0.000 A 
ATOM     15  C   UNL     1       3.686   5.947  -3.496  0.00  0.00    -0.000 A 
ATOM     16  C   UNL     1       0.660   6.498  -5.667  0.00  0.00    -0.004 A 
ENDROOT
BRANCH   1  17
ATOM     17  C   UNL     1       3.038   6.377  -7.259  0.00  0.00    +0.043 C 
BRANCH  17  18
ATOM     18  C   UNL     1       4.180   5.413  -7.406  0.00  0.00    +0.077 C 
BRANCH  18  20
ATOM     19  C   UNL     1       4.200   5.485  -9.816  0.00  0.00    +0.090 C 
ATOM     20  N   UNL     1       4.143   4.650  -8.625  0.00  0.00    -0.270 NA
ATOM     21  C   UNL     1       2.906   3.896  -8.660  0.00  0.00    +0.090 C 
ENDBRANCH  18  20
ENDBRANCH  17  18
ENDBRANCH   1  17
TORSDOF 3
ENDMDL
MODEL 8
REMARK VINA RESULT:      -7.5      5.287      8.421
REMARK  Name = 
REMARK  3 active torsions:
REMARK  status: ('A' for Active; 'I' for Inactive)
REMARK    1  A    between atoms: N_2  and  C_4
REMARK    2  A    between atoms: C_4  and  C_5
REMARK    3  A    between atoms: C_5  and  C_6
REMARK                            x       y       z     vdW  Elec       q    Type
REMARK                         _______ _______ _______ _____ _____    ______ ____
ROOT
ATOM      1  C   UNL     1       4.610   6.632 -11.071  0.00  0.00    -0.025 C 
ATOM      2  C   UNL     1       3.330   6.435 -10.818  0.00  0.00    -0.005 C 
ATOM      3  C   UNL     1       2.935   6.450  -9.403  0.00  0.00    -0.004 A 
ATOM      4  C   UNL     1       1.643   6.235  -8.938  0.00  0.00    -0.022 A 
ATOM      5  C   UNL     1       1.540   5.955  -7.581  0.00  0.00    -0.004 A 
ATOM      6  C   UNL     1       2.616   5.455  -6.857  0.00  0.00    -0.000 A 
ATOM      7  C   UNL     1       3.884   5.455  -7.417  0.00  0.00    -0.000 A 
ATOM      8  C   UNL     1       0.402   5.822  -9.658  0.00  0.00    +0.031 C 
ATOM      9  C   UNL     1       0.193   6.573 -10.941  0.00  0.00    +0.031 C 
ATOM     10  C   UNL     1       1.124   6.106 -12.012  0.00  0.00    -0.022 A 
ATOM     11  C   UNL     1       0.484   5.379 -13.007  0.00  0.00    -0.004 A 
ATOM     12  C   UNL     1       1.241   4.631 -13.899  0.00  0.00    -0.000 A 
ATOM     13  C   UNL     1       2.590   4.934 -14.031  0.00  0.00    -0.000 A 
ATOM     14  C   UNL     1       3.230   5.714 -13.074  0.00  0.00    -0.000 A 
ATOM     15  C   UNL     1       4.023   6.213  -8.575  0.00  0.00    -0.000 A 
ATOM     16  C   UNL     1       2.506   6.256 -12.019  0.00  0.00    -0.004 A 
ENDROOT
BRANCH   1  17
ATOM     17  C   UNL     1       5.353   5.988 -12.172  0.00  0.00    +0.043 C 
BRANCH  17  18
ATOM     18  C   UNL     1       6.603   5.382 -11.601  0.00  0.00    +0.077 C 
BRANCH  18  20
ATOM     19  C   UNL     1       8.866   5.718 -12.360  0.00  0.00    +0.090 C 
ATOM     20  N   UNL     1       7.593   5.052 -12.591  0.00  0.00    -0.270 NA
ATOM     21  C   UNL     1       7.099   5.456 -13.892  0.00  0.00    +0.090 C 
ENDBRANCH  18  20
ENDBRANCH  17  18
ENDBRANCH   1  17
TORSDOF 3
ENDMDL
MODEL 9
REMARK VINA RESULT:      -7.5      6.739     10.316
REMARK  Name = 
REMARK  3 active torsions:
REMARK  status: ('A' for Active; 'I' for Inactive)
REMARK    1  A    between atoms: N_2  and  C_4
REMARK    2  A    between atoms: C_4  and  C_5
REMARK    3  A    between atoms: C_5  and  C_6
REMARK                            x       y       z     vdW  Elec       q    Type
REMARK                         _______ _______ _______ _____ _____    ______ ____
ROOT
ATOM      1  C   UNL     1       4.284   5.715 -13.958  0.00  0.00    -0.025 C 
ATOM      2  C   UNL     1       4.088   5.714 -12.653  0.00  0.00    -0.005 C 
ATOM      3  C   UNL     1       2.691   5.786 -12.204  0.00  0.00    -0.004 A 
ATOM      4  C   UNL     1       2.288   5.825 -10.874  0.00  0.00    -0.022 A 
ATOM      5  C   UNL     1       0.975   6.230 -10.665  0.00  0.00    -0.004 A 
ATOM      6  C   UNL     1       0.286   6.984 -11.607  0.00  0.00    -0.000 A 
ATOM      7  C   UNL     1       0.811   7.141 -12.881  0.00  0.00    -0.000 A 
ATOM      8  C   UNL     1       3.081   5.936  -9.615  0.00  0.00    +0.031 C 
ATOM      9  C   UNL     1       4.273   5.024  -9.593  0.00  0.00    +0.031 C 
ATOM     10  C   UNL     1       5.368   5.524 -10.479  0.00  0.00    -0.022 A 
ATOM     11  C   UNL     1       6.456   6.017  -9.770  0.00  0.00    -0.004 A 
ATOM     12  C   UNL     1       7.409   6.781 -10.429  0.00  0.00    -0.000 A 
ATOM     13  C   UNL     1       7.471   6.703 -11.815  0.00  0.00    -0.000 A 
ATOM     14  C   UNL     1       6.414   6.156 -12.533  0.00  0.00    -0.000 A 
ATOM     15  C   UNL     1       1.869   6.297 -13.197  0.00  0.00    -0.000 A 
ATOM     16  C   UNL     1       5.323   5.615 -11.865  0.00  0.00    -0.004 A 
ENDROOT
BRANCH   1  17
ATOM     17  C   UNL     1       5.434   6.353 -14.630  0.00  0.00    +0.043 C 
BRANCH  17  18
ATOM     18  C   UNL     1       4.918   7.105 -15.823  0.00  0.00    +0.077 C 
BRANCH  18  20
ATOM     19  C   UNL     1       5.048   9.091 -17.183  0.00  0.00    +0.090 C 
ATOM     20  N   UNL     1       5.635   8.321 -16.097  0.00  0.00    -0.270 NA
ATOM     21  C   UNL     1       6.996   7.983 -16.466  0.00  0.00    +0.090 C 
ENDBRANCH  18  20
ENDBRANCH  17  18
ENDBRANCH   1  17
TORSDOF 3
ENDMDL
