MODEL 1
REMARK VINA RESULT:      -6.0      0.000      0.000
REMARK  Name = 
REMARK  5 active torsions:
REMARK  status: ('A' for Active; 'I' for Inactive)
REMARK    1  A    between atoms: C_2  and  N_3
REMARK    2  A    between atoms: N_3  and  C_4
REMARK    3  A    between atoms: N_3  and  C_6
REMARK    4  A    between atoms: C_6  and  C_8
REMARK    5  A    between atoms: C_8  and  C_10
REMARK                            x       y       z     vdW  Elec       q    Type
REMARK                         _______ _______ _______ _____ _____    ______ ____
ROOT
ATOM      1  C   UNL     1       3.835   5.003  -9.802  0.00  0.00    +0.187 C 
ATOM      2  O   UNL     1       3.922   4.023  -9.011  0.00  0.00    -0.290 OA
ENDROOT
BRANCH   1   3
ATOM      3  C   UNL     1       5.033   5.797 -10.002  0.00  0.00    +0.036 A 
ATOM      4  C   UNL     1       4.937   6.935 -10.794  0.00  0.00    +0.003 A 
ATOM      5  C   UNL     1       6.009   7.714 -11.129  0.00  0.00    +0.000 A 
ATOM      6  C   UNL     1       7.254   7.322 -10.685  0.00  0.00    +0.000 A 
ATOM      7  C   UNL     1       7.345   6.221  -9.843  0.00  0.00    +0.000 A 
ATOM      8  C   UNL     1       6.213   5.601  -9.330  0.00  0.00    +0.003 A 
ENDBRANCH   1   3
BRANCH   1   9
ATOM      9  C   UNL     1       2.548   5.916  -9.453  0.00  0.00    +0.120 C 
ATOM     10  C   UNL     1       1.517   4.665  -9.736  0.00  0.00    +0.026 C 
BRANCH   9  11
ATOM     11  N   UNL     1       2.581   5.634  -7.909  0.00  0.00    -0.268 NA
BRANCH  11  13
ATOM     12  C   UNL     1       2.477   7.567  -7.651  0.00  0.00    +0.019 C 
ATOM     13  C   UNL     1       2.741   6.940  -7.275  0.00  0.00    +0.072 C 
ENDBRANCH  11  13
BRANCH  11  14
ATOM     14  C   UNL     1       1.369   5.079  -7.484  0.00  0.00    +0.072 C 
ATOM     15  C   UNL     1       1.479   4.326  -6.211  0.00  0.00    +0.019 C 
ENDBRANCH  11  14
ENDBRANCH   9  11
ENDBRANCH   1   9
TORSDOF 5
ENDMDL
MODEL 2
REMARK VINA RESULT:      -5.9      2.952      6.394
REMARK  Name = 
REMARK  5 active torsions:
REMARK  status: ('A' for Active; 'I' for Inactive)
REMARK    1  A    between atoms: C_2  and  N_3
REMARK    2  A    between atoms: N_3  and  C_4
REMARK    3  A    between atoms: N_3  and  C_6
REMARK    4  A    between atoms: C_6  and  C_8
REMARK    5  A    between atoms: C_8  and  C_10
REMARK                            x       y       z     vdW  Elec       q    Type
REMARK                         _______ _______ _______ _____ _____    ______ ____
ROOT
ATOM      1  C   UNL     1       1.002   5.078  -5.368  0.00  0.00    +0.187 C 
ATOM      2  O   UNL     1       1.056   3.958  -5.949  0.00  0.00    -0.290 OA
ENDROOT
BRANCH   1   3
ATOM      3  C   UNL     1      -0.251   5.805  -5.455  0.00  0.00    +0.036 A 
ATOM      4  C   UNL     1      -0.355   7.010  -4.770  0.00  0.00    +0.003 A 
ATOM      5  C   UNL     1      -1.508   7.741  -4.701  0.00  0.00    +0.000 A 
ATOM      6  C   UNL     1      -2.632   7.233  -5.316  0.00  0.00    +0.000 A 
ATOM      7  C   UNL     1      -2.515   6.062  -6.053  0.00  0.00    +0.000 A 
ATOM      8  C   UNL     1      -1.280   5.476  -6.301  0.00  0.00    +0.003 A 
ENDBRANCH   1   3
BRANCH   1   9
ATOM      9  C   UNL     1       2.272   5.998  -5.762  0.00  0.00    +0.120 C 
ATOM     10  C   UNL     1       3.330   4.804  -5.358  0.00  0.00    +0.026 C 
BRANCH   9  11
ATOM     11  N   UNL     1       2.282   5.592  -7.279  0.00  0.00    -0.268 NA
BRANCH  11  13
ATOM     12  C   UNL     1       2.219   7.500  -7.690  0.00  0.00    +0.019 C 
ATOM     13  C   UNL     1       2.016   6.825  -8.016  0.00  0.00    +0.072 C 
ENDBRANCH  11  13
BRANCH  11  14
ATOM     14  C   UNL     1       3.543   5.114  -7.652  0.00  0.00    +0.072 C 
ATOM     15  C   UNL     1       3.517   4.273  -8.873  0.00  0.00    +0.019 C 
ENDBRANCH  11  14
ENDBRANCH   9  11
ENDBRANCH   1   9
TORSDOF 5
ENDMDL
MODEL 3
REMARK VINA RESULT:      -5.9      0.898      2.172
REMARK  Name = 
REMARK  5 active torsions:
REMARK  status: ('A' for Active; 'I' for Inactive)
REMARK    1  A    between atoms: C_2  and  N_3
REMARK    2  A    between atoms: N_3  and  C_4
REMARK    3  A    between atoms: N_3  and  C_6
REMARK    4  A    between atoms: C_6  and  C_8
REMARK    5  A    between atoms: C_8  and  C_10
REMARK                            x       y       z     vdW  Elec       q    Type
REMARK                         _______ _______ _______ _____ _____    ______ ____
ROOT
ATOM      1  C   UNL     1       3.782   5.530  -9.292  0.00  0.00    +0.187 C 
ATOM      2  O   UNL     1       3.609   4.286  -9.425  0.00  0.00    -0.290 OA
ENDROOT
BRANCH   1   3
ATOM      3  C   UNL     1       5.022   6.081  -9.808  0.00  0.00    +0.036 A 
ATOM      4  C   UNL     1       6.217   5.598  -9.289  0.00  0.00    +0.003 A 
ATOM      5  C   UNL     1       7.444   6.098  -9.627  0.00  0.00    +0.000 A 
ATOM      6  C   UNL     1       7.488   7.160 -10.503  0.00  0.00    +0.000 A 
ATOM      7  C   UNL     1       6.300   7.603 -11.072  0.00  0.00    +0.000 A 
ATOM      8  C   UNL     1       5.105   6.918 -10.892  0.00  0.00    +0.003 A 
ENDBRANCH   1   3
BRANCH   1   9
ATOM      9  C   UNL     1       3.491   5.998  -7.773  0.00  0.00    +0.120 C 
ATOM     10  C   UNL     1       2.743   7.372  -8.284  0.00  0.00    +0.026 C 
BRANCH   9  11
ATOM     11  N   UNL     1       2.132   5.222  -7.639  0.00  0.00    -0.268 NA
BRANCH  11  13
ATOM     12  C   UNL     1       2.165   3.916  -6.188  0.00  0.00    +0.019 C 
ATOM     13  C   UNL     1       2.120   4.685  -6.281  0.00  0.00    +0.072 C 
ENDBRANCH  11  13
BRANCH  11  14
ATOM     14  C   UNL     1       1.049   6.099  -7.780  0.00  0.00    +0.072 C 
ATOM     15  C   UNL     1      -0.136   5.474  -8.413  0.00  0.00    +0.019 C 
ENDBRANCH  11  14
ENDBRANCH   9  11
ENDBRANCH   1   9
TORSDOF 5
ENDMDL
MODEL 4
REMARK VINA RESULT:      -5.7      3.220      6.406
REMARK  Name = 
REMARK  5 active torsions:
REMARK  status: ('A' for Active; 'I' for Inactive)
REMARK    1  A    between atoms: C_2  and  N_3
REMARK    2  A    between atoms: N_3  and  C_4
REMARK    3  A    between atoms: N_3  and  C_6
REMARK    4  A    between atoms: C_6  and  C_8
REMARK    5  A    between atoms: C_8  and  C_10
REMARK                            x       y       z     vdW  Elec       q    Type
REMARK                         _______ _______ _______ _____ _____    ______ ____
ROOT
ATOM      1  C   UNL     1       1.705   6.779  -6.201  0.00  0.00    +0.187 C 
ATOM      2  O   UNL     1       2.038   7.771  -6.907  0.00  0.00    -0.290 OA
ENDROOT
BRANCH   1   3
ATOM      3  C   UNL     1       0.283   6.555  -6.008  0.00  0.00    +0.036 A 
ATOM      4  C   UNL     1      -0.336   5.582  -6.784  0.00  0.00    +0.003 A 
ATOM      5  C   UNL     1      -1.681   5.341  -6.759  0.00  0.00    +0.000 A 
ATOM      6  C   UNL     1      -2.463   6.132  -5.945  0.00  0.00    +0.000 A 
ATOM      7  C   UNL     1      -1.840   7.062  -5.122  0.00  0.00    +0.000 A 
ATOM      8  C   UNL     1      -0.457   7.113  -4.997  0.00  0.00    +0.003 A 
ENDBRANCH   1   3
BRANCH   1   9
ATOM      9  C   UNL     1       2.522   6.757  -4.807  0.00  0.00    +0.120 C 
ATOM     10  C   UNL     1       2.480   5.113  -4.746  0.00  0.00    +0.026 C 
BRANCH   9  11
ATOM     11  N   UNL     1       3.945   6.768  -5.471  0.00  0.00    -0.268 NA
BRANCH  11  13
ATOM     12  C   UNL     1       5.157   7.829  -4.365  0.00  0.00    +0.019 C 
ATOM     13  C   UNL     1       4.875   7.106  -4.396  0.00  0.00    +0.072 C 
ENDBRANCH  11  13
BRANCH  11  14
ATOM     14  C   UNL     1       4.270   5.497  -5.958  0.00  0.00    +0.072 C 
ATOM     15  C   UNL     1       4.810   5.516  -7.338  0.00  0.00    +0.019 C 
ENDBRANCH  11  14
ENDBRANCH   9  11
ENDBRANCH   1   9
TORSDOF 5
ENDMDL
MODEL 5
REMARK VINA RESULT:      -5.7      4.272      6.806
REMARK  Name = 
REMARK  5 active torsions:
REMARK  status: ('A' for Active; 'I' for Inactive)
REMARK    1  A    between atoms: C_2  and  N_3
REMARK    2  A    between atoms: N_3  and  C_4
REMARK    3  A    between atoms: N_3  and  C_6
REMARK    4  A    between atoms: C_6  and  C_8
REMARK    5  A    between atoms: C_8  and  C_10
REMARK                            x       y       z     vdW  Elec       q    Type
REMARK                         _______ _______ _______ _____ _____    ______ ____
ROOT
ATOM      1  C   UNL     1       1.245   6.661  -4.804  0.00  0.00    +0.187 C 
ATOM      2  O   UNL     1       1.340   6.523  -3.553  0.00  0.00    -0.290 OA
ENDROOT
BRANCH   1   3
ATOM      3  C   UNL     1      -0.057   6.418  -5.397  0.00  0.00    +0.036 A 
ATOM      4  C   UNL     1      -1.127   7.190  -4.960  0.00  0.00    +0.003 A 
ATOM      5  C   UNL     1      -2.415   6.998  -5.376  0.00  0.00    +0.000 A 
ATOM      6  C   UNL     1      -2.664   5.959  -6.247  0.00  0.00    +0.000 A 
ATOM      7  C   UNL     1      -1.588   5.227  -6.733  0.00  0.00    +0.000 A 
ATOM      8  C   UNL     1      -0.275   5.603  -6.478  0.00  0.00    +0.003 A 
ENDBRANCH   1   3
BRANCH   1   9
ATOM      9  C   UNL     1       2.423   5.859  -5.566  0.00  0.00    +0.120 C 
ATOM     10  C   UNL     1       2.765   7.158  -6.517  0.00  0.00    +0.026 C 
BRANCH   9  11
ATOM     11  N   UNL     1       3.546   6.229  -4.532  0.00  0.00    -0.268 NA
BRANCH  11  13
ATOM     12  C   UNL     1       4.038   4.339  -4.537  0.00  0.00    +0.019 C 
ATOM     13  C   UNL     1       4.369   5.029  -4.402  0.00  0.00    +0.072 C 
ENDBRANCH  11  13
BRANCH  11  14
ATOM     14  C   UNL     1       4.346   7.265  -5.025  0.00  0.00    +0.072 C 
ATOM     15  C   UNL     1       5.296   7.804  -4.023  0.00  0.00    +0.019 C 
ENDBRANCH  11  14
ENDBRANCH   9  11
ENDBRANCH   1   9
TORSDOF 5
ENDMDL
MODEL 6
REMARK VINA RESULT:      -5.7      2.006      3.053
REMARK  Name = 
REMARK  5 active torsions:
REMARK  status: ('A' for Active; 'I' for Inactive)
REMARK    1  A    between atoms: C_2  and  N_3
REMARK    2  A    between atoms: N_3  and  C_4
REMARK    3  A    between atoms: N_3  and  C_6
REMARK    4  A    between atoms: C_6  and  C_8
REMARK    5  A    between atoms: C_8  and  C_10
REMARK                            x       y       z     vdW  Elec       q    Type
REMARK                         _______ _______ _______ _____ _____    ______ ____
ROOT
ATOM      1  C   UNL     1       3.509   6.331 -11.104  0.00  0.00    +0.187 C 
ATOM      2  O   UNL     1       3.303   5.851 -12.253  0.00  0.00    -0.290 OA
ENDROOT
BRANCH   1   3
ATOM      3  C   UNL     1       4.893   6.476 -10.689  0.00  0.00    +0.036 A 
ATOM      4  C   UNL     1       5.603   7.574 -11.159  0.00  0.00    +0.003 A 
ATOM      5  C   UNL     1       6.933   7.774 -10.913  0.00  0.00    +0.000 A 
ATOM      6  C   UNL     1       7.607   6.813 -10.191  0.00  0.00    +0.000 A 
ATOM      7  C   UNL     1       6.886   5.747  -9.667  0.00  0.00    +0.000 A 
ATOM      8  C   UNL     1       5.499   5.703  -9.732  0.00  0.00    +0.003 A 
ENDBRANCH   1   3
BRANCH   1   9
ATOM      9  C   UNL     1       2.613   5.577  -9.990  0.00  0.00    +0.120 C 
ATOM     10  C   UNL     1       2.374   6.977  -9.158  0.00  0.00    +0.026 C 
BRANCH   9  11
ATOM     11  N   UNL     1       1.257   5.723 -10.769  0.00  0.00    -0.268 NA
BRANCH  11  13
ATOM     12  C   UNL     1       0.216   4.073 -10.864  0.00  0.00    +0.019 C 
ATOM     13  C   UNL     1       0.433   4.598 -10.334  0.00  0.00    +0.072 C 
ENDBRANCH  11  13
BRANCH  11  14
ATOM     14  C   UNL     1       0.611   6.912 -10.412  0.00  0.00    +0.072 C 
ATOM     15  C   UNL     1      -0.310   7.418 -11.458  0.00  0.00    +0.019 C 
ENDBRANCH  11  14
ENDBRANCH   9  11
ENDBRANCH   1   9
TORSDOF 5
ENDMDL
MODEL 7
REMARK VINA RESULT:      -5.6      2.869      6.346
REMARK  Name = 
REMARK  5 active torsions:
REMARK  status: ('A' for Active; 'I' for Inactive)
REMARK    1  A    between atoms: C_2  and  N_3
REMARK    2  A    between atoms: N_3  and  C_4
REMARK    3  A    between atoms: N_3  and  C_6
REMARK    4  A    between atoms: C_6  and  C_8
REMARK    5  A    between atoms: C_8  and  C_10
REMARK                            x       y       z     vdW  Elec       q    Type
REMARK                         _______ _______ _______ _____ _____    ______ ____
ROOT
ATOM      1  C   UNL     1       0.980   5.214  -6.158  0.00  0.00    +0.187 C 
ATOM      2  O   UNL     1       1.090   4.004  -5.819  0.00  0.00    -0.290 OA
ENDROOT
BRANCH   1   3
ATOM      3  C   UNL     1      -0.242   5.898  -5.775  0.00  0.00    +0.036 A 
ATOM      4  C   UNL     1      -1.429   5.500  -6.378  0.00  0.00    +0.003 A 
ATOM      5  C   UNL     1      -2.628   6.123  -6.168  0.00  0.00    +0.000 A 
ATOM      6  C   UNL     1      -2.645   7.225  -5.340  0.00  0.00    +0.000 A 
ATOM      7  C   UNL     1      -1.474   7.586  -4.688  0.00  0.00    +0.000 A 
ATOM      8  C   UNL     1      -0.337   6.789  -4.736  0.00  0.00    +0.003 A 
ENDBRANCH   1   3
BRANCH   1   9
ATOM      9  C   UNL     1       1.324   5.411  -7.725  0.00  0.00    +0.120 C 
ATOM     10  C   UNL     1       1.744   6.985  -7.490  0.00  0.00    +0.026 C 
BRANCH   9  11
ATOM     11  N   UNL     1       2.812   4.922  -7.611  0.00  0.00    -0.268 NA
BRANCH  11  13
ATOM     12  C   UNL     1       3.929   4.307  -9.090  0.00  0.00    +0.019 C 
ATOM     13  C   UNL     1       3.188   4.495  -8.957  0.00  0.00    +0.072 C 
ENDBRANCH  11  13
BRANCH  11  14
ATOM     14  C   UNL     1       3.649   5.976  -7.229  0.00  0.00    +0.072 C 
ATOM     15  C   UNL     1       4.487   5.664  -6.047  0.00  0.00    +0.019 C 
ENDBRANCH  11  14
ENDBRANCH   9  11
ENDBRANCH   1   9
TORSDOF 5
ENDMDL
MODEL 8
REMARK VINA RESULT:      -5.6      1.569      2.345
REMARK  Name = 
REMARK  5 active torsions:
REMARK  status: ('A' for Active; 'I' for Inactive)
REMARK    1  A    between atoms: C_2  and  N_3
REMARK    2  A    between atoms: N_3  and  C_4
REMARK    3  A    between atoms: N_3  and  C_6
REMARK    4  A    between atoms: C_6  and  C_8
REMARK    5  A    between atoms: C_8  and  C_10
REMARK                            x       y       z     vdW  Elec       q    Type
REMARK                         _______ _______ _______ _____ _____    ______ ____
ROOT
ATOM      1  C   UNL     1       3.590   6.355  -9.027  0.00  0.00    +0.187 C 
ATOM      2  O   UNL     1       3.061   7.390  -8.533  0.00  0.00    -0.290 OA
ENDROOT
BRANCH   1   3
ATOM      3  C   UNL     1       4.873   6.521  -9.685  0.00  0.00    +0.036 A 
ATOM      4  C   UNL     1       5.933   5.730  -9.258  0.00  0.00    +0.003 A 
ATOM      5  C   UNL     1       7.207   5.853  -9.736  0.00  0.00    +0.000 A 
ATOM      6  C   UNL     1       7.454   6.841 -10.665  0.00  0.00    +0.000 A 
ATOM      7  C   UNL     1       6.385   7.591 -11.140  0.00  0.00    +0.000 A 
ATOM      8  C   UNL     1       5.072   7.277 -10.812  0.00  0.00    +0.003 A 
ENDBRANCH   1   3
BRANCH   1   9
ATOM      9  C   UNL     1       2.533   5.544  -9.942  0.00  0.00    +0.120 C 
ATOM     10  C   UNL     1       2.641   4.213  -8.980  0.00  0.00    +0.026 C 
BRANCH   9  11
ATOM     11  N   UNL     1       1.256   6.070  -9.193  0.00  0.00    -0.268 NA
BRANCH  11  13
ATOM     12  C   UNL     1       0.471   6.699 -10.867  0.00  0.00    +0.019 C 
ATOM     13  C   UNL     1       0.259   6.300 -10.235  0.00  0.00    +0.072 C 
ENDBRANCH  11  13
BRANCH  11  14
ATOM     14  C   UNL     1       0.766   5.097  -8.315  0.00  0.00    +0.072 C 
ATOM     15  C   UNL     1      -0.409   5.549  -7.532  0.00  0.00    +0.019 C 
ENDBRANCH  11  14
ENDBRANCH   9  11
ENDBRANCH   1   9
TORSDOF 5
ENDMDL
MODEL 9
REMARK VINA RESULT:      -5.3      4.205      7.032
REMARK  Name = 
REMARK  5 active torsions:
REMARK  status: ('A' for Active; 'I' for Inactive)
REMARK    1  A    between atoms: C_2  and  N_3
REMARK    2  A    between atoms: N_3  and  C_4
REMARK    3  A    between atoms: N_3  and  C_6
REMARK    4  A    between atoms: C_6  and  C_8
REMARK    5  A    between atoms: C_8  and  C_10
REMARK                            x       y       z     vdW  Elec       q    Type
REMARK                         _______ _______ _______ _____ _____    ______ ____
ROOT
ATOM      1  C   UNL     1       0.702   5.396  -4.521  0.00  0.00    +0.187 C 
ATOM      2  O   UNL     1       1.292   4.546  -5.244  0.00  0.00    -0.290 OA
ENDROOT
BRANCH   1   3
ATOM      3  C   UNL     1      -0.543   5.942  -5.029  0.00  0.00    +0.036 A 
ATOM      4  C   UNL     1      -1.006   7.132  -4.480  0.00  0.00    +0.003 A 
ATOM      5  C   UNL     1      -2.205   7.699  -4.809  0.00  0.00    +0.000 A 
ATOM      6  C   UNL     1      -3.008   7.031  -5.709  0.00  0.00    +0.000 A 
ATOM      7  C   UNL     1      -2.521   5.875  -6.306  0.00  0.00    +0.000 A 
ATOM      8  C   UNL     1      -1.206   5.462  -6.130  0.00  0.00    +0.003 A 
ENDBRANCH   1   3
BRANCH   1   9
ATOM      9  C   UNL     1       1.723   6.550  -4.033  0.00  0.00    +0.120 C 
ATOM     10  C   UNL     1       1.968   5.797  -2.590  0.00  0.00    +0.026 C 
BRANCH   9  11
ATOM     11  N   UNL     1       3.000   5.898  -4.672  0.00  0.00    -0.268 NA
BRANCH  11  13
ATOM     12  C   UNL     1       3.297   7.116  -6.169  0.00  0.00    +0.019 C 
ATOM     13  C   UNL     1       3.613   6.949  -5.480  0.00  0.00    +0.072 C 
ENDBRANCH  11  13
BRANCH  11  14
ATOM     14  C   UNL     1       3.907   5.514  -3.678  0.00  0.00    +0.072 C 
ATOM     15  C   UNL     1       5.019   4.676  -4.186  0.00  0.00    +0.019 C 
ENDBRANCH  11  14
ENDBRANCH   9  11
ENDBRANCH   1   9
TORSDOF 5
ENDMDL
