MODEL 1
REMARK VINA RESULT:      -8.9      0.000      0.000
REMARK  Name = 
REMARK  5 active torsions:
REMARK  status: ('A' for Active; 'I' for Inactive)
REMARK    1  A    between atoms: C_7  and  O_8
REMARK    2  A    between atoms: O_8  and  C_9
REMARK    3  A    between atoms: C_9  and  C_11
REMARK    4  A    between atoms: C_11  and  C_13
REMARK    5  A    between atoms: C_11  and  C_19
REMARK                            x       y       z     vdW  Elec       q    Type
REMARK                         _______ _______ _______ _____ _____    ______ ____
ROOT
ATOM      1  C   UNL     1       1.768   5.736  -6.720  0.00  0.00    +0.252 C 
ATOM      2  O   UNL     1       1.886   4.411  -7.125  0.00  0.00    -0.205 OA
ENDROOT
BRANCH   1   3
ATOM      3  C   UNL     1       0.372   5.986  -6.315  0.00  0.00    +0.019 A 
ATOM      4  C   UNL     1       0.174   6.735  -5.162  0.00  0.00    -0.001 A 
ATOM      5  C   UNL     1      -1.058   7.330  -4.920  0.00  0.00    -0.000 A 
ATOM      6  C   UNL     1      -2.120   6.800  -5.641  0.00  0.00    -0.000 A 
ATOM      7  C   UNL     1      -1.964   5.663  -6.412  0.00  0.00    -0.000 A 
ATOM      8  C   UNL     1      -0.700   5.238  -6.746  0.00  0.00    -0.001 A 
ENDBRANCH   1   3
BRANCH   1   9
ATOM      9  C   UNL     1       2.701   5.930  -5.572  0.00  0.00    +0.019 A 
ATOM     10  C   UNL     1       3.208   4.768  -5.005  0.00  0.00    -0.001 A 
ATOM     11  C   UNL     1       4.263   4.801  -4.110  0.00  0.00    -0.000 A 
ATOM     12  C   UNL     1       5.011   5.954  -4.037  0.00  0.00    -0.000 A 
ATOM     13  C   UNL     1       4.685   7.033  -4.837  0.00  0.00    -0.000 A 
ATOM     14  C   UNL     1       3.491   7.053  -5.546  0.00  0.00    -0.001 A 
ENDBRANCH   1   9
BRANCH   1  15
ATOM     15  C   UNL     1       2.186   6.567  -7.885  0.00  0.00    +0.353 C 
ATOM     16  O   UNL     1       1.358   7.458  -8.253  0.00  0.00    -0.247 OA
BRANCH  15  17
ATOM     17  O   UNL     1       2.708   5.853  -8.973  0.00  0.00    -0.444 OA
BRANCH  17  21
ATOM     18  C   UNL     1       5.424   5.509 -11.269  0.00  0.00    +0.171 C 
ATOM     19  N   UNL     1       5.396   5.520 -11.242  0.00  0.00    +0.309 N 
ATOM     20  C   UNL     1       4.059   5.377 -10.778  0.00  0.00    +0.153 C 
ATOM     21  C   UNL     1       4.034   6.427  -9.509  0.00  0.00    +0.224 C 
ATOM     22  C   UNL     1       4.917   5.406  -8.568  0.00  0.00    +0.056 C 
ATOM     23  C   UNL     1       6.341   5.569  -9.060  0.00  0.00    +0.065 C 
ATOM     24  C   UNL     1       6.300   6.241 -10.414  0.00  0.00    +0.109 C 
ATOM     25  C   UNL     1       5.600   5.573 -12.652  0.00  0.00    +0.171 C 
ENDBRANCH  17  21
ENDBRANCH  15  17
ENDBRANCH   1  15
TORSDOF 5
ENDMDL
MODEL 2
REMARK VINA RESULT:      -8.5      2.682      7.065
REMARK  Name = 
REMARK  5 active torsions:
REMARK  status: ('A' for Active; 'I' for Inactive)
REMARK    1  A    between atoms: C_7  and  O_8
REMARK    2  A    between atoms: O_8  and  C_9
REMARK    3  A    between atoms: C_9  and  C_11
REMARK    4  A    between atoms: C_11  and  C_13
REMARK    5  A    between atoms: C_11  and  C_19
REMARK                            x       y       z     vdW  Elec       q    Type
REMARK                         _______ _______ _______ _____ _____    ______ ____
ROOT
ATOM      1  C   UNL     1       3.045   5.411  -8.833  0.00  0.00    +0.252 C 
ATOM      2  O   UNL     1       3.049   4.063  -8.492  0.00  0.00    -0.205 OA
ENDROOT
BRANCH   1   3
ATOM      3  C   UNL     1       4.386   5.780  -9.324  0.00  0.00    +0.019 A 
ATOM      4  C   UNL     1       4.449   6.479 -10.523  0.00  0.00    -0.001 A 
ATOM      5  C   UNL     1       5.598   7.184 -10.860  0.00  0.00    -0.000 A 
ATOM      6  C   UNL     1       6.743   6.809 -10.170  0.00  0.00    -0.000 A 
ATOM      7  C   UNL     1       6.745   5.707  -9.333  0.00  0.00    -0.000 A 
ATOM      8  C   UNL     1       5.551   5.174  -8.912  0.00  0.00    -0.001 A 
ENDBRANCH   1   3
BRANCH   1   9
ATOM      9  C   UNL     1       2.017   5.592  -9.899  0.00  0.00    +0.019 A 
ATOM     10  C   UNL     1       1.335   4.443 -10.279  0.00  0.00    -0.001 A 
ATOM     11  C   UNL     1       0.198   4.504 -11.065  0.00  0.00    -0.000 A 
ATOM     12  C   UNL     1      -0.433   5.721 -11.194  0.00  0.00    -0.000 A 
ATOM     13  C   UNL     1       0.088   6.832 -10.555  0.00  0.00    -0.000 A 
ATOM     14  C   UNL     1       1.348   6.788  -9.973  0.00  0.00    -0.001 A 
ENDBRANCH   1   9
BRANCH   1  15
ATOM     15  C   UNL     1       2.660   6.152  -7.599  0.00  0.00    +0.353 C 
ATOM     16  O   UNL     1       3.598   6.783  -7.019  0.00  0.00    -0.247 OA
BRANCH  15  17
ATOM     17  O   UNL     1       1.871   5.432  -6.690  0.00  0.00    -0.444 OA
BRANCH  17  21
ATOM     18  C   UNL     1      -0.845   5.605  -4.375  0.00  0.00    +0.171 C 
ATOM     19  N   UNL     1      -0.816   5.610  -4.403  0.00  0.00    +0.309 N 
ATOM     20  C   UNL     1       0.488   5.267  -4.854  0.00  0.00    +0.153 C 
ATOM     21  C   UNL     1       0.632   6.207  -6.200  0.00  0.00    +0.224 C 
ATOM     22  C   UNL     1      -0.380   5.235  -7.060  0.00  0.00    +0.056 C 
ATOM     23  C   UNL     1      -1.767   5.612  -6.582  0.00  0.00    +0.065 C 
ATOM     24  C   UNL     1      -1.630   6.374  -5.284  0.00  0.00    +0.109 C 
ATOM     25  C   UNL     1      -0.999   5.796  -3.001  0.00  0.00    +0.171 C 
ENDBRANCH  17  21
ENDBRANCH  15  17
ENDBRANCH   1  15
TORSDOF 5
ENDMDL
MODEL 3
REMARK VINA RESULT:      -8.4      0.991      4.186
REMARK  Name = 
REMARK  5 active torsions:
REMARK  status: ('A' for Active; 'I' for Inactive)
REMARK    1  A    between atoms: C_7  and  O_8
REMARK    2  A    between atoms: O_8  and  C_9
REMARK    3  A    between atoms: C_9  and  C_11
REMARK    4  A    between atoms: C_11  and  C_13
REMARK    5  A    between atoms: C_11  and  C_19
REMARK                            x       y       z     vdW  Elec       q    Type
REMARK                         _______ _______ _______ _____ _____    ______ ____
ROOT
ATOM      1  C   UNL     1       1.766   6.271  -6.820  0.00  0.00    +0.252 C 
ATOM      2  O   UNL     1       1.774   7.580  -7.290  0.00  0.00    -0.205 OA
ENDROOT
BRANCH   1   3
ATOM      3  C   UNL     1       2.848   6.115  -5.831  0.00  0.00    +0.019 A 
ATOM      4  C   UNL     1       2.704   5.103  -4.891  0.00  0.00    -0.001 A 
ATOM      5  C   UNL     1       3.808   4.644  -4.185  0.00  0.00    -0.000 A 
ATOM      6  C   UNL     1       4.900   5.502  -4.176  0.00  0.00    -0.000 A 
ATOM      7  C   UNL     1       4.811   6.779  -4.700  0.00  0.00    -0.000 A 
ATOM      8  C   UNL     1       3.764   7.099  -5.531  0.00  0.00    -0.001 A 
ENDBRANCH   1   3
BRANCH   1   9
ATOM      9  C   UNL     1       0.432   6.038  -6.194  0.00  0.00    +0.019 A 
ATOM     10  C   UNL     1      -0.049   7.070  -5.397  0.00  0.00    -0.001 A 
ATOM     11  C   UNL     1      -1.362   7.096  -4.963  0.00  0.00    -0.000 A 
ATOM     12  C   UNL     1      -2.266   6.268  -5.590  0.00  0.00    -0.000 A 
ATOM     13  C   UNL     1      -1.840   5.438  -6.611  0.00  0.00    -0.000 A 
ATOM     14  C   UNL     1      -0.485   5.265  -6.862  0.00  0.00    -0.001 A 
ENDBRANCH   1   9
BRANCH   1  15
ATOM     15  C   UNL     1       1.947   5.398  -8.014  0.00  0.00    +0.353 C 
ATOM     16  O   UNL     1       2.801   4.466  -7.891  0.00  0.00    -0.247 OA
BRANCH  15  17
ATOM     17  O   UNL     1       2.079   6.075  -9.236  0.00  0.00    -0.444 OA
BRANCH  17  21
ATOM     18  C   UNL     1       5.028   6.787 -11.123  0.00  0.00    +0.171 C 
ATOM     19  N   UNL     1       4.996   6.772 -11.103  0.00  0.00    +0.309 N 
ATOM     20  C   UNL     1       4.044   6.950 -10.062  0.00  0.00    +0.153 C 
ATOM     21  C   UNL     1       3.214   5.528 -10.124  0.00  0.00    +0.224 C 
ATOM     22  C   UNL     1       2.427   5.978 -11.497  0.00  0.00    +0.056 C 
ATOM     23  C   UNL     1       3.443   5.776 -12.603  0.00  0.00    +0.065 C 
ATOM     24  C   UNL     1       4.812   5.662 -11.972  0.00  0.00    +0.109 C 
ATOM     25  C   UNL     1       6.332   7.204 -10.852  0.00  0.00    +0.171 C 
ENDBRANCH  17  21
ENDBRANCH  15  17
ENDBRANCH   1  15
TORSDOF 5
ENDMDL
MODEL 4
REMARK VINA RESULT:      -8.3      1.862      4.628
REMARK  Name = 
REMARK  5 active torsions:
REMARK  status: ('A' for Active; 'I' for Inactive)
REMARK    1  A    between atoms: C_7  and  O_8
REMARK    2  A    between atoms: O_8  and  C_9
REMARK    3  A    between atoms: C_9  and  C_11
REMARK    4  A    between atoms: C_11  and  C_13
REMARK    5  A    between atoms: C_11  and  C_19
REMARK                            x       y       z     vdW  Elec       q    Type
REMARK                         _______ _______ _______ _____ _____    ______ ____
ROOT
ATOM      1  C   UNL     1       1.773   6.272  -6.642  0.00  0.00    +0.252 C 
ATOM      2  O   UNL     1       1.794   7.549  -7.191  0.00  0.00    -0.205 OA
ENDROOT
BRANCH   1   3
ATOM      3  C   UNL     1       2.824   6.181  -5.612  0.00  0.00    +0.019 A 
ATOM      4  C   UNL     1       2.588   5.327  -4.543  0.00  0.00    -0.001 A 
ATOM      5  C   UNL     1       3.643   4.894  -3.749  0.00  0.00    -0.000 A 
ATOM      6  C   UNL     1       4.797   5.663  -3.832  0.00  0.00    -0.000 A 
ATOM      7  C   UNL     1       4.813   6.854  -4.535  0.00  0.00    -0.000 A 
ATOM      8  C   UNL     1       3.807   7.128  -5.430  0.00  0.00    -0.001 A 
ENDBRANCH   1   3
BRANCH   1   9
ATOM      9  C   UNL     1       0.421   6.073  -6.044  0.00  0.00    +0.019 A 
ATOM     10  C   UNL     1      -0.069   7.136  -5.295  0.00  0.00    -0.001 A 
ATOM     11  C   UNL     1      -1.393   7.190  -4.896  0.00  0.00    -0.000 A 
ATOM     12  C   UNL     1      -2.290   6.351  -5.520  0.00  0.00    -0.000 A 
ATOM     13  C   UNL     1      -1.846   5.484  -6.501  0.00  0.00    -0.000 A 
ATOM     14  C   UNL     1      -0.487   5.288  -6.711  0.00  0.00    -0.001 A 
ENDBRANCH   1   9
BRANCH   1  15
ATOM     15  C   UNL     1       1.992   5.328  -7.774  0.00  0.00    +0.353 C 
ATOM     16  O   UNL     1       2.680   4.294  -7.505  0.00  0.00    -0.247 OA
BRANCH  15  17
ATOM     17  O   UNL     1       2.387   5.922  -8.981  0.00  0.00    -0.444 OA
BRANCH  17  21
ATOM     18  C   UNL     1       1.988   5.987 -12.531  0.00  0.00    +0.171 C 
ATOM     19  N   UNL     1       1.989   5.979 -12.491  0.00  0.00    +0.309 N 
ATOM     20  C   UNL     1       2.668   6.164 -11.255  0.00  0.00    +0.153 C 
ATOM     21  C   UNL     1       1.720   5.299 -10.223  0.00  0.00    +0.224 C 
ATOM     22  C   UNL     1       0.547   6.453 -10.237  0.00  0.00    +0.056 C 
ATOM     23  C   UNL     1      -0.178   6.243 -11.550  0.00  0.00    +0.065 C 
ATOM     24  C   UNL     1       0.695   5.392 -12.443  0.00  0.00    +0.109 C 
ATOM     25  C   UNL     1       2.786   5.735 -13.648  0.00  0.00    +0.171 C 
ENDBRANCH  17  21
ENDBRANCH  15  17
ENDBRANCH   1  15
TORSDOF 5
ENDMDL
MODEL 5
REMARK VINA RESULT:      -8.2      2.161      6.294
REMARK  Name = 
REMARK  5 active torsions:
REMARK  status: ('A' for Active; 'I' for Inactive)
REMARK    1  A    between atoms: C_7  and  O_8
REMARK    2  A    between atoms: O_8  and  C_9
REMARK    3  A    between atoms: C_9  and  C_11
REMARK    4  A    between atoms: C_11  and  C_13
REMARK    5  A    between atoms: C_11  and  C_19
REMARK                            x       y       z     vdW  Elec       q    Type
REMARK                         _______ _______ _______ _____ _____    ______ ____
ROOT
ATOM      1  C   UNL     1       3.315   5.657  -7.562  0.00  0.00    +0.252 C 
ATOM      2  O   UNL     1       3.187   4.286  -7.754  0.00  0.00    -0.205 OA
ENDROOT
BRANCH   1   3
ATOM      3  C   UNL     1       3.819   5.901  -6.197  0.00  0.00    +0.019 A 
ATOM      4  C   UNL     1       3.785   4.832  -5.311  0.00  0.00    -0.001 A 
ATOM      5  C   UNL     1       4.565   4.852  -4.162  0.00  0.00    -0.000 A 
ATOM      6  C   UNL     1       5.012   6.110  -3.776  0.00  0.00    -0.000 A 
ATOM      7  C   UNL     1       4.566   7.254  -4.413  0.00  0.00    -0.000 A 
ATOM      8  C   UNL     1       3.948   7.151  -5.636  0.00  0.00    -0.001 A 
ENDBRANCH   1   3
BRANCH   1   9
ATOM      9  C   UNL     1       4.281   6.156  -8.584  0.00  0.00    +0.019 A 
ATOM     10  C   UNL     1       5.525   5.538  -8.589  0.00  0.00    -0.001 A 
ATOM     11  C   UNL     1       6.419   5.721  -9.629  0.00  0.00    -0.000 A 
ATOM     12  C   UNL     1       5.941   6.256 -10.805  0.00  0.00    -0.000 A 
ATOM     13  C   UNL     1       4.605   6.600 -10.906  0.00  0.00    -0.000 A 
ATOM     14  C   UNL     1       3.793   6.624  -9.779  0.00  0.00    -0.001 A 
ENDBRANCH   1   9
BRANCH   1  15
ATOM     15  C   UNL     1       1.962   6.239  -7.788  0.00  0.00    +0.353 C 
ATOM     16  O   UNL     1       1.829   7.464  -7.479  0.00  0.00    -0.247 OA
BRANCH  15  17
ATOM     17  O   UNL     1       0.891   5.460  -7.323  0.00  0.00    -0.444 OA
BRANCH  17  21
ATOM     18  C   UNL     1      -0.853   5.522  -4.206  0.00  0.00    +0.171 C 
ATOM     19  N   UNL     1      -0.835   5.529  -4.241  0.00  0.00    +0.309 N 
ATOM     20  C   UNL     1       0.217   5.191  -5.136  0.00  0.00    +0.153 C 
ATOM     21  C   UNL     1      -0.066   6.224  -6.388  0.00  0.00    +0.224 C 
ATOM     22  C   UNL     1      -1.356   5.342  -6.903  0.00  0.00    +0.056 C 
ATOM     23  C   UNL     1      -2.476   5.714  -5.952  0.00  0.00    +0.065 C 
ATOM     24  C   UNL     1      -1.866   6.374  -4.737  0.00  0.00    +0.109 C 
ATOM     25  C   UNL     1      -0.515   5.614  -2.854  0.00  0.00    +0.171 C 
ENDBRANCH  17  21
ENDBRANCH  15  17
ENDBRANCH   1  15
TORSDOF 5
ENDMDL
MODEL 6
REMARK VINA RESULT:      -8.2      2.620      5.888
REMARK  Name = 
REMARK  5 active torsions:
REMARK  status: ('A' for Active; 'I' for Inactive)
REMARK    1  A    between atoms: C_7  and  O_8
REMARK    2  A    between atoms: O_8  and  C_9
REMARK    3  A    between atoms: C_9  and  C_11
REMARK    4  A    between atoms: C_11  and  C_13
REMARK    5  A    between atoms: C_11  and  C_19
REMARK                            x       y       z     vdW  Elec       q    Type
REMARK                         _______ _______ _______ _____ _____    ______ ____
ROOT
ATOM      1  C   UNL     1       3.272   6.274  -9.350  0.00  0.00    +0.252 C 
ATOM      2  O   UNL     1       3.167   7.477  -8.661  0.00  0.00    -0.205 OA
ENDROOT
BRANCH   1   3
ATOM      3  C   UNL     1       2.235   6.234 -10.397  0.00  0.00    +0.019 A 
ATOM      4  C   UNL     1       0.958   6.646 -10.038  0.00  0.00    -0.001 A 
ATOM      5  C   UNL     1       0.037   6.999 -11.016  0.00  0.00    -0.000 A 
ATOM      6  C   UNL     1       0.323   6.529 -12.291  0.00  0.00    -0.000 A 
ATOM      7  C   UNL     1       1.364   5.646 -12.511  0.00  0.00    -0.000 A 
ATOM      8  C   UNL     1       2.330   5.483 -11.547  0.00  0.00    -0.001 A 
ENDBRANCH   1   3
BRANCH   1   9
ATOM      9  C   UNL     1       4.638   6.229  -9.949  0.00  0.00    +0.019 A 
ATOM     10  C   UNL     1       5.009   7.346 -10.688  0.00  0.00    -0.001 A 
ATOM     11  C   UNL     1       6.319   7.547 -11.085  0.00  0.00    -0.000 A 
ATOM     12  C   UNL     1       7.302   6.805 -10.469  0.00  0.00    -0.000 A 
ATOM     13  C   UNL     1       6.955   5.886  -9.496  0.00  0.00    -0.000 A 
ATOM     14  C   UNL     1       5.626   5.541  -9.289  0.00  0.00    -0.001 A 
ENDBRANCH   1   9
BRANCH   1  15
ATOM     15  C   UNL     1       3.106   5.196  -8.335  0.00  0.00    +0.353 C 
ATOM     16  O   UNL     1       2.721   4.071  -8.782  0.00  0.00    -0.247 OA
BRANCH  15  17
ATOM     17  O   UNL     1       2.409   5.567  -7.176  0.00  0.00    -0.444 OA
BRANCH  17  21
ATOM     18  C   UNL     1       2.677   5.626  -3.613  0.00  0.00    +0.171 C 
ATOM     19  N   UNL     1       2.676   5.619  -3.653  0.00  0.00    +0.309 N 
ATOM     20  C   UNL     1       2.087   5.895  -4.918  0.00  0.00    +0.153 C 
ATOM     21  C   UNL     1       2.912   4.862  -5.901  0.00  0.00    +0.224 C 
ATOM     22  C   UNL     1       4.264   5.799  -5.852  0.00  0.00    +0.056 C 
ATOM     23  C   UNL     1       4.891   5.493  -4.508  0.00  0.00    +0.065 C 
ATOM     24  C   UNL     1       3.852   4.819  -3.642  0.00  0.00    +0.109 C 
ATOM     25  C   UNL     1       1.805   5.534  -2.527  0.00  0.00    +0.171 C 
ENDBRANCH  17  21
ENDBRANCH  15  17
ENDBRANCH   1  15
TORSDOF 5
ENDMDL
MODEL 7
REMARK VINA RESULT:      -8.1      2.498      6.436
REMARK  Name = 
REMARK  5 active torsions:
REMARK  status: ('A' for Active; 'I' for Inactive)
REMARK    1  A    between atoms: C_7  and  O_8
REMARK    2  A    between atoms: O_8  and  C_9
REMARK    3  A    between atoms: C_9  and  C_11
REMARK    4  A    between atoms: C_11  and  C_13
REMARK    5  A    between atoms: C_11  and  C_19
REMARK                            x       y       z     vdW  Elec       q    Type
REMARK                         _______ _______ _______ _____ _____    ______ ____
ROOT
ATOM      1  C   UNL     1       3.309   6.327  -6.788  0.00  0.00    +0.252 C 
ATOM      2  O   UNL     1       2.738   7.594  -6.815  0.00  0.00    -0.205 OA
ENDROOT
BRANCH   1   3
ATOM      3  C   UNL     1       4.125   6.148  -8.003  0.00  0.00    +0.019 A 
ATOM      4  C   UNL     1       3.600   6.632  -9.194  0.00  0.00    -0.001 A 
ATOM      5  C   UNL     1       4.430   6.850 -10.286  0.00  0.00    -0.000 A 
ATOM      6  C   UNL     1       5.650   6.187 -10.239  0.00  0.00    -0.000 A 
ATOM      7  C   UNL     1       5.924   5.263  -9.248  0.00  0.00    -0.000 A 
ATOM      8  C   UNL     1       5.145   5.230  -8.117  0.00  0.00    -0.001 A 
ENDBRANCH   1   3
BRANCH   1   9
ATOM      9  C   UNL     1       4.154   6.251  -5.561  0.00  0.00    +0.019 A 
ATOM     10  C   UNL     1       4.375   7.456  -4.907  0.00  0.00    -0.001 A 
ATOM     11  C   UNL     1       4.922   7.500  -3.637  0.00  0.00    -0.000 A 
ATOM     12  C   UNL     1       4.943   6.335  -2.903  0.00  0.00    -0.000 A 
ATOM     13  C   UNL     1       4.436   5.171  -3.452  0.00  0.00    -0.000 A 
ATOM     14  C   UNL     1       4.114   5.108  -4.802  0.00  0.00    -0.001 A 
ENDBRANCH   1   9
BRANCH   1  15
ATOM     15  C   UNL     1       2.177   5.360  -6.709  0.00  0.00    +0.353 C 
ATOM     16  O   UNL     1       2.017   4.612  -7.723  0.00  0.00    -0.247 OA
BRANCH  15  17
ATOM     17  O   UNL     1       0.963   5.897  -6.255  0.00  0.00    -0.444 OA
BRANCH  17  21
ATOM     18  C   UNL     1      -1.677   5.648  -3.860  0.00  0.00    +0.171 C 
ATOM     19  N   UNL     1      -1.645   5.645  -3.884  0.00  0.00    +0.309 N 
ATOM     20  C   UNL     1      -1.066   5.871  -5.164  0.00  0.00    +0.153 C 
ATOM     21  C   UNL     1       0.441   5.236  -4.964  0.00  0.00    +0.224 C 
ATOM     22  C   UNL     1       0.925   6.516  -4.051  0.00  0.00    +0.056 C 
ATOM     23  C   UNL     1       0.314   6.264  -2.687  0.00  0.00    +0.065 C 
ATOM     24  C   UNL     1      -0.774   5.227  -2.840  0.00  0.00    +0.109 C 
ATOM     25  C   UNL     1      -2.996   5.190  -3.845  0.00  0.00    +0.171 C 
ENDBRANCH  17  21
ENDBRANCH  15  17
ENDBRANCH   1  15
TORSDOF 5
ENDMDL
MODEL 8
REMARK VINA RESULT:      -7.8      4.415      7.593
REMARK  Name = 
REMARK  5 active torsions:
REMARK  status: ('A' for Active; 'I' for Inactive)
REMARK    1  A    between atoms: C_7  and  O_8
REMARK    2  A    between atoms: O_8  and  C_9
REMARK    3  A    between atoms: C_9  and  C_11
REMARK    4  A    between atoms: C_11  and  C_13
REMARK    5  A    between atoms: C_11  and  C_19
REMARK                            x       y       z     vdW  Elec       q    Type
REMARK                         _______ _______ _______ _____ _____    ______ ____
ROOT
ATOM      1  C   UNL     1       2.707   5.671  -1.467  0.00  0.00    +0.252 C 
ATOM      2  O   UNL     1       3.233   4.428  -1.133  0.00  0.00    -0.205 OA
ENDROOT
BRANCH   1   3
ATOM      3  C   UNL     1       3.191   6.668  -0.495  0.00  0.00    +0.019 A 
ATOM      4  C   UNL     1       4.459   6.469   0.035  0.00  0.00    -0.001 A 
ATOM      5  C   UNL     1       5.135   7.520   0.642  0.00  0.00    -0.000 A 
ATOM      6  C   UNL     1       4.335   8.586   1.035  0.00  0.00    -0.000 A 
ATOM      7  C   UNL     1       2.957   8.510   0.962  0.00  0.00    -0.000 A 
ATOM      8  C   UNL     1       2.371   7.530   0.197  0.00  0.00    -0.001 A 
ENDBRANCH   1   3
BRANCH   1   9
ATOM      9  C   UNL     1       3.180   5.993  -2.845  0.00  0.00    +0.019 A 
ATOM     10  C   UNL     1       3.665   7.282  -3.029  0.00  0.00    -0.001 A 
ATOM     11  C   UNL     1       4.359   7.636  -4.172  0.00  0.00    -0.000 A 
ATOM     12  C   UNL     1       4.845   6.626  -4.972  0.00  0.00    -0.000 A 
ATOM     13  C   UNL     1       4.618   5.307  -4.622  0.00  0.00    -0.000 A 
ATOM     14  C   UNL     1       3.725   4.989  -3.607  0.00  0.00    -0.001 A 
ENDBRANCH   1   9
BRANCH   1  15
ATOM     15  C   UNL     1       1.224   5.517  -1.442  0.00  0.00    +0.353 C 
ATOM     16  O   UNL     1       0.795   4.341  -1.227  0.00  0.00    -0.247 OA
BRANCH  15  17
ATOM     17  O   UNL     1       0.540   6.142  -2.496  0.00  0.00    -0.444 OA
BRANCH  17  21
ATOM     18  C   UNL     1      -2.202   5.928  -4.776  0.00  0.00    +0.171 C 
ATOM     19  N   UNL     1      -2.173   5.924  -4.747  0.00  0.00    +0.309 N 
ATOM     20  C   UNL     1      -0.835   6.186  -4.344  0.00  0.00    +0.153 C 
ATOM     21  C   UNL     1      -0.780   5.443  -2.874  0.00  0.00    +0.224 C 
ATOM     22  C   UNL     1      -1.672   6.634  -2.172  0.00  0.00    +0.056 C 
ATOM     23  C   UNL     1      -3.097   6.343  -2.597  0.00  0.00    +0.065 C 
ATOM     24  C   UNL     1      -3.057   5.390  -3.769  0.00  0.00    +0.109 C 
ATOM     25  C   UNL     1      -2.389   5.556  -6.108  0.00  0.00    +0.171 C 
ENDBRANCH  17  21
ENDBRANCH  15  17
ENDBRANCH   1  15
TORSDOF 5
ENDMDL
MODEL 9
REMARK VINA RESULT:      -7.7      2.949      5.754
REMARK  Name = 
REMARK  5 active torsions:
REMARK  status: ('A' for Active; 'I' for Inactive)
REMARK    1  A    between atoms: C_7  and  O_8
REMARK    2  A    between atoms: O_8  and  C_9
REMARK    3  A    between atoms: C_9  and  C_11
REMARK    4  A    between atoms: C_11  and  C_13
REMARK    5  A    between atoms: C_11  and  C_19
REMARK                            x       y       z     vdW  Elec       q    Type
REMARK                         _______ _______ _______ _____ _____    ______ ____
ROOT
ATOM      1  C   UNL     1       1.241   5.502  -7.377  0.00  0.00    +0.252 C 
ATOM      2  O   UNL     1       1.743   4.225  -7.154  0.00  0.00    -0.205 OA
ENDROOT
BRANCH   1   3
ATOM      3  C   UNL     1       0.879   5.629  -8.801  0.00  0.00    +0.019 A 
ATOM      4  C   UNL     1       1.184   4.556  -9.628  0.00  0.00    -0.001 A 
ATOM      5  C   UNL     1       0.558   4.424 -10.861  0.00  0.00    -0.000 A 
ATOM      6  C   UNL     1      -0.025   5.585 -11.352  0.00  0.00    -0.000 A 
ATOM      7  C   UNL     1       0.159   6.801 -10.719  0.00  0.00    -0.000 A 
ATOM      8  C   UNL     1       0.630   6.829  -9.428  0.00  0.00    -0.001 A 
ENDBRANCH   1   3
BRANCH   1   9
ATOM      9  C   UNL     1       0.041   5.662  -6.504  0.00  0.00    +0.019 A 
ATOM     10  C   UNL     1       0.009   6.815  -5.729  0.00  0.00    -0.001 A 
ATOM     11  C   UNL     1      -1.142   7.211  -5.072  0.00  0.00    -0.000 A 
ATOM     12  C   UNL     1      -2.334   6.636  -5.452  0.00  0.00    -0.000 A 
ATOM     13  C   UNL     1      -2.344   5.684  -6.455  0.00  0.00    -0.000 A 
ATOM     14  C   UNL     1      -1.156   5.141  -6.928  0.00  0.00    -0.001 A 
ENDBRANCH   1   9
BRANCH   1  15
ATOM     15  C   UNL     1       2.317   6.450  -6.971  0.00  0.00    +0.353 C 
ATOM     16  O   UNL     1       2.769   7.199  -7.892  0.00  0.00    -0.247 OA
BRANCH  15  17
ATOM     17  O   UNL     1       3.344   5.892  -6.195  0.00  0.00    -0.444 OA
BRANCH  17  21
ATOM     18  C   UNL     1       4.084   7.201  -2.954  0.00  0.00    +0.171 C 
ATOM     19  N   UNL     1       4.070   7.184  -2.988  0.00  0.00    +0.309 N 
ATOM     20  C   UNL     1       3.951   7.209  -4.405  0.00  0.00    +0.153 C 
ATOM     21  C   UNL     1       3.034   5.870  -4.686  0.00  0.00    +0.224 C 
ATOM     22  C   UNL     1       4.302   4.865  -4.387  0.00  0.00    +0.056 C 
ATOM     23  C   UNL     1       4.416   4.834  -2.877  0.00  0.00    +0.065 C 
ATOM     24  C   UNL     1       3.640   6.005  -2.319  0.00  0.00    +0.109 C 
ATOM     25  C   UNL     1       3.942   8.424  -2.295  0.00  0.00    +0.171 C 
ENDBRANCH  17  21
ENDBRANCH  15  17
ENDBRANCH   1  15
TORSDOF 5
ENDMDL
