MODEL 1
REMARK VINA RESULT:      -8.3      0.000      0.000
REMARK  Name = 
REMARK  4 active torsions:
REMARK  status: ('A' for Active; 'I' for Inactive)
REMARK    1  A    between atoms: CA_6  and  N_7
REMARK    2  A    between atoms: C_8  and  C_10
REMARK    3  A    between atoms: C_10  and  C_11
REMARK    4  A    between atoms: CA_20  and  C_21
REMARK                            x       y       z     vdW  Elec       q    Type
REMARK                         _______ _______ _______ _____ _____    ______ ____
ROOT
ATOM      1  C   UNL     1       4.656   6.147  -3.736  0.00  0.00    +0.013 C 
ATOM      2  C   UNL     1       4.356   6.576  -4.356  0.00  0.00    +0.068 C 
ATOM      3  CA  UNL     1       2.782   6.983  -4.069  0.00  0.00    +0.189 C 
ATOM      4  N   UNL     1       2.277   6.801  -5.547  0.00  0.00    -0.259 N 
ATOM      5  C   UNL     1       2.605   5.351  -5.846  0.00  0.00    +0.153 C 
ATOM      6  CA  UNL     1       1.955   5.793  -7.326  0.00  0.00    +0.200 C 
ATOM      7  C   UNL     1       2.479   7.253  -6.904  0.00  0.00    +0.249 C 
ATOM      8  O   UNL     1       2.161   8.268  -7.532  0.00  0.00    -0.273 OA
ATOM      9  S   UNL     1       4.416   5.944  -5.992  0.00  0.00    -0.118 S 
ATOM     10  C   UNL     1       5.127   7.888  -4.284  0.00  0.00    +0.013 C 
ENDROOT
BRANCH   3  11
ATOM     11  C   UNL     1       2.317   5.500  -3.606  0.00  0.00    +0.383 C 
ATOM     12  OXT UNL     1       0.938   5.396  -3.837  0.00  0.00    -0.244 OA
ATOM     13  O   UNL     1       2.848   5.018  -2.608  0.00  0.00    -0.244 OA
ENDBRANCH   3  11
BRANCH   6  14
ATOM     14  N   UNL     1       3.238   5.434  -8.176  0.00  0.00    -0.195 NA
ATOM     15  C   UNL     1       3.061   5.590  -9.569  0.00  0.00    +0.246 C 
ATOM     16  O   UNL     1       1.895   5.625 -10.066  0.00  0.00    -0.273 OA
BRANCH  15  17
ATOM     17  C   UNL     1       4.110   4.975 -10.444  0.00  0.00    +0.113 C 
BRANCH  17  18
ATOM     18  C   UNL     1       5.281   5.903 -10.522  0.00  0.00    -0.013 A 
ATOM     19  C   UNL     1       5.205   7.118 -11.152  0.00  0.00    -0.004 A 
ATOM     20  C   UNL     1       6.295   7.970 -11.270  0.00  0.00    -0.000 A 
ATOM     21  C   UNL     1       7.491   7.581 -10.681  0.00  0.00    -0.000 A 
ATOM     22  C   UNL     1       7.523   6.435  -9.936  0.00  0.00    -0.000 A 
ATOM     23  C   UNL     1       6.402   5.645  -9.747  0.00  0.00    -0.004 A 
ENDBRANCH  17  18
ENDBRANCH  15  17
ENDBRANCH   6  14
TORSDOF 4
ENDMDL
MODEL 2
REMARK VINA RESULT:      -8.0      4.127      6.617
REMARK  Name = 
REMARK  4 active torsions:
REMARK  status: ('A' for Active; 'I' for Inactive)
REMARK    1  A    between atoms: CA_6  and  N_7
REMARK    2  A    between atoms: C_8  and  C_10
REMARK    3  A    between atoms: C_10  and  C_11
REMARK    4  A    between atoms: CA_20  and  C_21
REMARK                            x       y       z     vdW  Elec       q    Type
REMARK                         _______ _______ _______ _____ _____    ______ ____
ROOT
ATOM      1  C   UNL     1       2.771   6.491  -1.776  0.00  0.00    +0.013 C 
ATOM      2  C   UNL     1       2.708   5.925  -2.354  0.00  0.00    +0.068 C 
ATOM      3  CA  UNL     1       3.991   6.011  -3.389  0.00  0.00    +0.189 C 
ATOM      4  N   UNL     1       3.186   5.692  -4.702  0.00  0.00    -0.259 N 
ATOM      5  C   UNL     1       2.148   6.797  -4.745  0.00  0.00    +0.153 C 
ATOM      6  CA  UNL     1       1.702   5.952  -6.121  0.00  0.00    +0.200 C 
ATOM      7  C   UNL     1       2.338   4.706  -5.330  0.00  0.00    +0.249 C 
ATOM      8  O   UNL     1       2.541   3.618  -5.878  0.00  0.00    -0.273 OA
ATOM      9  S   UNL     1       1.269   5.825  -3.354  0.00  0.00    -0.118 S 
ATOM     10  C   UNL     1       2.896   4.619  -1.593  0.00  0.00    +0.013 C 
ENDROOT
BRANCH   3  11
ATOM     11  C   UNL     1       3.919   7.618  -3.598  0.00  0.00    +0.383 C 
ATOM     12  OXT UNL     1       4.606   7.923  -4.781  0.00  0.00    -0.244 OA
ATOM     13  O   UNL     1       3.995   8.330  -2.599  0.00  0.00    -0.244 OA
ENDBRANCH   3  11
BRANCH   6  14
ATOM     14  N   UNL     1       0.220   5.661  -5.654  0.00  0.00    -0.195 NA
ATOM     15  C   UNL     1      -0.673   5.403  -6.719  0.00  0.00    +0.246 C 
ATOM     16  O   UNL     1      -0.382   5.763  -7.899  0.00  0.00    -0.273 OA
BRANCH  15  17
ATOM     17  C   UNL     1      -2.132   5.433  -6.383  0.00  0.00    +0.113 C 
BRANCH  17  18
ATOM     18  C   UNL     1      -2.304   6.022  -5.018  0.00  0.00    -0.013 A 
ATOM     19  C   UNL     1      -2.115   7.358  -4.775  0.00  0.00    -0.004 A 
ATOM     20  C   UNL     1      -2.229   7.912  -3.506  0.00  0.00    -0.000 A 
ATOM     21  C   UNL     1      -2.594   7.072  -2.461  0.00  0.00    -0.000 A 
ATOM     22  C   UNL     1      -2.916   5.772  -2.735  0.00  0.00    -0.000 A 
ATOM     23  C   UNL     1      -2.891   5.259  -4.021  0.00  0.00    -0.004 A 
ENDBRANCH  17  18
ENDBRANCH  15  17
ENDBRANCH   6  14
TORSDOF 4
ENDMDL
MODEL 3
REMARK VINA RESULT:      -7.6      1.687      2.242
REMARK  Name = 
REMARK  4 active torsions:
REMARK  status: ('A' for Active; 'I' for Inactive)
REMARK    1  A    between atoms: CA_6  and  N_7
REMARK    2  A    between atoms: C_8  and  C_10
REMARK    3  A    between atoms: C_10  and  C_11
REMARK    4  A    between atoms: CA_20  and  C_21
REMARK                            x       y       z     vdW  Elec       q    Type
REMARK                         _______ _______ _______ _____ _____    ______ ____
ROOT
ATOM      1  C   UNL     1       3.001   4.476  -5.510  0.00  0.00    +0.013 C 
ATOM      2  C   UNL     1       3.017   5.206  -5.864  0.00  0.00    +0.068 C 
ATOM      3  CA  UNL     1       1.551   5.950  -5.721  0.00  0.00    +0.189 C 
ATOM      4  N   UNL     1       1.547   6.616  -7.146  0.00  0.00    -0.259 N 
ATOM      5  C   UNL     1       1.666   5.427  -8.080  0.00  0.00    +0.153 C 
ATOM      6  CA  UNL     1       1.651   6.661  -9.213  0.00  0.00    +0.200 C 
ATOM      7  C   UNL     1       2.277   7.517  -8.005  0.00  0.00    +0.249 C 
ATOM      8  O   UNL     1       2.394   8.746  -8.066  0.00  0.00    -0.273 OA
ATOM      9  S   UNL     1       3.499   5.374  -7.542  0.00  0.00    -0.118 S 
ATOM     10  C   UNL     1       3.960   6.009  -4.977  0.00  0.00    +0.013 C 
ENDROOT
BRANCH   3  11
ATOM     11  C   UNL     1       0.676   4.668  -6.191  0.00  0.00    +0.383 C 
ATOM     12  OXT UNL     1      -0.671   5.057  -6.211  0.00  0.00    -0.244 OA
ATOM     13  O   UNL     1       1.027   3.558  -5.797  0.00  0.00    -0.244 OA
ENDBRANCH   3  11
BRANCH   6  14
ATOM     14  N   UNL     1       3.049   6.301  -9.857  0.00  0.00    -0.195 NA
ATOM     15  C   UNL     1       3.033   6.265 -11.270  0.00  0.00    +0.246 C 
ATOM     16  O   UNL     1       1.936   6.144 -11.895  0.00  0.00    -0.273 OA
BRANCH  15  17
ATOM     17  C   UNL     1       4.218   5.631 -11.930  0.00  0.00    +0.113 C 
BRANCH  17  18
ATOM     18  C   UNL     1       5.468   6.185 -11.322  0.00  0.00    -0.013 A 
ATOM     19  C   UNL     1       6.298   5.420 -10.545  0.00  0.00    -0.004 A 
ATOM     20  C   UNL     1       7.438   5.931  -9.938  0.00  0.00    -0.000 A 
ATOM     21  C   UNL     1       7.760   7.261 -10.176  0.00  0.00    -0.000 A 
ATOM     22  C   UNL     1       7.006   7.979 -11.062  0.00  0.00    -0.000 A 
ATOM     23  C   UNL     1       5.928   7.426 -11.734  0.00  0.00    -0.004 A 
ENDBRANCH  17  18
ENDBRANCH  15  17
ENDBRANCH   6  14
TORSDOF 4
ENDMDL
MODEL 4
REMARK VINA RESULT:      -7.4      3.013      7.307
REMARK  Name = 
REMARK  4 active torsions:
REMARK  status: ('A' for Active; 'I' for Inactive)
REMARK    1  A    between atoms: CA_6  and  N_7
REMARK    2  A    between atoms: C_8  and  C_10
REMARK    3  A    between atoms: C_10  and  C_11
REMARK    4  A    between atoms: CA_20  and  C_21
REMARK                            x       y       z     vdW  Elec       q    Type
REMARK                         _______ _______ _______ _____ _____    ______ ____
ROOT
ATOM      1  C   UNL     1       2.035   5.319 -12.344  0.00  0.00    +0.013 C 
ATOM      2  C   UNL     1       2.028   5.844 -11.726  0.00  0.00    +0.068 C 
ATOM      3  CA  UNL     1       3.477   6.629 -11.620  0.00  0.00    +0.189 C 
ATOM      4  N   UNL     1       3.549   6.665 -10.049  0.00  0.00    -0.259 N 
ATOM      5  C   UNL     1       3.493   5.197  -9.669  0.00  0.00    +0.153 C 
ATOM      6  CA  UNL     1       3.553   5.872  -8.137  0.00  0.00    +0.200 C 
ATOM      7  C   UNL     1       2.854   7.121  -8.868  0.00  0.00    +0.249 C 
ATOM      8  O   UNL     1       2.726   8.217  -8.312  0.00  0.00    -0.273 OA
ATOM      9  S   UNL     1       1.634   5.308 -10.102  0.00  0.00    -0.118 S 
ATOM     10  C   UNL     1       1.032   6.905 -12.171  0.00  0.00    +0.013 C 
ENDROOT
BRANCH   3  11
ATOM     11  C   UNL     1       4.390   5.295 -11.746  0.00  0.00    +0.383 C 
ATOM     12  OXT UNL     1       5.561   5.510 -11.005  0.00  0.00    -0.244 OA
ATOM     13  O   UNL     1       4.402   4.707 -12.825  0.00  0.00    -0.244 OA
ENDBRANCH   3  11
BRANCH   6  14
ATOM     14  N   UNL     1       2.195   5.239  -7.632  0.00  0.00    -0.195 NA
ATOM     15  C   UNL     1       1.956   5.429  -6.253  0.00  0.00    +0.246 C 
ATOM     16  O   UNL     1       2.912   5.719  -5.471  0.00  0.00    -0.273 OA
BRANCH  15  17
ATOM     17  C   UNL     1       0.866   4.598  -5.648  0.00  0.00    +0.113 C 
BRANCH  17  18
ATOM     18  C   UNL     1      -0.380   5.421  -5.562  0.00  0.00    -0.013 A 
ATOM     19  C   UNL     1      -0.481   6.501  -4.724  0.00  0.00    -0.004 A 
ATOM     20  C   UNL     1      -1.645   7.249  -4.600  0.00  0.00    -0.000 A 
ATOM     21  C   UNL     1      -2.727   6.902  -5.399  0.00  0.00    -0.000 A 
ATOM     22  C   UNL     1      -2.575   5.914  -6.331  0.00  0.00    -0.000 A 
ATOM     23  C   UNL     1      -1.377   5.243  -6.509  0.00  0.00    -0.004 A 
ENDBRANCH  17  18
ENDBRANCH  15  17
ENDBRANCH   6  14
TORSDOF 4
ENDMDL
MODEL 5
REMARK VINA RESULT:      -7.4      2.183      3.220
REMARK  Name = 
REMARK  4 active torsions:
REMARK  status: ('A' for Active; 'I' for Inactive)
REMARK    1  A    between atoms: CA_6  and  N_7
REMARK    2  A    between atoms: C_8  and  C_10
REMARK    3  A    between atoms: C_10  and  C_11
REMARK    4  A    between atoms: CA_20  and  C_21
REMARK                            x       y       z     vdW  Elec       q    Type
REMARK                         _______ _______ _______ _____ _____    ______ ____
ROOT
ATOM      1  C   UNL     1      -0.171   6.712  -5.818  0.00  0.00    +0.013 C 
ATOM      2  C   UNL     1       0.175   6.152  -6.293  0.00  0.00    +0.068 C 
ATOM      3  CA  UNL     1       0.811   4.933  -5.378  0.00  0.00    +0.189 C 
ATOM      4  N   UNL     1       2.097   4.702  -6.254  0.00  0.00    -0.259 N 
ATOM      5  C   UNL     1       2.778   6.056  -6.227  0.00  0.00    +0.153 C 
ATOM      6  CA  UNL     1       3.850   5.232  -7.217  0.00  0.00    +0.200 C 
ATOM      7  C   UNL     1       2.546   4.367  -7.584  0.00  0.00    +0.249 C 
ATOM      8  O   UNL     1       2.619   3.317  -8.232  0.00  0.00    -0.273 OA
ATOM      9  S   UNL     1       1.415   6.603  -7.449  0.00  0.00    -0.118 S 
ATOM     10  C   UNL     1      -1.006   5.528  -7.024  0.00  0.00    +0.013 C 
ENDROOT
BRANCH   3  11
ATOM     11  C   UNL     1       1.565   5.905  -4.321  0.00  0.00    +0.383 C 
ATOM     12  OXT UNL     1       2.680   5.212  -3.828  0.00  0.00    -0.244 OA
ATOM     13  O   UNL     1       0.871   6.617  -3.600  0.00  0.00    -0.244 OA
ENDBRANCH   3  11
BRANCH   6  14
ATOM     14  N   UNL     1       3.709   6.211  -8.450  0.00  0.00    -0.195 NA
ATOM     15  C   UNL     1       4.625   5.948  -9.494  0.00  0.00    +0.246 C 
ATOM     16  O   UNL     1       5.673   5.270  -9.271  0.00  0.00    -0.273 OA
BRANCH  15  17
ATOM     17  C   UNL     1       4.763   7.012 -10.539  0.00  0.00    +0.113 C 
BRANCH  17  18
ATOM     18  C   UNL     1       5.782   6.576 -11.544  0.00  0.00    -0.013 A 
ATOM     19  C   UNL     1       5.429   5.964 -12.718  0.00  0.00    -0.004 A 
ATOM     20  C   UNL     1       6.364   5.514 -13.641  0.00  0.00    -0.000 A 
ATOM     21  C   UNL     1       7.707   5.743 -13.368  0.00  0.00    -0.000 A 
ATOM     22  C   UNL     1       8.045   6.476 -12.265  0.00  0.00    -0.000 A 
ATOM     23  C   UNL     1       7.095   7.000 -11.405  0.00  0.00    -0.004 A 
ENDBRANCH  17  18
ENDBRANCH  15  17
ENDBRANCH   6  14
TORSDOF 4
ENDMDL
MODEL 6
REMARK VINA RESULT:      -7.1      3.803      7.933
REMARK  Name = 
REMARK  4 active torsions:
REMARK  status: ('A' for Active; 'I' for Inactive)
REMARK    1  A    between atoms: CA_6  and  N_7
REMARK    2  A    between atoms: C_8  and  C_10
REMARK    3  A    between atoms: C_10  and  C_11
REMARK    4  A    between atoms: CA_20  and  C_21
REMARK                            x       y       z     vdW  Elec       q    Type
REMARK                         _______ _______ _______ _____ _____    ______ ____
ROOT
ATOM      1  C   UNL     1       3.077   5.120  -6.038  0.00  0.00    +0.013 C 
ATOM      2  C   UNL     1       2.287   4.981  -6.157  0.00  0.00    +0.068 C 
ATOM      3  CA  UNL     1       1.709   5.939  -7.372  0.00  0.00    +0.189 C 
ATOM      4  N   UNL     1       0.307   6.230  -6.721  0.00  0.00    -0.259 N 
ATOM      5  C   UNL     1       0.671   6.880  -5.399  0.00  0.00    +0.153 C 
ATOM      6  CA  UNL     1      -0.998   6.876  -5.250  0.00  0.00    +0.200 C 
ATOM      7  C   UNL     1      -0.890   5.598  -6.219  0.00  0.00    +0.249 C 
ATOM      8  O   UNL     1      -1.886   5.093  -6.748  0.00  0.00    -0.273 OA
ATOM      9  S   UNL     1       1.146   5.117  -4.831  0.00  0.00    -0.118 S 
ATOM     10  C   UNL     1       2.256   3.565  -6.717  0.00  0.00    +0.013 C 
ENDROOT
BRANCH   3  11
ATOM     11  C   UNL     1       2.377   7.311  -6.823  0.00  0.00    +0.383 C 
ATOM     12  OXT UNL     1       1.975   8.349  -7.675  0.00  0.00    -0.244 OA
ATOM     13  O   UNL     1       3.515   7.251  -6.363  0.00  0.00    -0.244 OA
ENDBRANCH   3  11
BRANCH   6  14
ATOM     14  N   UNL     1      -1.035   6.028  -3.917  0.00  0.00    -0.195 NA
ATOM     15  C   UNL     1      -2.306   5.990  -3.300  0.00  0.00    +0.246 C 
ATOM     16  O   UNL     1      -3.181   6.863  -3.585  0.00  0.00    -0.273 OA
BRANCH  15  17
ATOM     17  C   UNL     1      -2.346   5.481  -1.893  0.00  0.00    +0.113 C 
BRANCH  17  18
ATOM     18  C   UNL     1      -1.521   6.382  -1.027  0.00  0.00    -0.013 A 
ATOM     19  C   UNL     1      -2.066   7.450  -0.364  0.00  0.00    -0.004 A 
ATOM     20  C   UNL     1      -1.307   8.320   0.408  0.00  0.00    -0.000 A 
ATOM     21  C   UNL     1       0.051   8.055   0.539  0.00  0.00    -0.000 A 
ATOM     22  C   UNL     1       0.560   6.912  -0.010  0.00  0.00    -0.000 A 
ATOM     23  C   UNL     1      -0.229   6.004  -0.695  0.00  0.00    -0.004 A 
ENDBRANCH  17  18
ENDBRANCH  15  17
ENDBRANCH   6  14
TORSDOF 4
ENDMDL
MODEL 7
REMARK VINA RESULT:      -7.1      3.425      4.452
REMARK  Name = 
REMARK  4 active torsions:
REMARK  status: ('A' for Active; 'I' for Inactive)
REMARK    1  A    between atoms: CA_6  and  N_7
REMARK    2  A    between atoms: C_8  and  C_10
REMARK    3  A    between atoms: C_10  and  C_11
REMARK    4  A    between atoms: CA_20  and  C_21
REMARK                            x       y       z     vdW  Elec       q    Type
REMARK                         _______ _______ _______ _____ _____    ______ ____
ROOT
ATOM      1  C   UNL     1      -1.765   8.031  -3.130  0.00  0.00    +0.013 C 
ATOM      2  C   UNL     1      -1.693   7.763  -3.893  0.00  0.00    +0.068 C 
ATOM      3  CA  UNL     1      -2.731   6.508  -4.164  0.00  0.00    +0.189 C 
ATOM      4  N   UNL     1      -1.763   5.666  -5.074  0.00  0.00    -0.259 N 
ATOM      5  C   UNL     1      -0.565   5.431  -4.174  0.00  0.00    +0.153 C 
ATOM      6  CA  UNL     1      -0.022   4.659  -5.559  0.00  0.00    +0.200 C 
ATOM      7  C   UNL     1      -0.992   5.709  -6.293  0.00  0.00    +0.249 C 
ATOM      8  O   UNL     1      -1.269   5.613  -7.494  0.00  0.00    -0.273 OA
ATOM      9  S   UNL     1      -0.132   7.260  -4.518  0.00  0.00    -0.118 S 
ATOM     10  C   UNL     1      -2.233   8.916  -4.728  0.00  0.00    +0.013 C 
ENDROOT
BRANCH   3  11
ATOM     11  C   UNL     1      -2.354   5.695  -2.813  0.00  0.00    +0.383 C 
ATOM     12  OXT UNL     1      -2.857   4.393  -2.946  0.00  0.00    -0.244 OA
ATOM     13  O   UNL     1      -2.399   6.303  -1.745  0.00  0.00    -0.244 OA
ENDBRANCH   3  11
BRANCH   6  14
ATOM     14  N   UNL     1       1.279   5.540  -5.730  0.00  0.00    -0.195 NA
ATOM     15  C   UNL     1       2.347   4.864  -6.363  0.00  0.00    +0.246 C 
ATOM     16  O   UNL     1       2.364   3.597  -6.409  0.00  0.00    -0.273 OA
BRANCH  15  17
ATOM     17  C   UNL     1       3.691   5.518  -6.275  0.00  0.00    +0.113 C 
BRANCH  17  18
ATOM     18  C   UNL     1       4.181   5.808  -7.659  0.00  0.00    -0.013 A 
ATOM     19  C   UNL     1       5.321   5.237  -8.160  0.00  0.00    -0.004 A 
ATOM     20  C   UNL     1       5.812   5.529  -9.426  0.00  0.00    -0.000 A 
ATOM     21  C   UNL     1       5.081   6.403 -10.220  0.00  0.00    -0.000 A 
ATOM     22  C   UNL     1       3.874   6.860  -9.768  0.00  0.00    -0.000 A 
ATOM     23  C   UNL     1       3.352   6.482  -8.543  0.00  0.00    -0.004 A 
ENDBRANCH  17  18
ENDBRANCH  15  17
ENDBRANCH   6  14
TORSDOF 4
ENDMDL
MODEL 8
REMARK VINA RESULT:      -7.0      3.672      5.614
REMARK  Name = 
REMARK  4 active torsions:
REMARK  status: ('A' for Active; 'I' for Inactive)
REMARK    1  A    between atoms: CA_6  and  N_7
REMARK    2  A    between atoms: C_8  and  C_10
REMARK    3  A    between atoms: C_10  and  C_11
REMARK    4  A    between atoms: CA_20  and  C_21
REMARK                            x       y       z     vdW  Elec       q    Type
REMARK                         _______ _______ _______ _____ _____    ______ ____
ROOT
ATOM      1  C   UNL     1      -1.803   8.039  -3.202  0.00  0.00    +0.013 C 
ATOM      2  C   UNL     1      -1.720   7.753  -3.957  0.00  0.00    +0.068 C 
ATOM      3  CA  UNL     1      -2.715   6.458  -4.196  0.00  0.00    +0.189 C 
ATOM      4  N   UNL     1      -1.717   5.625  -5.082  0.00  0.00    -0.259 N 
ATOM      5  C   UNL     1      -0.514   5.453  -4.175  0.00  0.00    +0.153 C 
ATOM      6  CA  UNL     1       0.058   4.664  -5.537  0.00  0.00    +0.200 C 
ATOM      7  C   UNL     1      -0.945   5.660  -6.301  0.00  0.00    +0.249 C 
ATOM      8  O   UNL     1      -1.217   5.523  -7.499  0.00  0.00    -0.273 OA
ATOM      9  S   UNL     1      -0.142   7.287  -4.567  0.00  0.00    -0.118 S 
ATOM     10  C   UNL     1      -2.297   8.864  -4.823  0.00  0.00    +0.013 C 
ENDROOT
BRANCH   3  11
ATOM     11  C   UNL     1      -2.313   5.694  -2.822  0.00  0.00    +0.383 C 
ATOM     12  OXT UNL     1      -2.831   4.393  -2.893  0.00  0.00    -0.244 OA
ATOM     13  O   UNL     1      -2.327   6.344  -1.779  0.00  0.00    -0.244 OA
ENDBRANCH   3  11
BRANCH   6  14
ATOM     14  N   UNL     1       1.329   5.583  -5.731  0.00  0.00    -0.195 NA
ATOM     15  C   UNL     1       2.372   4.969  -6.459  0.00  0.00    +0.246 C 
ATOM     16  O   UNL     1       2.412   3.706  -6.577  0.00  0.00    -0.273 OA
BRANCH  15  17
ATOM     17  C   UNL     1       3.706   5.648  -6.410  0.00  0.00    +0.113 C 
BRANCH  17  18
ATOM     18  C   UNL     1       3.995   6.048  -4.997  0.00  0.00    -0.013 A 
ATOM     19  C   UNL     1       4.179   5.122  -4.003  0.00  0.00    -0.004 A 
ATOM     20  C   UNL     1       4.406   5.477  -2.680  0.00  0.00    -0.000 A 
ATOM     21  C   UNL     1       4.491   6.830  -2.376  0.00  0.00    -0.000 A 
ATOM     22  C   UNL     1       4.446   7.743  -3.393  0.00  0.00    -0.000 A 
ATOM     23  C   UNL     1       4.317   7.367  -4.719  0.00  0.00    -0.004 A 
ENDBRANCH  17  18
ENDBRANCH  15  17
ENDBRANCH   6  14
TORSDOF 4
ENDMDL
MODEL 9
REMARK VINA RESULT:      -7.0      5.269      6.731
REMARK  Name = 
REMARK  4 active torsions:
REMARK  status: ('A' for Active; 'I' for Inactive)
REMARK    1  A    between atoms: CA_6  and  N_7
REMARK    2  A    between atoms: C_8  and  C_10
REMARK    3  A    between atoms: C_10  and  C_11
REMARK    4  A    between atoms: CA_20  and  C_21
REMARK                            x       y       z     vdW  Elec       q    Type
REMARK                         _______ _______ _______ _____ _____    ______ ____
ROOT
ATOM      1  C   UNL     1       4.070   6.864  -2.547  0.00  0.00    +0.013 C 
ATOM      2  C   UNL     1       3.465   7.046  -2.038  0.00  0.00    +0.068 C 
ATOM      3  CA  UNL     1       3.499   6.052  -0.721  0.00  0.00    +0.189 C 
ATOM      4  N   UNL     1       1.941   5.895  -0.573  0.00  0.00    -0.259 N 
ATOM      5  C   UNL     1       1.527   5.309  -1.909  0.00  0.00    +0.153 C 
ATOM      6  CA  UNL     1       0.020   5.431  -1.187  0.00  0.00    +0.200 C 
ATOM      7  C   UNL     1       0.716   6.634  -0.380  0.00  0.00    +0.249 C 
ATOM      8  O   UNL     1       0.174   7.168   0.594  0.00  0.00    -0.273 OA
ATOM      9  S   UNL     1       1.802   7.070  -2.600  0.00  0.00    -0.118 S 
ATOM     10  C   UNL     1       3.847   8.422  -1.510  0.00  0.00    +0.013 C 
ENDROOT
BRANCH   3  11
ATOM     11  C   UNL     1       3.673   4.678  -1.564  0.00  0.00    +0.383 C 
ATOM     12  OXT UNL     1       3.465   3.609  -0.681  0.00  0.00    -0.244 OA
ATOM     13  O   UNL     1       4.540   4.644  -2.434  0.00  0.00    -0.244 OA
ENDBRANCH   3  11
BRANCH   6  14
ATOM     14  N   UNL     1      -0.612   6.364  -2.295  0.00  0.00    -0.195 NA
ATOM     15  C   UNL     1      -1.983   6.119  -2.534  0.00  0.00    +0.246 C 
ATOM     16  O   UNL     1      -2.507   5.019  -2.180  0.00  0.00    -0.273 OA
BRANCH  15  17
ATOM     17  C   UNL     1      -2.561   6.733  -3.771  0.00  0.00    +0.113 C 
BRANCH  17  18
ATOM     18  C   UNL     1      -1.713   6.354  -4.944  0.00  0.00    -0.013 A 
ATOM     19  C   UNL     1      -2.144   5.466  -5.894  0.00  0.00    -0.004 A 
ATOM     20  C   UNL     1      -1.352   5.071  -6.965  0.00  0.00    -0.000 A 
ATOM     21  C   UNL     1      -0.093   5.645  -7.088  0.00  0.00    -0.000 A 
ATOM     22  C   UNL     1       0.275   6.632  -6.217  0.00  0.00    -0.000 A 
ATOM     23  C   UNL     1      -0.565   7.083  -5.212  0.00  0.00    -0.004 A 
ENDBRANCH  17  18
ENDBRANCH  15  17
ENDBRANCH   6  14
TORSDOF 4
ENDMDL
