MODEL 1
REMARK VINA RESULT:      -8.2      0.000      0.000
REMARK  Name = 
REMARK  5 active torsions:
REMARK  status: ('A' for Active; 'I' for Inactive)
REMARK    1  A    between atoms: C_6  and  O_7
REMARK    2  A    between atoms: O_7  and  C_8
REMARK    3  A    between atoms: C_8  and  C_10
REMARK    4  A    between atoms: C_10  and  C_12
REMARK    5  A    between atoms: C_10  and  C_18
REMARK                            x       y       z     vdW  Elec       q    Type
REMARK                         _______ _______ _______ _____ _____    ______ ____
ROOT
ATOM      1  C   UNL     1       3.180   6.150  -7.199  0.00  0.00    +0.233 C 
ATOM      2  O   UNL     1       2.891   7.507  -7.133  0.00  0.00    -0.210 OA
ENDROOT
BRANCH   1   3
ATOM      3  C   UNL     1       4.024   5.940  -8.418  0.00  0.00    +0.015 A 
ATOM      4  C   UNL     1       5.242   5.292  -8.258  0.00  0.00    -0.001 A 
ATOM      5  C   UNL     1       6.350   5.615  -9.018  0.00  0.00    -0.000 A 
ATOM      6  C   UNL     1       6.129   6.155 -10.271  0.00  0.00    -0.000 A 
ATOM      7  C   UNL     1       4.901   6.746 -10.517  0.00  0.00    -0.000 A 
ATOM      8  C   UNL     1       3.945   6.793  -9.511  0.00  0.00    -0.001 A 
ENDBRANCH   1   3
BRANCH   1   9
ATOM      9  C   UNL     1       4.032   5.789  -6.019  0.00  0.00    +0.043 C 
ATOM     10  C   UNL     1       3.383   4.799  -5.098  0.00  0.00    +0.003 C 
ATOM     11  C   UNL     1       3.069   5.538  -3.825  0.00  0.00    +0.000 C 
ATOM     12  C   UNL     1       3.937   6.768  -3.802  0.00  0.00    +0.000 C 
ATOM     13  C   UNL     1       4.442   6.980  -5.201  0.00  0.00    +0.003 C 
ENDBRANCH   1   9
BRANCH   1  14
ATOM     14  C   UNL     1       1.979   5.305  -7.358  0.00  0.00    +0.349 C 
ATOM     15  O   UNL     1       2.126   4.086  -7.688  0.00  0.00    -0.247 OA
BRANCH  14  16
ATOM     16  O   UNL     1       0.676   5.735  -7.281  0.00  0.00    -0.444 OA
BRANCH  16  20
ATOM     17  C   UNL     1      -1.365   6.389  -4.596  0.00  0.00    +0.171 C 
ATOM     18  N   UNL     1      -1.343   6.407  -4.609  0.00  0.00    +0.309 N 
ATOM     19  C   UNL     1      -0.165   6.734  -5.398  0.00  0.00    +0.153 C 
ATOM     20  C   UNL     1      -0.035   5.211  -6.011  0.00  0.00    +0.229 C 
ATOM     21  C   UNL     1      -1.526   5.371  -6.697  0.00  0.00    +0.111 C 
ATOM     22  C   UNL     1      -2.317   5.805  -5.503  0.00  0.00    +0.113 C 
ATOM     23  C   UNL     1      -1.011   5.566  -3.459  0.00  0.00    +0.171 C 
ENDBRANCH  16  20
ENDBRANCH  14  16
ENDBRANCH   1  14
TORSDOF 5
ENDMDL
MODEL 2
REMARK VINA RESULT:      -8.2      2.734      5.678
REMARK  Name = 
REMARK  5 active torsions:
REMARK  status: ('A' for Active; 'I' for Inactive)
REMARK    1  A    between atoms: C_6  and  O_7
REMARK    2  A    between atoms: O_7  and  C_8
REMARK    3  A    between atoms: C_8  and  C_10
REMARK    4  A    between atoms: C_10  and  C_12
REMARK    5  A    between atoms: C_10  and  C_18
REMARK                            x       y       z     vdW  Elec       q    Type
REMARK                         _______ _______ _______ _____ _____    ______ ____
ROOT
ATOM      1  C   UNL     1       1.511   6.088  -6.552  0.00  0.00    +0.233 C 
ATOM      2  O   UNL     1       1.598   4.711  -6.709  0.00  0.00    -0.210 OA
ENDROOT
BRANCH   1   3
ATOM      3  C   UNL     1       0.071   6.410  -6.295  0.00  0.00    +0.015 A 
ATOM      4  C   UNL     1      -0.222   7.258  -5.234  0.00  0.00    -0.001 A 
ATOM      5  C   UNL     1      -1.366   7.110  -4.472  0.00  0.00    -0.000 A 
ATOM      6  C   UNL     1      -2.458   6.512  -5.070  0.00  0.00    -0.000 A 
ATOM      7  C   UNL     1      -2.238   5.716  -6.182  0.00  0.00    -0.000 A 
ATOM      8  C   UNL     1      -0.944   5.531  -6.650  0.00  0.00    -0.001 A 
ENDBRANCH   1   3
BRANCH   1   9
ATOM      9  C   UNL     1       2.265   6.473  -5.314  0.00  0.00    +0.043 C 
ATOM     10  C   UNL     1       3.652   6.970  -5.593  0.00  0.00    +0.003 C 
ATOM     11  C   UNL     1       4.598   5.926  -5.064  0.00  0.00    +0.000 C 
ATOM     12  C   UNL     1       3.827   5.092  -4.075  0.00  0.00    +0.000 C 
ATOM     13  C   UNL     1       2.368   5.355  -4.315  0.00  0.00    +0.003 C 
ENDBRANCH   1   9
BRANCH   1  14
ATOM     14  C   UNL     1       1.909   6.840  -7.760  0.00  0.00    +0.349 C 
ATOM     15  O   UNL     1       1.943   8.109  -7.709  0.00  0.00    -0.247 OA
BRANCH  14  16
ATOM     16  O   UNL     1       2.160   6.299  -8.998  0.00  0.00    -0.444 OA
BRANCH  16  20
ATOM     17  C   UNL     1       0.903   5.964 -12.178  0.00  0.00    +0.171 C 
ATOM     18  N   UNL     1       0.932   5.965 -12.168  0.00  0.00    +0.309 N 
ATOM     19  C   UNL     1       2.054   6.253 -11.287  0.00  0.00    +0.153 C 
ATOM     20  C   UNL     1       1.080   6.691 -10.033  0.00  0.00    +0.229 C 
ATOM     21  C   UNL     1       0.425   5.178 -10.025  0.00  0.00    +0.111 C 
ATOM     22  C   UNL     1       0.047   5.050 -11.468  0.00  0.00    +0.113 C 
ATOM     23  C   UNL     1       0.268   7.187 -12.619  0.00  0.00    +0.171 C 
ENDBRANCH  16  20
ENDBRANCH  14  16
ENDBRANCH   1  14
TORSDOF 5
ENDMDL
MODEL 3
REMARK VINA RESULT:      -8.2      2.791      6.909
REMARK  Name = 
REMARK  5 active torsions:
REMARK  status: ('A' for Active; 'I' for Inactive)
REMARK    1  A    between atoms: C_6  and  O_7
REMARK    2  A    between atoms: O_7  and  C_8
REMARK    3  A    between atoms: C_8  and  C_10
REMARK    4  A    between atoms: C_10  and  C_12
REMARK    5  A    between atoms: C_10  and  C_18
REMARK                            x       y       z     vdW  Elec       q    Type
REMARK                         _______ _______ _______ _____ _____    ______ ____
ROOT
ATOM      1  C   UNL     1       1.170   6.062  -8.344  0.00  0.00    +0.233 C 
ATOM      2  O   UNL     1       1.443   7.417  -8.483  0.00  0.00    -0.210 OA
ENDROOT
BRANCH   1   3
ATOM      3  C   UNL     1       0.335   5.908  -7.110  0.00  0.00    +0.015 A 
ATOM      4  C   UNL     1      -0.910   5.306  -7.243  0.00  0.00    -0.001 A 
ATOM      5  C   UNL     1      -1.994   5.687  -6.474  0.00  0.00    -0.000 A 
ATOM      6  C   UNL     1      -1.735   6.239  -5.235  0.00  0.00    -0.000 A 
ATOM      7  C   UNL     1      -0.481   6.786  -5.015  0.00  0.00    -0.000 A 
ATOM      8  C   UNL     1       0.462   6.777  -6.034  0.00  0.00    -0.001 A 
ENDBRANCH   1   3
BRANCH   1   9
ATOM      9  C   UNL     1       0.316   5.629  -9.497  0.00  0.00    +0.043 C 
ATOM     10  C   UNL     1       0.973   4.604 -10.372  0.00  0.00    +0.003 C 
ATOM     11  C   UNL     1       1.268   5.282 -11.683  0.00  0.00    +0.000 C 
ATOM     12  C   UNL     1       0.382   6.497 -11.761  0.00  0.00    +0.000 C 
ATOM     13  C   UNL     1      -0.117   6.772 -10.372  0.00  0.00    +0.003 C 
ENDBRANCH   1   9
BRANCH   1  14
ATOM     14  C   UNL     1       2.381   5.240  -8.147  0.00  0.00    +0.349 C 
ATOM     15  O   UNL     1       2.249   4.035  -7.765  0.00  0.00    -0.247 OA
BRANCH  14  16
ATOM     16  O   UNL     1       3.679   5.683  -8.242  0.00  0.00    -0.444 OA
BRANCH  16  20
ATOM     17  C   UNL     1       5.604   6.348 -11.009  0.00  0.00    +0.171 C 
ATOM     18  N   UNL     1       5.581   6.365 -10.996  0.00  0.00    +0.309 N 
ATOM     19  C   UNL     1       4.408   6.655 -10.184  0.00  0.00    +0.153 C 
ATOM     20  C   UNL     1       4.382   5.152  -9.512  0.00  0.00    +0.229 C 
ATOM     21  C   UNL     1       5.880   5.420  -8.878  0.00  0.00    +0.111 C 
ATOM     22  C   UNL     1       6.612   5.852 -10.110  0.00  0.00    +0.113 C 
ATOM     23  C   UNL     1       5.265   5.465 -12.104  0.00  0.00    +0.171 C 
ENDBRANCH  16  20
ENDBRANCH  14  16
ENDBRANCH   1  14
TORSDOF 5
ENDMDL
MODEL 4
REMARK VINA RESULT:      -7.9      2.277      6.168
REMARK  Name = 
REMARK  5 active torsions:
REMARK  status: ('A' for Active; 'I' for Inactive)
REMARK    1  A    between atoms: C_6  and  O_7
REMARK    2  A    between atoms: O_7  and  C_8
REMARK    3  A    between atoms: C_8  and  C_10
REMARK    4  A    between atoms: C_10  and  C_12
REMARK    5  A    between atoms: C_10  and  C_18
REMARK                            x       y       z     vdW  Elec       q    Type
REMARK                         _______ _______ _______ _____ _____    ______ ____
ROOT
ATOM      1  C   UNL     1       1.616   5.781  -6.528  0.00  0.00    +0.233 C 
ATOM      2  O   UNL     1       1.619   4.393  -6.481  0.00  0.00    -0.210 OA
ENDROOT
BRANCH   1   3
ATOM      3  C   UNL     1       0.190   6.221  -6.399  0.00  0.00    +0.015 A 
ATOM      4  C   UNL     1      -0.118   7.127  -5.392  0.00  0.00    -0.001 A 
ATOM      5  C   UNL     1      -1.326   7.094  -4.722  0.00  0.00    -0.000 A 
ATOM      6  C   UNL     1      -2.412   6.561  -5.389  0.00  0.00    -0.000 A 
ATOM      7  C   UNL     1      -2.168   5.712  -6.456  0.00  0.00    -0.000 A 
ATOM      8  C   UNL     1      -0.860   5.411  -6.811  0.00  0.00    -0.001 A 
ENDBRANCH   1   3
BRANCH   1   9
ATOM      9  C   UNL     1       2.337   6.299  -5.320  0.00  0.00    +0.043 C 
ATOM     10  C   UNL     1       3.575   7.076  -5.654  0.00  0.00    +0.003 C 
ATOM     11  C   UNL     1       4.742   6.245  -5.194  0.00  0.00    +0.000 C 
ATOM     12  C   UNL     1       4.212   5.257  -4.188  0.00  0.00    +0.000 C 
ATOM     13  C   UNL     1       2.719   5.215  -4.352  0.00  0.00    +0.003 C 
ENDBRANCH   1   9
BRANCH   1  14
ATOM     14  C   UNL     1       2.117   6.321  -7.809  0.00  0.00    +0.349 C 
ATOM     15  O   UNL     1       1.684   7.447  -8.211  0.00  0.00    -0.247 OA
BRANCH  14  16
ATOM     16  O   UNL     1       2.954   5.672  -8.684  0.00  0.00    -0.444 OA
BRANCH  16  20
ATOM     17  C   UNL     1       5.387   6.220 -11.047  0.00  0.00    +0.171 C 
ATOM     18  N   UNL     1       5.388   6.204 -11.021  0.00  0.00    +0.309 N 
ATOM     19  C   UNL     1       5.014   5.765  -9.684  0.00  0.00    +0.153 C 
ATOM     20  C   UNL     1       3.622   6.646  -9.681  0.00  0.00    +0.229 C 
ATOM     21  C   UNL     1       3.087   5.789 -10.984  0.00  0.00    +0.111 C 
ATOM     22  C   UNL     1       4.261   5.946 -11.900  0.00  0.00    +0.113 C 
ATOM     23  C   UNL     1       5.828   7.598 -11.031  0.00  0.00    +0.171 C 
ENDBRANCH  16  20
ENDBRANCH  14  16
ENDBRANCH   1  14
TORSDOF 5
ENDMDL
MODEL 5
REMARK VINA RESULT:      -7.9      1.820      3.744
REMARK  Name = 
REMARK  5 active torsions:
REMARK  status: ('A' for Active; 'I' for Inactive)
REMARK    1  A    between atoms: C_6  and  O_7
REMARK    2  A    between atoms: O_7  and  C_8
REMARK    3  A    between atoms: C_8  and  C_10
REMARK    4  A    between atoms: C_10  and  C_12
REMARK    5  A    between atoms: C_10  and  C_18
REMARK                            x       y       z     vdW  Elec       q    Type
REMARK                         _______ _______ _______ _____ _____    ______ ____
ROOT
ATOM      1  C   UNL     1       2.628   5.399  -6.672  0.00  0.00    +0.233 C 
ATOM      2  O   UNL     1       3.132   4.343  -7.420  0.00  0.00    -0.210 OA
ENDROOT
BRANCH   1   3
ATOM      3  C   UNL     1       3.745   5.899  -5.809  0.00  0.00    +0.015 A 
ATOM      4  C   UNL     1       4.360   4.990  -4.957  0.00  0.00    -0.001 A 
ATOM      5  C   UNL     1       4.841   5.361  -3.715  0.00  0.00    -0.000 A 
ATOM      6  C   UNL     1       5.218   6.679  -3.544  0.00  0.00    -0.000 A 
ATOM      7  C   UNL     1       4.699   7.623  -4.415  0.00  0.00    -0.000 A 
ATOM      8  C   UNL     1       3.817   7.227  -5.412  0.00  0.00    -0.001 A 
ENDBRANCH   1   3
BRANCH   1   9
ATOM      9  C   UNL     1       2.273   6.516  -7.607  0.00  0.00    +0.043 C 
ATOM     10  C   UNL     1       0.888   6.403  -8.171  0.00  0.00    +0.003 C 
ATOM     11  C   UNL     1       1.044   6.092  -9.635  0.00  0.00    +0.000 C 
ATOM     12  C   UNL     1       2.441   6.496 -10.027  0.00  0.00    +0.000 C 
ATOM     13  C   UNL     1       3.231   6.648  -8.758  0.00  0.00    +0.003 C 
ENDBRANCH   1   9
BRANCH   1  14
ATOM     14  C   UNL     1       1.532   5.000  -5.765  0.00  0.00    +0.349 C 
ATOM     15  O   UNL     1       1.000   3.855  -5.912  0.00  0.00    -0.247 OA
BRANCH  14  16
ATOM     16  O   UNL     1       0.943   5.799  -4.814  0.00  0.00    -0.444 OA
BRANCH  16  20
ATOM     17  C   UNL     1      -2.041   6.340  -3.200  0.00  0.00    +0.171 C 
ATOM     18  N   UNL     1      -2.013   6.331  -3.188  0.00  0.00    +0.309 N 
ATOM     19  C   UNL     1      -0.665   5.783  -3.182  0.00  0.00    +0.153 C 
ATOM     20  C   UNL     1      -0.598   5.675  -4.824  0.00  0.00    +0.229 C 
ATOM     21  C   UNL     1      -0.797   7.308  -4.930  0.00  0.00    +0.111 C 
ATOM     22  C   UNL     1      -2.016   7.478  -4.079  0.00  0.00    +0.113 C 
ATOM     23  C   UNL     1      -3.009   5.319  -3.538  0.00  0.00    +0.171 C 
ENDBRANCH  16  20
ENDBRANCH  14  16
ENDBRANCH   1  14
TORSDOF 5
ENDMDL
MODEL 6
REMARK VINA RESULT:      -7.8      2.565      4.721
REMARK  Name = 
REMARK  5 active torsions:
REMARK  status: ('A' for Active; 'I' for Inactive)
REMARK    1  A    between atoms: C_6  and  O_7
REMARK    2  A    between atoms: O_7  and  C_8
REMARK    3  A    between atoms: C_8  and  C_10
REMARK    4  A    between atoms: C_10  and  C_12
REMARK    5  A    between atoms: C_10  and  C_18
REMARK                            x       y       z     vdW  Elec       q    Type
REMARK                         _______ _______ _______ _____ _____    ______ ____
ROOT
ATOM      1  C   UNL     1       2.908   6.155  -9.126  0.00  0.00    +0.233 C 
ATOM      2  O   UNL     1       2.812   4.782  -8.944  0.00  0.00    -0.210 OA
ENDROOT
BRANCH   1   3
ATOM      3  C   UNL     1       4.347   6.462  -9.404  0.00  0.00    +0.015 A 
ATOM      4  C   UNL     1       4.632   7.341 -10.441  0.00  0.00    -0.001 A 
ATOM      5  C   UNL     1       5.757   7.200 -11.233  0.00  0.00    -0.000 A 
ATOM      6  C   UNL     1       6.851   6.566 -10.679  0.00  0.00    -0.000 A 
ATOM      7  C   UNL     1       6.641   5.736  -9.589  0.00  0.00    -0.000 A 
ATOM      8  C   UNL     1       5.354   5.556  -9.100  0.00  0.00    -0.001 A 
ENDBRANCH   1   3
BRANCH   1   9
ATOM      9  C   UNL     1       2.144   6.524 -10.362  0.00  0.00    +0.043 C 
ATOM     10  C   UNL     1       0.688   6.780 -10.107  0.00  0.00    +0.003 C 
ATOM     11  C   UNL     1      -0.067   5.653 -10.759  0.00  0.00    +0.000 C 
ATOM     12  C   UNL     1       0.855   5.032 -11.774  0.00  0.00    +0.000 C 
ATOM     13  C   UNL     1       2.247   5.492 -11.449  0.00  0.00    +0.003 C 
ENDBRANCH   1   9
BRANCH   1  14
ATOM     14  C   UNL     1       2.528   6.930  -7.927  0.00  0.00    +0.349 C 
ATOM     15  O   UNL     1       2.333   8.181  -8.042  0.00  0.00    -0.247 OA
BRANCH  14  16
ATOM     16  O   UNL     1       2.456   6.444  -6.644  0.00  0.00    -0.444 OA
BRANCH  16  20
ATOM     17  C   UNL     1       3.932   6.569  -3.544  0.00  0.00    +0.171 C 
ATOM     18  N   UNL     1       3.901   6.569  -3.552  0.00  0.00    +0.309 N 
ATOM     19  C   UNL     1       2.718   6.724  -4.385  0.00  0.00    +0.153 C 
ATOM     20  C   UNL     1       3.598   6.984  -5.753  0.00  0.00    +0.229 C 
ATOM     21  C   UNL     1       4.272   5.488  -5.591  0.00  0.00    +0.111 C 
ATOM     22  C   UNL     1       4.749   5.568  -4.175  0.00  0.00    +0.113 C 
ATOM     23  C   UNL     1       4.578   7.845  -3.325  0.00  0.00    +0.171 C 
ENDBRANCH  16  20
ENDBRANCH  14  16
ENDBRANCH   1  14
TORSDOF 5
ENDMDL
MODEL 7
REMARK VINA RESULT:      -7.7      1.804      3.701
REMARK  Name = 
REMARK  5 active torsions:
REMARK  status: ('A' for Active; 'I' for Inactive)
REMARK    1  A    between atoms: C_6  and  O_7
REMARK    2  A    between atoms: O_7  and  C_8
REMARK    3  A    between atoms: C_8  and  C_10
REMARK    4  A    between atoms: C_10  and  C_12
REMARK    5  A    between atoms: C_10  and  C_18
REMARK                            x       y       z     vdW  Elec       q    Type
REMARK                         _______ _______ _______ _____ _____    ______ ____
ROOT
ATOM      1  C   UNL     1       3.162   5.650  -9.121  0.00  0.00    +0.233 C 
ATOM      2  O   UNL     1       3.212   4.274  -9.299  0.00  0.00    -0.210 OA
ENDROOT
BRANCH   1   3
ATOM      3  C   UNL     1       4.551   6.171  -9.329  0.00  0.00    +0.015 A 
ATOM      4  C   UNL     1       4.743   7.118 -10.327  0.00  0.00    -0.001 A 
ATOM      5  C   UNL     1       5.904   7.170 -11.075  0.00  0.00    -0.000 A 
ATOM      6  C   UNL     1       7.058   6.679 -10.496  0.00  0.00    -0.000 A 
ATOM      7  C   UNL     1       6.931   5.789  -9.443  0.00  0.00    -0.000 A 
ATOM      8  C   UNL     1       5.667   5.408  -9.013  0.00  0.00    -0.001 A 
ENDBRANCH   1   3
BRANCH   1   9
ATOM      9  C   UNL     1       2.315   6.239 -10.208  0.00  0.00    +0.043 C 
ATOM     10  C   UNL     1       1.017   6.804  -9.712  0.00  0.00    +0.003 C 
ATOM     11  C   UNL     1      -0.072   5.908 -10.237  0.00  0.00    +0.000 C 
ATOM     12  C   UNL     1       0.507   5.143 -11.398  0.00  0.00    +0.000 C 
ATOM     13  C   UNL     1       2.001   5.261 -11.306  0.00  0.00    +0.003 C 
ENDBRANCH   1   9
BRANCH   1  14
ATOM     14  C   UNL     1       2.756   6.047  -7.757  0.00  0.00    +0.349 C 
ATOM     15  O   UNL     1       3.245   7.108  -7.256  0.00  0.00    -0.247 OA
BRANCH  14  16
ATOM     16  O   UNL     1       1.956   5.317  -6.911  0.00  0.00    -0.444 OA
BRANCH  16  20
ATOM     17  C   UNL     1      -0.862   5.717  -4.987  0.00  0.00    +0.171 C 
ATOM     18  N   UNL     1      -0.859   5.703  -5.015  0.00  0.00    +0.309 N 
ATOM     19  C   UNL     1      -0.250   5.363  -6.292  0.00  0.00    +0.153 C 
ATOM     20  C   UNL     1       1.120   6.222  -5.976  0.00  0.00    +0.229 C 
ATOM     21  C   UNL     1       1.411   5.258  -4.670  0.00  0.00    +0.111 C 
ATOM     22  C   UNL     1       0.092   5.362  -3.971  0.00  0.00    +0.113 C 
ATOM     23  C   UNL     1      -1.292   7.099  -4.974  0.00  0.00    +0.171 C 
ENDBRANCH  16  20
ENDBRANCH  14  16
ENDBRANCH   1  14
TORSDOF 5
ENDMDL
MODEL 8
REMARK VINA RESULT:      -7.7      1.939      5.271
REMARK  Name = 
REMARK  5 active torsions:
REMARK  status: ('A' for Active; 'I' for Inactive)
REMARK    1  A    between atoms: C_6  and  O_7
REMARK    2  A    between atoms: O_7  and  C_8
REMARK    3  A    between atoms: C_8  and  C_10
REMARK    4  A    between atoms: C_10  and  C_12
REMARK    5  A    between atoms: C_10  and  C_18
REMARK                            x       y       z     vdW  Elec       q    Type
REMARK                         _______ _______ _______ _____ _____    ______ ____
ROOT
ATOM      1  C   UNL     1       2.046   6.801  -6.767  0.00  0.00    +0.233 C 
ATOM      2  O   UNL     1       1.848   8.090  -7.245  0.00  0.00    -0.210 OA
ENDROOT
BRANCH   1   3
ATOM      3  C   UNL     1       0.717   6.301  -6.288  0.00  0.00    +0.015 A 
ATOM      4  C   UNL     1       0.057   5.365  -7.074  0.00  0.00    -0.001 A 
ATOM      5  C   UNL     1      -1.321   5.337  -7.178  0.00  0.00    -0.000 A 
ATOM      6  C   UNL     1      -2.051   5.838  -6.118  0.00  0.00    -0.000 A 
ATOM      7  C   UNL     1      -1.422   6.717  -5.252  0.00  0.00    -0.000 A 
ATOM      8  C   UNL     1      -0.100   7.076  -5.476  0.00  0.00    -0.001 A 
ENDBRANCH   1   3
BRANCH   1   9
ATOM      9  C   UNL     1       2.446   5.925  -7.916  0.00  0.00    +0.043 C 
ATOM     10  C   UNL     1       3.622   5.046  -7.612  0.00  0.00    +0.003 C 
ATOM     11  C   UNL     1       4.767   5.557  -8.445  0.00  0.00    +0.000 C 
ATOM     12  C   UNL     1       4.172   6.378  -9.558  0.00  0.00    +0.000 C 
ATOM     13  C   UNL     1       2.757   6.698  -9.166  0.00  0.00    +0.003 C 
ENDBRANCH   1   9
BRANCH   1  14
ATOM     14  C   UNL     1       2.967   6.742  -5.613  0.00  0.00    +0.349 C 
ATOM     15  O   UNL     1       3.887   7.613  -5.518  0.00  0.00    -0.247 OA
BRANCH  14  16
ATOM     16  O   UNL     1       2.995   5.757  -4.655  0.00  0.00    -0.444 OA
BRANCH  16  20
ATOM     17  C   UNL     1       2.636   5.508  -1.248  0.00  0.00    +0.171 C 
ATOM     18  N   UNL     1       2.615   5.503  -1.270  0.00  0.00    +0.309 N 
ATOM     19  C   UNL     1       2.012   5.581  -2.593  0.00  0.00    +0.153 C 
ATOM     20  C   UNL     1       3.328   6.318  -3.254  0.00  0.00    +0.229 C 
ATOM     21  C   UNL     1       4.246   5.003  -2.870  0.00  0.00    +0.111 C 
ATOM     22  C   UNL     1       3.914   4.869  -1.417  0.00  0.00    +0.113 C 
ATOM     23  C   UNL     1       2.676   6.812  -0.623  0.00  0.00    +0.171 C 
ENDBRANCH  16  20
ENDBRANCH  14  16
ENDBRANCH   1  14
TORSDOF 5
ENDMDL
MODEL 9
REMARK VINA RESULT:      -7.7      2.485      5.901
REMARK  Name = 
REMARK  5 active torsions:
REMARK  status: ('A' for Active; 'I' for Inactive)
REMARK    1  A    between atoms: C_6  and  O_7
REMARK    2  A    between atoms: O_7  and  C_8
REMARK    3  A    between atoms: C_8  and  C_10
REMARK    4  A    between atoms: C_10  and  C_12
REMARK    5  A    between atoms: C_10  and  C_18
REMARK                            x       y       z     vdW  Elec       q    Type
REMARK                         _______ _______ _______ _____ _____    ______ ____
ROOT
ATOM      1  C   UNL     1       1.148   5.799  -7.336  0.00  0.00    +0.233 C 
ATOM      2  O   UNL     1       1.606   7.095  -7.534  0.00  0.00    -0.210 OA
ENDROOT
BRANCH   1   3
ATOM      3  C   UNL     1      -0.035   5.886  -6.421  0.00  0.00    +0.015 A 
ATOM      4  C   UNL     1      -1.206   5.251  -6.816  0.00  0.00    -0.001 A 
ATOM      5  C   UNL     1      -2.454   5.764  -6.517  0.00  0.00    -0.000 A 
ATOM      6  C   UNL     1      -2.564   6.561  -5.394  0.00  0.00    -0.000 A 
ATOM      7  C   UNL     1      -1.415   7.159  -4.905  0.00  0.00    -0.000 A 
ATOM      8  C   UNL     1      -0.204   6.957  -5.554  0.00  0.00    -0.001 A 
ENDBRANCH   1   3
BRANCH   1   9
ATOM      9  C   UNL     1       0.641   5.270  -8.644  0.00  0.00    +0.043 C 
ATOM     10  C   UNL     1       1.690   4.558  -9.445  0.00  0.00    +0.003 C 
ATOM     11  C   UNL     1       1.976   5.423 -10.644  0.00  0.00    +0.000 C 
ATOM     12  C   UNL     1       0.802   6.351 -10.810  0.00  0.00    +0.000 C 
ATOM     13  C   UNL     1       0.038   6.335  -9.517  0.00  0.00    +0.003 C 
ENDBRANCH   1   9
BRANCH   1  14
ATOM     14  C   UNL     1       2.137   4.924  -6.674  0.00  0.00    +0.349 C 
ATOM     15  O   UNL     1       1.822   3.718  -6.426  0.00  0.00    -0.247 OA
BRANCH  14  16
ATOM     16  O   UNL     1       3.365   5.316  -6.196  0.00  0.00    -0.444 OA
BRANCH  16  20
ATOM     17  C   UNL     1       4.981   6.267  -3.317  0.00  0.00    +0.171 C 
ATOM     18  N   UNL     1       4.986   6.242  -3.336  0.00  0.00    +0.309 N 
ATOM     19  C   UNL     1       4.712   5.229  -4.344  0.00  0.00    +0.153 C 
ATOM     20  C   UNL     1       3.272   5.907  -4.770  0.00  0.00    +0.229 C 
ATOM     21  C   UNL     1       4.063   7.284  -5.215  0.00  0.00    +0.111 C 
ATOM     22  C   UNL     1       4.856   7.542  -3.972  0.00  0.00    +0.113 C 
ATOM     23  C   UNL     1       4.134   6.082  -2.159  0.00  0.00    +0.171 C 
ENDBRANCH  16  20
ENDBRANCH  14  16
ENDBRANCH   1  14
TORSDOF 5
ENDMDL
