MODEL 1
REMARK VINA RESULT:     -10.1      0.000      0.000
REMARK  Name = 
REMARK  1 active torsions:
REMARK  status: ('A' for Active; 'I' for Inactive)
REMARK    1  A    between atoms: C_2  and  C_4
REMARK                            x       y       z     vdW  Elec       q    Type
REMARK                         _______ _______ _______ _____ _____    ______ ____
ROOT
ATOM      1  C   UNL     1      -1.790   5.845  -3.430  0.00  0.00    +0.177 C 
ATOM      2  C   UNL     1      -1.024   6.556  -4.428  0.00  0.00    +0.035 C 
ATOM      3  C   UNL     1      -0.945   5.311  -5.464  0.00  0.00    +0.006 C 
ATOM      4  C   UNL     1      -0.393   6.347  -6.680  0.00  0.00    +0.034 C 
ATOM      5  C   UNL     1       1.107   5.851  -6.446  0.00  0.00    +0.168 C 
ATOM      6  C   UNL     1       1.373   5.811  -4.839  0.00  0.00    +0.182 C 
ATOM      7  O   UNL     1       2.559   6.759  -4.866  0.00  0.00    -0.220 OA
ATOM      8  F   UNL     1       1.018   4.432  -6.468  0.00  0.00    -0.237 F 
ATOM      9  C   UNL     1       2.078   6.175  -7.361  0.00  0.00    +0.064 C 
ATOM     10  C   UNL     1       1.548   5.598  -8.655  0.00  0.00    -0.036 C 
ATOM     11  C   UNL     1       2.394   5.514  -9.688  0.00  0.00    +0.034 C 
ATOM     12  C   UNL     1       3.784   5.166  -9.357  0.00  0.00    +0.195 C 
ATOM     13  C   UNL     1       4.005   4.725  -7.981  0.00  0.00    +0.038 C 
ATOM     14  O   UNL     1       4.611   4.975 -10.274  0.00  0.00    -0.287 OA
ATOM     15  C   UNL     1       0.081   6.087  -9.078  0.00  0.00    +0.019 C 
ATOM     16  C   UNL     1      -0.130   4.847 -10.123  0.00  0.00    +0.004 C 
ATOM     17  C   UNL     1       2.773   7.441  -7.676  0.00  0.00    +0.011 C 
ATOM     18  C   UNL     1       3.220   5.231  -7.074  0.00  0.00    -0.017 C 
ATOM     19  C   UNL     1      -0.689   5.289  -7.877  0.00  0.00    +0.007 C 
ATOM     20  C   UNL     1      -2.535   5.420  -5.712  0.00  0.00    +0.003 C 
ATOM     21  C   UNL     1      -1.883   7.605  -5.089  0.00  0.00    +0.003 C 
ATOM     22  C   UNL     1       0.341   7.004  -4.338  0.00  0.00    +0.038 C 
ATOM     23  C   UNL     1      -2.817   5.048  -4.250  0.00  0.00    +0.038 C 
ATOM     24  O   UNL     1      -1.041   5.023  -2.604  0.00  0.00    -0.218 OA
ENDROOT
BRANCH   1  26
ATOM     25  C   UNL     1      -2.384   6.858  -1.707  0.00  0.00    +0.075 C 
ATOM     26  C   UNL     1      -2.703   6.684  -2.573  0.00  0.00    +0.178 C 
ATOM     27  O   UNL     1      -3.916   6.492  -2.603  0.00  0.00    -0.293 OA
ENDBRANCH   1  26
TORSDOF 1
ENDMDL
MODEL 2
REMARK VINA RESULT:      -9.4      2.703      4.463
REMARK  Name = 
REMARK  1 active torsions:
REMARK  status: ('A' for Active; 'I' for Inactive)
REMARK    1  A    between atoms: C_2  and  C_4
REMARK                            x       y       z     vdW  Elec       q    Type
REMARK                         _______ _______ _______ _____ _____    ______ ____
ROOT
ATOM      1  C   UNL     1       1.849   6.219  -4.458  0.00  0.00    +0.177 C 
ATOM      2  C   UNL     1       1.823   5.454  -5.684  0.00  0.00    +0.035 C 
ATOM      3  C   UNL     1       2.417   6.645  -6.609  0.00  0.00    +0.006 C 
ATOM      4  C   UNL     1       2.684   5.546  -7.866  0.00  0.00    +0.034 C 
ATOM      5  C   UNL     1       1.360   6.046  -8.607  0.00  0.00    +0.168 C 
ATOM      6  C   UNL     1       0.180   6.165  -7.490  0.00  0.00    +0.182 C 
ATOM      7  O   UNL     1      -0.774   5.210  -8.188  0.00  0.00    -0.220 OA
ATOM      8  F   UNL     1       1.482   7.462  -8.633  0.00  0.00    -0.237 F 
ATOM      9  C   UNL     1       1.130   5.671  -9.907  0.00  0.00    +0.064 C 
ATOM     10  C   UNL     1       2.349   6.185 -10.643  0.00  0.00    -0.036 C 
ATOM     11  C   UNL     1       2.300   6.211 -11.979  0.00  0.00    +0.034 C 
ATOM     12  C   UNL     1       1.002   6.569 -12.570  0.00  0.00    +0.195 C 
ATOM     13  C   UNL     1       0.007   7.077 -11.628  0.00  0.00    +0.038 C 
ATOM     14  O   UNL     1       0.901   6.708 -13.808  0.00  0.00    -0.287 OA
ATOM     15  C   UNL     1       3.760   5.682 -10.071  0.00  0.00    +0.019 C 
ATOM     16  C   UNL     1       4.592   6.870 -10.829  0.00  0.00    +0.004 C 
ATOM     17  C   UNL     1       0.734   4.386 -10.523  0.00  0.00    +0.011 C 
ATOM     18  C   UNL     1       0.072   6.622 -10.410  0.00  0.00    -0.017 C 
ATOM     19  C   UNL     1       3.671   6.544  -8.685  0.00  0.00    +0.007 C 
ATOM     20  C   UNL     1       3.832   6.533  -5.842  0.00  0.00    +0.003 C 
ATOM     21  C   UNL     1       2.878   4.379  -5.645  0.00  0.00    +0.003 C 
ATOM     22  C   UNL     1       0.668   5.004  -6.417  0.00  0.00    +0.038 C 
ATOM     23  C   UNL     1       3.183   6.979  -4.524  0.00  0.00    +0.038 C 
ATOM     24  O   UNL     1       0.776   7.078  -4.288  0.00  0.00    -0.218 OA
ENDROOT
BRANCH   1  26
ATOM     25  C   UNL     1       1.283   5.389  -2.631  0.00  0.00    +0.075 C 
ATOM     26  C   UNL     1       2.038   5.429  -3.188  0.00  0.00    +0.178 C 
ATOM     27  O   UNL     1       3.089   5.527  -2.558  0.00  0.00    -0.293 OA
ENDBRANCH   1  26
TORSDOF 1
ENDMDL
MODEL 3
REMARK VINA RESULT:      -9.2      2.825      6.646
REMARK  Name = 
REMARK  1 active torsions:
REMARK  status: ('A' for Active; 'I' for Inactive)
REMARK    1  A    between atoms: C_2  and  C_4
REMARK                            x       y       z     vdW  Elec       q    Type
REMARK                         _______ _______ _______ _____ _____    ______ ____
ROOT
ATOM      1  C   UNL     1       2.407   4.801  -8.893  0.00  0.00    +0.177 C 
ATOM      2  C   UNL     1       2.190   5.651  -7.744  0.00  0.00    +0.035 C 
ATOM      3  C   UNL     1       3.626   5.337  -7.060  0.00  0.00    +0.006 C 
ATOM      4  C   UNL     1       3.406   6.626  -5.988  0.00  0.00    +0.034 C 
ATOM      5  C   UNL     1       2.976   5.612  -4.831  0.00  0.00    +0.168 C 
ATOM      6  C   UNL     1       1.937   4.534  -5.474  0.00  0.00    +0.182 C 
ATOM      7  O   UNL     1       0.804   4.833  -4.507  0.00  0.00    -0.220 OA
ATOM      8  F   UNL     1       4.000   4.625  -4.826  0.00  0.00    -0.237 F 
ATOM      9  C   UNL     1       2.889   6.060  -3.536  0.00  0.00    +0.064 C 
ATOM     10  C   UNL     1       4.276   6.594  -3.255  0.00  0.00    -0.036 C 
ATOM     11  C   UNL     1       4.591   6.860  -1.982  0.00  0.00    +0.034 C 
ATOM     12  C   UNL     1       4.049   5.934  -0.976  0.00  0.00    +0.195 C 
ATOM     13  C   UNL     1       3.441   4.718  -1.514  0.00  0.00    +0.038 C 
ATOM     14  O   UNL     1       4.376   6.059   0.223  0.00  0.00    -0.287 OA
ATOM     15  C   UNL     1       4.809   7.704  -4.282  0.00  0.00    +0.019 C 
ATOM     16  C   UNL     1       6.369   7.498  -3.836  0.00  0.00    +0.004 C 
ATOM     17  C   UNL     1       1.915   6.930  -2.842  0.00  0.00    +0.011 C 
ATOM     18  C   UNL     1       2.885   4.813  -2.687  0.00  0.00    -0.017 C 
ATOM     19  C   UNL     1       4.967   6.672  -5.540  0.00  0.00    +0.007 C 
ATOM     20  C   UNL     1       4.368   6.108  -8.267  0.00  0.00    +0.003 C 
ATOM     21  C   UNL     1       2.225   7.100  -8.159  0.00  0.00    +0.003 C 
ATOM     22  C   UNL     1       1.255   5.455  -6.667  0.00  0.00    +0.038 C 
ATOM     23  C   UNL     1       3.872   5.063  -9.276  0.00  0.00    +0.038 C 
ATOM     24  O   UNL     1       2.166   3.456  -8.672  0.00  0.00    -0.218 OA
ENDROOT
BRANCH   1  26
ATOM     25  C   UNL     1       0.930   4.724 -10.363  0.00  0.00    +0.075 C 
ATOM     26  C   UNL     1       1.707   5.212 -10.164  0.00  0.00    +0.178 C 
ATOM     27  O   UNL     1       2.367   5.486 -11.163  0.00  0.00    -0.293 OA
ENDBRANCH   1  26
TORSDOF 1
ENDMDL
MODEL 4
REMARK VINA RESULT:      -9.1      2.793      6.570
REMARK  Name = 
REMARK  1 active torsions:
REMARK  status: ('A' for Active; 'I' for Inactive)
REMARK    1  A    between atoms: C_2  and  C_4
REMARK                            x       y       z     vdW  Elec       q    Type
REMARK                         _______ _______ _______ _____ _____    ______ ____
ROOT
ATOM      1  C   UNL     1       2.396   5.932  -8.225  0.00  0.00    +0.177 C 
ATOM      2  C   UNL     1       2.704   5.336  -6.944  0.00  0.00    +0.035 C 
ATOM      3  C   UNL     1       1.641   6.231  -6.110  0.00  0.00    +0.006 C 
ATOM      4  C   UNL     1       1.820   5.212  -4.773  0.00  0.00    +0.034 C 
ATOM      5  C   UNL     1       2.794   6.270  -4.076  0.00  0.00    +0.168 C 
ATOM      6  C   UNL     1       3.849   6.793  -5.202  0.00  0.00    +0.182 C 
ATOM      7  O   UNL     1       5.093   6.376  -4.437  0.00  0.00    -0.220 OA
ATOM      8  F   UNL     1       2.092   7.503  -4.156  0.00  0.00    -0.237 F 
ATOM      9  C   UNL     1       3.122   6.117  -2.752  0.00  0.00    +0.064 C 
ATOM     10  C   UNL     1       1.779   6.125  -2.053  0.00  0.00    -0.036 C 
ATOM     11  C   UNL     1       1.774   6.263  -0.723  0.00  0.00    +0.034 C 
ATOM     12  C   UNL     1       2.787   7.171  -0.164  0.00  0.00    +0.195 C 
ATOM     13  C   UNL     1       3.506   7.981  -1.146  0.00  0.00    +0.038 C 
ATOM     14  O   UNL     1       2.785   7.426   1.059  0.00  0.00    -0.287 OA
ATOM     15  C   UNL     1       0.723   5.040  -2.580  0.00  0.00    +0.019 C 
ATOM     16  C   UNL     1      -0.549   5.821  -1.912  0.00  0.00    +0.004 C 
ATOM     17  C   UNL     1       4.000   5.163  -2.042  0.00  0.00    +0.011 C 
ATOM     18  C   UNL     1       3.672   7.456  -2.326  0.00  0.00    -0.017 C 
ATOM     19  C   UNL     1       0.485   5.761  -4.028  0.00  0.00    +0.007 C 
ATOM     20  C   UNL     1       0.425   5.484  -6.862  0.00  0.00    +0.003 C 
ATOM     21  C   UNL     1       2.195   3.918  -6.899  0.00  0.00    +0.003 C 
ATOM     22  C   UNL     1       3.919   5.463  -6.183  0.00  0.00    +0.038 C 
ATOM     23  C   UNL     1       0.866   6.067  -8.212  0.00  0.00    +0.038 C 
ATOM     24  O   UNL     1       3.018   7.147  -8.462  0.00  0.00    -0.218 OA
ENDROOT
BRANCH   1  26
ATOM     25  C   UNL     1       3.380   5.206  -9.913  0.00  0.00    +0.075 C 
ATOM     26  C   UNL     1       2.591   5.049  -9.431  0.00  0.00    +0.178 C 
ATOM     27  O   UNL     1       1.634   4.787 -10.156  0.00  0.00    -0.293 OA
ENDBRANCH   1  26
TORSDOF 1
ENDMDL
MODEL 5
REMARK VINA RESULT:      -9.1      2.790      4.074
REMARK  Name = 
REMARK  1 active torsions:
REMARK  status: ('A' for Active; 'I' for Inactive)
REMARK    1  A    between atoms: C_2  and  C_4
REMARK                            x       y       z     vdW  Elec       q    Type
REMARK                         _______ _______ _______ _____ _____    ______ ____
ROOT
ATOM      1  C   UNL     1       3.453   5.594  -1.630  0.00  0.00    +0.177 C 
ATOM      2  C   UNL     1       3.228   6.285  -2.879  0.00  0.00    +0.035 C 
ATOM      3  C   UNL     1       2.084   5.263  -3.405  0.00  0.00    +0.006 C 
ATOM      4  C   UNL     1       1.661   6.353  -4.626  0.00  0.00    +0.034 C 
ATOM      5  C   UNL     1       2.485   5.500  -5.697  0.00  0.00    +0.168 C 
ATOM      6  C   UNL     1       3.918   5.111  -5.026  0.00  0.00    +0.182 C 
ATOM      7  O   UNL     1       4.763   5.759  -6.109  0.00  0.00    -0.220 OA
ATOM      8  F   UNL     1       2.032   4.165  -5.510  0.00  0.00    -0.237 F 
ATOM      9  C   UNL     1       2.327   5.760  -7.035  0.00  0.00    +0.064 C 
ATOM     10  C   UNL     1       0.843   5.560  -7.260  0.00  0.00    -0.036 C 
ATOM     11  C   UNL     1       0.414   5.479  -8.524  0.00  0.00    +0.034 C 
ATOM     12  C   UNL     1       1.300   4.775  -9.463  0.00  0.00    +0.195 C 
ATOM     13  C   UNL     1       2.412   4.054  -8.847  0.00  0.00    +0.038 C 
ATOM     14  O   UNL     1       0.926   4.574 -10.637  0.00  0.00    -0.287 OA
ATOM     15  C   UNL     1      -0.118   6.434  -6.320  0.00  0.00    +0.019 C 
ATOM     16  C   UNL     1      -1.417   5.483  -6.612  0.00  0.00    +0.004 C 
ATOM     17  C   UNL     1       2.773   6.875  -7.898  0.00  0.00    +0.011 C 
ATOM     18  C   UNL     1       2.887   4.549  -7.740  0.00  0.00    -0.017 C 
ATOM     19  C   UNL     1       0.245   5.624  -4.948  0.00  0.00    +0.007 C 
ATOM     20  C   UNL     1       1.097   5.768  -2.234  0.00  0.00    +0.003 C 
ATOM     21  C   UNL     1       2.537   7.601  -2.624  0.00  0.00    +0.003 C 
ATOM     22  C   UNL     1       4.123   6.393  -4.001  0.00  0.00    +0.038 C 
ATOM     23  C   UNL     1       2.041   5.209  -1.160  0.00  0.00    +0.038 C 
ATOM     24  O   UNL     1       4.283   4.489  -1.721  0.00  0.00    -0.218 OA
ENDROOT
BRANCH   1  26
ATOM     25  C   UNL     1       4.813   6.336  -0.234  0.00  0.00    +0.075 C 
ATOM     26  C   UNL     1       3.912   6.445  -0.474  0.00  0.00    +0.178 C 
ATOM     27  O   UNL     1       3.177   6.603   0.499  0.00  0.00    -0.293 OA
ENDBRANCH   1  26
TORSDOF 1
ENDMDL
MODEL 6
REMARK VINA RESULT:      -8.8      2.565      6.500
REMARK  Name = 
REMARK  1 active torsions:
REMARK  status: ('A' for Active; 'I' for Inactive)
REMARK    1  A    between atoms: C_2  and  C_4
REMARK                            x       y       z     vdW  Elec       q    Type
REMARK                         _______ _______ _______ _____ _____    ______ ____
ROOT
ATOM      1  C   UNL     1       1.945   6.035 -11.466  0.00  0.00    +0.177 C 
ATOM      2  C   UNL     1       2.022   5.360 -10.190  0.00  0.00    +0.035 C 
ATOM      3  C   UNL     1       1.488   6.623  -9.326  0.00  0.00    +0.006 C 
ATOM      4  C   UNL     1       1.269   5.621  -7.982  0.00  0.00    +0.034 C 
ATOM      5  C   UNL     1       2.634   6.151  -7.343  0.00  0.00    +0.168 C 
ATOM      6  C   UNL     1       3.760   6.171  -8.521  0.00  0.00    +0.182 C 
ATOM      7  O   UNL     1       4.735   5.253  -7.803  0.00  0.00    -0.220 OA
ATOM      8  F   UNL     1       2.532   7.568  -7.414  0.00  0.00    -0.237 F 
ATOM      9  C   UNL     1       2.923   5.867  -6.032  0.00  0.00    +0.064 C 
ATOM     10  C   UNL     1       1.748   6.452  -5.278  0.00  0.00    -0.036 C 
ATOM     11  C   UNL     1       1.863   6.573  -3.951  0.00  0.00    +0.034 C 
ATOM     12  C   UNL     1       3.193   6.951  -3.450  0.00  0.00    +0.195 C 
ATOM     13  C   UNL     1       4.147   7.374  -4.473  0.00  0.00    +0.038 C 
ATOM     14  O   UNL     1       3.356   7.177  -2.232  0.00  0.00    -0.287 OA
ATOM     15  C   UNL     1       0.305   5.933  -5.743  0.00  0.00    +0.019 C 
ATOM     16  C   UNL     1      -0.474   7.185  -5.034  0.00  0.00    +0.004 C 
ATOM     17  C   UNL     1       3.333   4.623  -5.345  0.00  0.00    +0.011 C 
ATOM     18  C   UNL     1       4.016   6.834  -5.651  0.00  0.00    -0.017 C 
ATOM     19  C   UNL     1       0.337   6.691  -7.191  0.00  0.00    +0.007 C 
ATOM     20  C   UNL     1       0.037   6.479 -10.015  0.00  0.00    +0.003 C 
ATOM     21  C   UNL     1       0.952   4.301 -10.101  0.00  0.00    +0.003 C 
ATOM     22  C   UNL     1       3.205   4.945  -9.483  0.00  0.00    +0.038 C 
ATOM     23  C   UNL     1       0.626   6.819 -11.391  0.00  0.00    +0.038 C 
ATOM     24  O   UNL     1       3.020   6.862 -11.749  0.00  0.00    -0.218 OA
ENDROOT
BRANCH   1  26
ATOM     25  C   UNL     1       2.392   5.109 -13.280  0.00  0.00    +0.075 C 
ATOM     26  C   UNL     1       1.684   5.160 -12.665  0.00  0.00    +0.178 C 
ATOM     27  O   UNL     1       0.583   5.180 -13.209  0.00  0.00    -0.293 OA
ENDBRANCH   1  26
TORSDOF 1
ENDMDL
MODEL 7
REMARK VINA RESULT:      -8.8      2.553      6.759
REMARK  Name = 
REMARK  1 active torsions:
REMARK  status: ('A' for Active; 'I' for Inactive)
REMARK    1  A    between atoms: C_2  and  C_4
REMARK                            x       y       z     vdW  Elec       q    Type
REMARK                         _______ _______ _______ _____ _____    ______ ____
ROOT
ATOM      1  C   UNL     1       2.901   5.547  -7.362  0.00  0.00    +0.177 C 
ATOM      2  C   UNL     1       2.506   4.927  -6.118  0.00  0.00    +0.035 C 
ATOM      3  C   UNL     1       1.601   6.174  -5.616  0.00  0.00    +0.006 C 
ATOM      4  C   UNL     1       0.927   5.208  -4.404  0.00  0.00    +0.034 C 
ATOM      5  C   UNL     1       1.894   5.869  -3.317  0.00  0.00    +0.168 C 
ATOM      6  C   UNL     1       3.391   5.935  -3.957  0.00  0.00    +0.182 C 
ATOM      7  O   UNL     1       4.054   5.125  -2.856  0.00  0.00    -0.220 OA
ATOM      8  F   UNL     1       1.745   7.269  -3.514  0.00  0.00    -0.237 F 
ATOM      9  C   UNL     1       1.656   5.656  -1.981  0.00  0.00    +0.064 C 
ATOM     10  C   UNL     1       0.247   6.173  -1.789  0.00  0.00    -0.036 C 
ATOM     11  C   UNL     1      -0.181   6.351  -0.534  0.00  0.00    +0.034 C 
ATOM     12  C   UNL     1       0.817   6.852   0.423  0.00  0.00    +0.195 C 
ATOM     13  C   UNL     1       2.072   7.313  -0.170  0.00  0.00    +0.038 C 
ATOM     14  O   UNL     1       0.471   7.135   1.590  0.00  0.00    -0.287 OA
ATOM     15  C   UNL     1      -0.862   5.523  -2.748  0.00  0.00    +0.019 C 
ATOM     16  C   UNL     1      -1.929   6.734  -2.484  0.00  0.00    +0.004 C 
ATOM     17  C   UNL     1       1.833   4.475  -1.109  0.00  0.00    +0.011 C 
ATOM     18  C   UNL     1       2.450   6.721  -1.266  0.00  0.00    -0.017 C 
ATOM     19  C   UNL     1      -0.304   6.228  -4.112  0.00  0.00    +0.007 C 
ATOM     20  C   UNL     1       0.552   5.890  -6.808  0.00  0.00    +0.003 C 
ATOM     21  C   UNL     1       1.553   3.791  -6.386  0.00  0.00    +0.003 C 
ATOM     22  C   UNL     1       3.335   4.634  -4.977  0.00  0.00    +0.038 C 
ATOM     23  C   UNL     1       1.616   6.225  -7.862  0.00  0.00    +0.038 C 
ATOM     24  O   UNL     1       3.949   6.446  -7.254  0.00  0.00    -0.218 OA
ENDROOT
BRANCH   1  26
ATOM     25  C   UNL     1       4.092   4.551  -8.754  0.00  0.00    +0.075 C 
ATOM     26  C   UNL     1       3.188   4.610  -8.508  0.00  0.00    +0.178 C 
ATOM     27  O   UNL     1       2.429   4.575  -9.473  0.00  0.00    -0.293 OA
ENDBRANCH   1  26
TORSDOF 1
ENDMDL
MODEL 8
REMARK VINA RESULT:      -8.5      3.391      5.995
REMARK  Name = 
REMARK  1 active torsions:
REMARK  status: ('A' for Active; 'I' for Inactive)
REMARK    1  A    between atoms: C_2  and  C_4
REMARK                            x       y       z     vdW  Elec       q    Type
REMARK                         _______ _______ _______ _____ _____    ______ ____
ROOT
ATOM      1  C   UNL     1       2.349   5.739  -6.938  0.00  0.00    +0.177 C 
ATOM      2  C   UNL     1       2.091   5.108  -8.213  0.00  0.00    +0.035 C 
ATOM      3  C   UNL     1       3.028   6.119  -9.066  0.00  0.00    +0.006 C 
ATOM      4  C   UNL     1       2.946   5.083 -10.399  0.00  0.00    +0.034 C 
ATOM      5  C   UNL     1       1.843   6.017 -11.080  0.00  0.00    +0.168 C 
ATOM      6  C   UNL     1       0.754   6.416  -9.935  0.00  0.00    +0.182 C 
ATOM      7  O   UNL     1      -0.446   5.853 -10.678  0.00  0.00    -0.220 OA
ATOM      8  F   UNL     1       2.396   7.325 -11.012  0.00  0.00    -0.237 F 
ATOM      9  C   UNL     1       1.512   5.824 -12.398  0.00  0.00    +0.064 C 
ATOM     10  C   UNL     1       2.832   5.987 -13.120  0.00  0.00    -0.036 C 
ATOM     11  C   UNL     1       2.798   6.122 -14.450  0.00  0.00    +0.034 C 
ATOM     12  C   UNL     1       1.675   6.903 -14.991  0.00  0.00    +0.195 C 
ATOM     13  C   UNL     1       0.884   7.625 -13.997  0.00  0.00    +0.038 C 
ATOM     14  O   UNL     1       1.626   7.153 -16.214  0.00  0.00    -0.287 OA
ATOM     15  C   UNL     1       4.017   5.035 -12.611  0.00  0.00    +0.019 C 
ATOM     16  C   UNL     1       5.177   5.958 -13.302  0.00  0.00    +0.004 C 
ATOM     17  C   UNL     1       0.740   4.771 -13.092  0.00  0.00    +0.011 C 
ATOM     18  C   UNL     1       0.801   7.088 -12.815  0.00  0.00    -0.017 C 
ATOM     19  C   UNL     1       4.195   5.783 -11.168  0.00  0.00    +0.007 C 
ATOM     20  C   UNL     1       4.336   5.522  -8.335  0.00  0.00    +0.003 C 
ATOM     21  C   UNL     1       2.763   3.759  -8.267  0.00  0.00    +0.003 C 
ATOM     22  C   UNL     1       0.857   5.088  -8.953  0.00  0.00    +0.038 C 
ATOM     23  C   UNL     1       3.853   6.053  -6.978  0.00  0.00    +0.038 C 
ATOM     24  O   UNL     1       1.593   6.872  -6.690  0.00  0.00    -0.218 OA
ENDROOT
BRANCH   1  26
ATOM     25  C   UNL     1       1.487   4.906  -5.232  0.00  0.00    +0.075 C 
ATOM     26  C   UNL     1       2.281   4.842  -5.729  0.00  0.00    +0.178 C 
ATOM     27  O   UNL     1       3.274   4.695  -5.020  0.00  0.00    -0.293 OA
ENDBRANCH   1  26
TORSDOF 1
ENDMDL
MODEL 9
REMARK VINA RESULT:      -8.4      1.618      6.731
REMARK  Name = 
REMARK  1 active torsions:
REMARK  status: ('A' for Active; 'I' for Inactive)
REMARK    1  A    between atoms: C_2  and  C_4
REMARK                            x       y       z     vdW  Elec       q    Type
REMARK                         _______ _______ _______ _____ _____    ______ ____
ROOT
ATOM      1  C   UNL     1       2.235   5.106  -9.347  0.00  0.00    +0.177 C 
ATOM      2  C   UNL     1       1.677   6.028  -8.384  0.00  0.00    +0.035 C 
ATOM      3  C   UNL     1       1.938   5.073  -7.101  0.00  0.00    +0.006 C 
ATOM      4  C   UNL     1       1.614   6.367  -6.062  0.00  0.00    +0.034 C 
ATOM      5  C   UNL     1       0.142   5.807  -5.796  0.00  0.00    +0.168 C 
ATOM      6  C   UNL     1      -0.493   5.373  -7.232  0.00  0.00    +0.182 C 
ATOM      7  O   UNL     1      -1.706   6.282  -7.134  0.00  0.00    -0.220 OA
ATOM      8  F   UNL     1       0.337   4.438  -5.466  0.00  0.00    -0.237 F 
ATOM      9  C   UNL     1      -0.606   6.331  -4.771  0.00  0.00    +0.064 C 
ATOM     10  C   UNL     1       0.256   6.095  -3.550  0.00  0.00    -0.036 C 
ATOM     11  C   UNL     1      -0.314   6.255  -2.350  0.00  0.00    +0.034 C 
ATOM     12  C   UNL     1      -1.713   5.816  -2.236  0.00  0.00    +0.195 C 
ATOM     13  C   UNL     1      -2.220   5.050  -3.373  0.00  0.00    +0.038 C 
ATOM     14  O   UNL     1      -2.283   5.844  -1.125  0.00  0.00    -0.287 OA
ATOM     15  C   UNL     1       1.741   6.693  -3.629  0.00  0.00    +0.019 C 
ATOM     16  C   UNL     1       2.284   5.748  -2.410  0.00  0.00    +0.004 C 
ATOM     17  C   UNL     1      -1.298   7.627  -4.598  0.00  0.00    +0.011 C 
ATOM     18  C   UNL     1      -1.711   5.330  -4.538  0.00  0.00    -0.017 C 
ATOM     19  C   UNL     1       2.262   5.637  -4.763  0.00  0.00    +0.007 C 
ATOM     20  C   UNL     1       3.529   5.261  -7.286  0.00  0.00    +0.003 C 
ATOM     21  C   UNL     1       2.589   7.218  -8.220  0.00  0.00    +0.003 C 
ATOM     22  C   UNL     1       0.300   6.422  -8.236  0.00  0.00    +0.038 C 
ATOM     23  C   UNL     1       3.483   4.548  -8.644  0.00  0.00    +0.038 C 
ATOM     24  O   UNL     1       1.376   4.097  -9.747  0.00  0.00    -0.218 OA
ENDROOT
BRANCH   1  26
ATOM     25  C   UNL     1       2.299   5.750 -11.329  0.00  0.00    +0.075 C 
ATOM     26  C   UNL     1       2.856   5.723 -10.574  0.00  0.00    +0.178 C 
ATOM     27  O   UNL     1       4.026   5.477 -10.857  0.00  0.00    -0.293 OA
ENDBRANCH   1  26
TORSDOF 1
ENDMDL
