MODEL 1
REMARK VINA RESULT:      -8.5      0.000      0.000
REMARK  Name = 
REMARK  4 active torsions:
REMARK  status: ('A' for Active; 'I' for Inactive)
REMARK    1  A    between atoms: C_2  and  CA_3
REMARK    2  A    between atoms: CA_3  and  C_4
REMARK    3  A    between atoms: CA_3  and  N_6
REMARK    4  A    between atoms: C_7  and  C_9
REMARK                            x       y       z     vdW  Elec       q    Type
REMARK                         _______ _______ _______ _____ _____    ______ ____
ROOT
ATOM      1  C   UNL     1       3.806   4.863  -7.407  0.00  0.00    +0.116 C 
ATOM      2  C   UNL     1       3.306   4.215  -8.810  0.00  0.00    +0.086 C 
ATOM      3  N   UNL     1       2.996   4.991  -9.823  0.00  0.00    -0.268 NA
ATOM      4  C   UNL     1       1.774   4.948 -10.534  0.00  0.00    +0.090 C 
ATOM      5  C   UNL     1       3.269   6.521  -9.606  0.00  0.00    +0.084 C 
ATOM      6  C   UNL     1       4.816   6.222  -9.273  0.00  0.00    -0.011 C 
ATOM      7  C   UNL     1       5.816   6.228 -10.269  0.00  0.00    -0.002 A 
ATOM      8  C   UNL     1       5.500   5.794 -11.523  0.00  0.00    +0.015 A 
ATOM      9  C   UNL     1       6.308   5.243 -12.453  0.00  0.00    +0.081 A 
ATOM     10  N   UNL     1       5.476   4.919 -13.441  0.00  0.00    -0.244 NA
ATOM     11  C   UNL     1       4.206   5.322 -13.162  0.00  0.00    +0.095 A 
ATOM     12  C   UNL     1       7.601   4.980 -12.019  0.00  0.00    +0.019 A 
ATOM     13  C   UNL     1       8.041   5.644 -10.874  0.00  0.00    +0.002 A 
ATOM     14  C   UNL     1       4.164   5.720 -11.829  0.00  0.00    +0.000 A 
ATOM     15  C   UNL     1       7.144   6.086  -9.901  0.00  0.00    -0.000 A 
ATOM     16  C   UNL     1       3.416   6.840 -11.212  0.00  0.00    +0.048 C 
ATOM     17  C   UNL     1       4.932   5.792  -8.075  0.00  0.00    -0.019 C 
ENDROOT
BRANCH   1  19
ATOM     18  N   UNL     1       1.539   5.371  -6.789  0.00  0.00    -0.204 NA
ATOM     19  C   UNL     1       2.682   6.030  -7.349  0.00  0.00    +0.246 C 
ATOM     20  O   UNL     1       3.098   6.865  -6.476  0.00  0.00    -0.273 OA
BRANCH  18  21
ATOM     21  CA  UNL     1       0.356   6.229  -6.228  0.00  0.00    +0.128 C 
BRANCH  21  23
ATOM     22  C   UNL     1      -1.619   5.404  -6.749  0.00  0.00    +0.002 C 
ATOM     23  C   UNL     1      -0.738   5.399  -7.132  0.00  0.00    +0.024 C 
ENDBRANCH  21  23
BRANCH  21  24
ATOM     24  C   UNL     1       0.061   5.267  -4.931  0.00  0.00    +0.204 C 
ATOM     25  O   UNL     1       1.301   5.002  -4.388  0.00  0.00    -0.219 OA
ENDBRANCH  21  24
ENDBRANCH  18  21
ENDBRANCH   1  19
TORSDOF 4
ENDMDL
MODEL 2
REMARK VINA RESULT:      -8.4      2.400      8.033
REMARK  Name = 
REMARK  4 active torsions:
REMARK  status: ('A' for Active; 'I' for Inactive)
REMARK    1  A    between atoms: C_2  and  CA_3
REMARK    2  A    between atoms: CA_3  and  C_4
REMARK    3  A    between atoms: CA_3  and  N_6
REMARK    4  A    between atoms: C_7  and  C_9
REMARK                            x       y       z     vdW  Elec       q    Type
REMARK                         _______ _______ _______ _____ _____    ______ ____
ROOT
ATOM      1  C   UNL     1       0.944   5.104  -7.879  0.00  0.00    +0.116 C 
ATOM      2  C   UNL     1       1.522   4.332  -6.572  0.00  0.00    +0.086 C 
ATOM      3  N   UNL     1       2.002   5.015  -5.559  0.00  0.00    -0.268 NA
ATOM      4  C   UNL     1       3.281   4.824  -4.985  0.00  0.00    +0.090 C 
ATOM      5  C   UNL     1       1.851   6.574  -5.668  0.00  0.00    +0.084 C 
ATOM      6  C   UNL     1       0.257   6.429  -5.849  0.00  0.00    -0.011 C 
ATOM      7  C   UNL     1      -0.632   6.462  -4.754  0.00  0.00    -0.002 A 
ATOM      8  C   UNL     1      -0.232   5.927  -3.564  0.00  0.00    +0.015 A 
ATOM      9  C   UNL     1      -0.989   5.393  -2.582  0.00  0.00    +0.081 A 
ATOM     10  N   UNL     1      -0.094   4.940  -1.707  0.00  0.00    -0.244 NA
ATOM     11  C   UNL     1       1.172   5.247  -2.098  0.00  0.00    +0.095 A 
ATOM     12  C   UNL     1      -2.338   5.269  -2.889  0.00  0.00    +0.019 A 
ATOM     13  C   UNL     1      -2.829   6.036  -3.946  0.00  0.00    +0.002 A 
ATOM     14  C   UNL     1       1.116   5.720  -3.406  0.00  0.00    +0.000 A 
ATOM     15  C   UNL     1      -1.997   6.457  -4.985  0.00  0.00    -0.000 A 
ATOM     16  C   UNL     1       1.897   6.806  -4.041  0.00  0.00    +0.048 C 
ATOM     17  C   UNL     1      -0.019   6.084  -7.048  0.00  0.00    -0.019 C 
ENDROOT
BRANCH   1  19
ATOM     18  N   UNL     1       3.165   5.458  -8.728  0.00  0.00    -0.204 NA
ATOM     19  C   UNL     1       2.159   6.170  -7.997  0.00  0.00    +0.246 C 
ATOM     20  O   UNL     1       1.727   7.100  -8.761  0.00  0.00    -0.273 OA
BRANCH  18  21
ATOM     21  CA  UNL     1       4.352   6.250  -9.370  0.00  0.00    +0.128 C 
BRANCH  21  23
ATOM     22  C   UNL     1       6.347   5.412  -8.954  0.00  0.00    +0.002 C 
ATOM     23  C   UNL     1       5.459   5.308  -8.602  0.00  0.00    +0.024 C 
ENDBRANCH  21  23
BRANCH  21  24
ATOM     24  C   UNL     1       4.453   5.322 -10.720  0.00  0.00    +0.204 C 
ATOM     25  O   UNL     1       3.483   5.814 -11.569  0.00  0.00    -0.219 OA
ENDBRANCH  21  24
ENDBRANCH  18  21
ENDBRANCH   1  19
TORSDOF 4
ENDMDL
MODEL 3
REMARK VINA RESULT:      -8.1      2.341      7.057
REMARK  Name = 
REMARK  4 active torsions:
REMARK  status: ('A' for Active; 'I' for Inactive)
REMARK    1  A    between atoms: C_2  and  CA_3
REMARK    2  A    between atoms: CA_3  and  C_4
REMARK    3  A    between atoms: CA_3  and  N_6
REMARK    4  A    between atoms: C_7  and  C_9
REMARK                            x       y       z     vdW  Elec       q    Type
REMARK                         _______ _______ _______ _____ _____    ______ ____
ROOT
ATOM      1  C   UNL     1       3.083   4.684 -10.288  0.00  0.00    +0.116 C 
ATOM      2  C   UNL     1       3.603   4.303  -8.798  0.00  0.00    +0.086 C 
ATOM      3  N   UNL     1       3.771   5.243  -7.895  0.00  0.00    -0.268 NA
ATOM      4  C   UNL     1       4.958   5.456  -7.157  0.00  0.00    +0.090 C 
ATOM      5  C   UNL     1       3.317   6.681  -8.331  0.00  0.00    +0.084 C 
ATOM      6  C   UNL     1       1.835   6.141  -8.654  0.00  0.00    -0.011 C 
ATOM      7  C   UNL     1       0.802   6.152  -7.693  0.00  0.00    -0.002 A 
ATOM      8  C   UNL     1       1.118   5.937  -6.383  0.00  0.00    +0.015 A 
ATOM      9  C   UNL     1       0.348   5.417  -5.405  0.00  0.00    +0.081 A 
ATOM     10  N   UNL     1       1.173   5.341  -4.363  0.00  0.00    -0.244 NA
ATOM     11  C   UNL     1       2.392   5.863  -4.665  0.00  0.00    +0.095 A 
ATOM     12  C   UNL     1      -0.883   4.932  -5.827  0.00  0.00    +0.019 A 
ATOM     13  C   UNL     1      -1.355   5.371  -7.064  0.00  0.00    +0.002 A 
ATOM     14  C   UNL     1       2.439   6.079  -6.040  0.00  0.00    +0.000 A 
ATOM     15  C   UNL     1      -0.481   5.790  -8.068  0.00  0.00    -0.000 A 
ATOM     16  C   UNL     1       3.065   7.192  -6.789  0.00  0.00    +0.048 C 
ATOM     17  C   UNL     1       1.823   5.541  -9.783  0.00  0.00    -0.019 C 
ENDROOT
BRANCH   1  19
ATOM     18  N   UNL     1       5.302   5.391 -10.886  0.00  0.00    -0.204 NA
ATOM     19  C   UNL     1       4.054   5.968 -10.483  0.00  0.00    +0.246 C 
ATOM     20  O   UNL     1       3.590   6.600 -11.492  0.00  0.00    -0.273 OA
BRANCH  18  21
ATOM     21  CA  UNL     1       6.399   6.305 -11.525  0.00  0.00    +0.128 C 
BRANCH  21  23
ATOM     22  C   UNL     1       7.583   5.760  -9.748  0.00  0.00    +0.002 C 
ATOM     23  C   UNL     1       7.121   6.541 -10.067  0.00  0.00    +0.024 C 
ENDBRANCH  21  23
BRANCH  21  24
ATOM     24  C   UNL     1       7.440   5.085 -11.878  0.00  0.00    +0.204 C 
ATOM     25  O   UNL     1       7.329   4.899 -13.241  0.00  0.00    -0.219 OA
ENDBRANCH  21  24
ENDBRANCH  18  21
ENDBRANCH   1  19
TORSDOF 4
ENDMDL
MODEL 4
REMARK VINA RESULT:      -8.1      3.608      6.107
REMARK  Name = 
REMARK  4 active torsions:
REMARK  status: ('A' for Active; 'I' for Inactive)
REMARK    1  A    between atoms: C_2  and  CA_3
REMARK    2  A    between atoms: CA_3  and  C_4
REMARK    3  A    between atoms: CA_3  and  N_6
REMARK    4  A    between atoms: C_7  and  C_9
REMARK                            x       y       z     vdW  Elec       q    Type
REMARK                         _______ _______ _______ _____ _____    ______ ____
ROOT
ATOM      1  C   UNL     1      -1.883   6.837  -5.017  0.00  0.00    +0.116 C 
ATOM      2  C   UNL     1      -0.400   7.497  -5.023  0.00  0.00    +0.086 C 
ATOM      3  N   UNL     1       0.666   6.728  -5.018  0.00  0.00    -0.268 NA
ATOM      4  C   UNL     1       1.730   6.823  -4.091  0.00  0.00    +0.090 C 
ATOM      5  C   UNL     1       0.384   5.189  -5.135  0.00  0.00    +0.084 C 
ATOM      6  C   UNL     1      -0.428   5.418  -6.506  0.00  0.00    -0.011 C 
ATOM      7  C   UNL     1       0.195   5.357  -7.771  0.00  0.00    -0.002 A 
ATOM      8  C   UNL     1       1.481   5.796  -7.894  0.00  0.00    +0.015 A 
ATOM      9  C   UNL     1       2.099   6.301  -8.982  0.00  0.00    +0.081 A 
ATOM     10  N   UNL     1       3.299   6.656  -8.526  0.00  0.00    -0.244 NA
ATOM     11  C   UNL     1       3.444   6.315  -7.216  0.00  0.00    +0.095 A 
ATOM     12  C   UNL     1       1.272   6.506 -10.079  0.00  0.00    +0.019 A 
ATOM     13  C   UNL     1       0.052   5.831 -10.098  0.00  0.00    +0.002 A 
ATOM     14  C   UNL     1       2.197   5.930  -6.731  0.00  0.00    +0.000 A 
ATOM     15  C   UNL     1      -0.580   5.440  -8.916  0.00  0.00    -0.000 A 
ATOM     16  C   UNL     1       1.861   4.851  -5.774  0.00  0.00    +0.048 C 
ATOM     17  C   UNL     1      -1.604   5.851  -6.253  0.00  0.00    -0.019 C 
ENDROOT
BRANCH   1  19
ATOM     18  N   UNL     1      -1.471   6.492  -2.674  0.00  0.00    -0.204 NA
ATOM     19  C   UNL     1      -1.570   5.725  -3.880  0.00  0.00    +0.246 C 
ATOM     20  O   UNL     1      -2.631   5.018  -3.788  0.00  0.00    -0.273 OA
BRANCH  18  21
ATOM     21  CA  UNL     1      -1.538   5.762  -1.291  0.00  0.00    +0.128 C 
BRANCH  21  23
ATOM     22  C   UNL     1       0.610   5.595  -0.827  0.00  0.00    +0.002 C 
ATOM     23  C   UNL     1      -0.001   5.203  -1.458  0.00  0.00    +0.024 C 
ENDBRANCH  21  23
BRANCH  21  24
ATOM     24  C   UNL     1      -1.010   7.041  -0.408  0.00  0.00    +0.204 C 
ATOM     25  O   UNL     1      -1.739   8.120  -0.865  0.00  0.00    -0.219 OA
ENDBRANCH  21  24
ENDBRANCH  18  21
ENDBRANCH   1  19
TORSDOF 4
ENDMDL
MODEL 5
REMARK VINA RESULT:      -8.1      2.362      7.122
REMARK  Name = 
REMARK  4 active torsions:
REMARK  status: ('A' for Active; 'I' for Inactive)
REMARK    1  A    between atoms: C_2  and  CA_3
REMARK    2  A    between atoms: CA_3  and  C_4
REMARK    3  A    between atoms: CA_3  and  N_6
REMARK    4  A    between atoms: C_7  and  C_9
REMARK                            x       y       z     vdW  Elec       q    Type
REMARK                         _______ _______ _______ _____ _____    ______ ____
ROOT
ATOM      1  C   UNL     1       1.446   4.811  -9.450  0.00  0.00    +0.116 C 
ATOM      2  C   UNL     1       2.531   4.382  -8.322  0.00  0.00    +0.086 C 
ATOM      3  N   UNL     1       3.122   5.299  -7.590  0.00  0.00    -0.268 NA
ATOM      4  C   UNL     1       4.521   5.437  -7.435  0.00  0.00    +0.090 C 
ATOM      5  C   UNL     1       2.606   6.766  -7.807  0.00  0.00    +0.084 C 
ATOM      6  C   UNL     1       1.101   6.313  -7.457  0.00  0.00    -0.011 C 
ATOM      7  C   UNL     1       0.582   6.370  -6.147  0.00  0.00    -0.002 A 
ATOM      8  C   UNL     1       1.416   6.121  -5.096  0.00  0.00    +0.015 A 
ATOM      9  C   UNL     1       1.112   5.632  -3.875  0.00  0.00    +0.081 A 
ATOM     10  N   UNL     1       2.298   5.497  -3.286  0.00  0.00    -0.244 NA
ATOM     11  C   UNL     1       3.297   5.955  -4.089  0.00  0.00    +0.095 A 
ATOM     12  C   UNL     1      -0.207   5.222  -3.724  0.00  0.00    +0.019 A 
ATOM     13  C   UNL     1      -1.138   5.702  -4.644  0.00  0.00    +0.002 A 
ATOM     14  C   UNL     1       2.763   6.185  -5.353  0.00  0.00    +0.000 A 
ATOM     15  C   UNL     1      -0.756   6.084  -5.931  0.00  0.00    -0.000 A 
ATOM     16  C   UNL     1       3.068   7.271  -6.312  0.00  0.00    +0.048 C 
ATOM     17  C   UNL     1       0.573   5.730  -8.465  0.00  0.00    -0.019 C 
ENDROOT
BRANCH   1  19
ATOM     18  N   UNL     1       3.309   5.393 -10.853  0.00  0.00    -0.204 NA
ATOM     19  C   UNL     1       2.309   6.041 -10.058  0.00  0.00    +0.246 C 
ATOM     20  O   UNL     1       1.524   6.646 -10.865  0.00  0.00    -0.273 OA
BRANCH  18  21
ATOM     21  CA  UNL     1       4.120   6.228 -11.899  0.00  0.00    +0.128 C 
BRANCH  21  23
ATOM     22  C   UNL     1       5.613   7.609 -11.051  0.00  0.00    +0.002 C 
ATOM     23  C   UNL     1       4.989   6.961 -10.712  0.00  0.00    +0.024 C 
ENDBRANCH  21  23
BRANCH  21  24
ATOM     24  C   UNL     1       5.302   5.111 -12.117  0.00  0.00    +0.204 C 
ATOM     25  O   UNL     1       5.182   4.711 -13.432  0.00  0.00    -0.219 OA
ENDBRANCH  21  24
ENDBRANCH  18  21
ENDBRANCH   1  19
TORSDOF 4
ENDMDL
MODEL 6
REMARK VINA RESULT:      -7.9      2.215      4.426
REMARK  Name = 
REMARK  4 active torsions:
REMARK  status: ('A' for Active; 'I' for Inactive)
REMARK    1  A    between atoms: C_2  and  CA_3
REMARK    2  A    between atoms: CA_3  and  C_4
REMARK    3  A    between atoms: CA_3  and  N_6
REMARK    4  A    between atoms: C_7  and  C_9
REMARK                            x       y       z     vdW  Elec       q    Type
REMARK                         _______ _______ _______ _____ _____    ______ ____
ROOT
ATOM      1  C   UNL     1       1.196   6.846  -6.340  0.00  0.00    +0.116 C 
ATOM      2  C   UNL     1       2.591   7.152  -7.113  0.00  0.00    +0.086 C 
ATOM      3  N   UNL     1       3.290   6.167  -7.630  0.00  0.00    -0.268 NA
ATOM      4  C   UNL     1       4.659   5.921  -7.372  0.00  0.00    +0.090 C 
ATOM      5  C   UNL     1       2.616   4.752  -7.551  0.00  0.00    +0.084 C 
ATOM      6  C   UNL     1       1.317   5.302  -8.327  0.00  0.00    -0.011 C 
ATOM      7  C   UNL     1       1.194   5.235  -9.731  0.00  0.00    -0.002 A 
ATOM      8  C   UNL     1       2.312   5.384 -10.499  0.00  0.00    +0.015 A 
ATOM      9  C   UNL     1       2.412   5.849 -11.762  0.00  0.00    +0.081 A 
ATOM     10  N   UNL     1       3.724   5.874 -11.984  0.00  0.00    -0.244 NA
ATOM     11  C   UNL     1       4.410   5.373 -10.921  0.00  0.00    +0.095 A 
ATOM     12  C   UNL     1       1.230   6.350 -12.294  0.00  0.00    +0.019 A 
ATOM     13  C   UNL     1       0.038   5.973 -11.676  0.00  0.00    +0.002 A 
ATOM     14  C   UNL     1       3.518   5.230  -9.862  0.00  0.00    +0.000 A 
ATOM     15  C   UNL     1       0.001   5.611 -10.328  0.00  0.00    -0.000 A 
ATOM     16  C   UNL     1       3.446   4.160  -8.842  0.00  0.00    +0.048 C 
ATOM     17  C   UNL     1       0.571   5.959  -7.524  0.00  0.00    -0.019 C 
ENDROOT
BRANCH   1  19
ATOM     18  N   UNL     1       2.533   6.179  -4.458  0.00  0.00    -0.204 NA
ATOM     19  C   UNL     1       1.745   5.578  -5.493  0.00  0.00    +0.246 C 
ATOM     20  O   UNL     1       0.716   5.069  -4.932  0.00  0.00    -0.273 OA
BRANCH  18  21
ATOM     21  CA  UNL     1       2.942   5.326  -3.211  0.00  0.00    +0.128 C 
BRANCH  21  23
ATOM     22  C   UNL     1       4.901   4.683  -3.989  0.00  0.00    +0.002 C 
ATOM     23  C   UNL     1       4.539   5.472  -3.575  0.00  0.00    +0.024 C 
ENDBRANCH  21  23
BRANCH  21  24
ATOM     24  C   UNL     1       3.032   6.593  -2.171  0.00  0.00    +0.204 C 
ATOM     25  O   UNL     1       3.264   7.697  -2.967  0.00  0.00    -0.219 OA
ENDBRANCH  21  24
ENDBRANCH  18  21
ENDBRANCH   1  19
TORSDOF 4
ENDMDL
MODEL 7
REMARK VINA RESULT:      -7.9      3.160      6.330
REMARK  Name = 
REMARK  4 active torsions:
REMARK  status: ('A' for Active; 'I' for Inactive)
REMARK    1  A    between atoms: C_2  and  CA_3
REMARK    2  A    between atoms: CA_3  and  C_4
REMARK    3  A    between atoms: CA_3  and  N_6
REMARK    4  A    between atoms: C_7  and  C_9
REMARK                            x       y       z     vdW  Elec       q    Type
REMARK                         _______ _______ _______ _____ _____    ______ ____
ROOT
ATOM      1  C   UNL     1       3.232   6.979  -8.579  0.00  0.00    +0.116 C 
ATOM      2  C   UNL     1       1.902   7.231  -7.682  0.00  0.00    +0.086 C 
ATOM      3  N   UNL     1       1.235   6.213  -7.187  0.00  0.00    -0.268 NA
ATOM      4  C   UNL     1      -0.151   5.991  -7.357  0.00  0.00    +0.090 C 
ATOM      5  C   UNL     1       1.889   4.805  -7.421  0.00  0.00    +0.084 C 
ATOM      6  C   UNL     1       3.248   5.292  -6.708  0.00  0.00    -0.011 C 
ATOM      7  C   UNL     1       3.477   5.122  -5.326  0.00  0.00    -0.002 A 
ATOM      8  C   UNL     1       2.421   5.216  -4.466  0.00  0.00    +0.015 A 
ATOM      9  C   UNL     1       2.421   5.586  -3.168  0.00  0.00    +0.081 A 
ATOM     10  N   UNL     1       1.130   5.599  -2.846  0.00  0.00    -0.244 NA
ATOM     11  C   UNL     1       0.361   5.181  -3.887  0.00  0.00    +0.095 A 
ATOM     12  C   UNL     1       3.644   6.043  -2.693  0.00  0.00    +0.019 A 
ATOM     13  C   UNL     1       4.783   5.710  -3.426  0.00  0.00    +0.002 A 
ATOM     14  C   UNL     1       1.169   5.113  -5.019  0.00  0.00    +0.000 A 
ATOM     15  C   UNL     1       4.714   5.448  -4.795  0.00  0.00    -0.000 A 
ATOM     16  C   UNL     1       1.155   4.122  -6.118  0.00  0.00    +0.048 C 
ATOM     17  C   UNL     1       3.936   6.005  -7.515  0.00  0.00    -0.019 C 
ENDROOT
BRANCH   1  19
ATOM     18  N   UNL     1       1.787   6.461 -10.429  0.00  0.00    -0.204 NA
ATOM     19  C   UNL     1       2.609   5.779  -9.473  0.00  0.00    +0.246 C 
ATOM     20  O   UNL     1       3.595   5.282 -10.116  0.00  0.00    -0.273 OA
BRANCH  18  21
ATOM     21  CA  UNL     1       1.295   5.697 -11.703  0.00  0.00    +0.128 C 
BRANCH  21  23
ATOM     22  C   UNL     1      -0.071   4.161 -10.909  0.00  0.00    +0.002 C 
ATOM     23  C   UNL     1      -0.024   5.121 -10.907  0.00  0.00    +0.024 C 
ENDBRANCH  21  23
BRANCH  21  24
ATOM     24  C   UNL     1       0.421   6.945 -12.312  0.00  0.00    +0.204 C 
ATOM     25  O   UNL     1      -0.096   7.595 -11.210  0.00  0.00    -0.219 OA
ENDBRANCH  21  24
ENDBRANCH  18  21
ENDBRANCH   1  19
TORSDOF 4
ENDMDL
MODEL 8
REMARK VINA RESULT:      -7.8      2.088      3.430
REMARK  Name = 
REMARK  4 active torsions:
REMARK  status: ('A' for Active; 'I' for Inactive)
REMARK    1  A    between atoms: C_2  and  CA_3
REMARK    2  A    between atoms: CA_3  and  C_4
REMARK    3  A    between atoms: CA_3  and  N_6
REMARK    4  A    between atoms: C_7  and  C_9
REMARK                            x       y       z     vdW  Elec       q    Type
REMARK                         _______ _______ _______ _____ _____    ______ ____
ROOT
ATOM      1  C   UNL     1       3.108   4.489  -5.128  0.00  0.00    +0.116 C 
ATOM      2  C   UNL     1       1.933   4.380  -6.243  0.00  0.00    +0.086 C 
ATOM      3  N   UNL     1       1.485   5.461  -6.839  0.00  0.00    -0.268 NA
ATOM      4  C   UNL     1       0.125   5.844  -6.910  0.00  0.00    +0.090 C 
ATOM      5  C   UNL     1       2.247   6.788  -6.486  0.00  0.00    +0.084 C 
ATOM      6  C   UNL     1       3.643   6.138  -6.957  0.00  0.00    -0.011 C 
ATOM      7  C   UNL     1       4.125   6.262  -8.277  0.00  0.00    -0.002 A 
ATOM      8  C   UNL     1       3.230   6.278  -9.307  0.00  0.00    +0.015 A 
ATOM      9  C   UNL     1       3.411   5.892 -10.588  0.00  0.00    +0.081 A 
ATOM     10  N   UNL     1       2.202   6.024 -11.129  0.00  0.00    -0.244 NA
ATOM     11  C   UNL     1       1.319   6.543 -10.233  0.00  0.00    +0.095 A 
ATOM     12  C   UNL     1       4.636   5.291 -10.848  0.00  0.00    +0.019 A 
ATOM     13  C   UNL     1       5.662   5.501  -9.926  0.00  0.00    +0.002 A 
ATOM     14  C   UNL     1       1.922   6.532  -8.979  0.00  0.00    +0.000 A 
ATOM     15  C   UNL     1       5.389   5.787  -8.588  0.00  0.00    -0.000 A 
ATOM     16  C   UNL     1       1.833   7.533  -7.892  0.00  0.00    +0.048 C 
ATOM     17  C   UNL     1       4.094   5.361  -6.047  0.00  0.00    -0.019 C 
ENDROOT
BRANCH   1  19
ATOM     18  N   UNL     1       1.390   5.207  -3.608  0.00  0.00    -0.204 NA
ATOM     19  C   UNL     1       2.484   5.765  -4.347  0.00  0.00    +0.246 C 
ATOM     20  O   UNL     1       3.371   6.115  -3.496  0.00  0.00    -0.273 OA
BRANCH  18  21
ATOM     21  CA  UNL     1       0.751   6.032  -2.442  0.00  0.00    +0.128 C 
BRANCH  21  23
ATOM     22  C   UNL     1      -1.410   5.716  -2.151  0.00  0.00    +0.002 C 
ATOM     23  C   UNL     1      -0.753   5.478  -2.810  0.00  0.00    +0.024 C 
ENDBRANCH  21  23
BRANCH  21  24
ATOM     24  C   UNL     1       0.934   4.867  -1.301  0.00  0.00    +0.204 C 
ATOM     25  O   UNL     1       1.691   5.452  -0.306  0.00  0.00    -0.219 OA
ENDBRANCH  21  24
ENDBRANCH  18  21
ENDBRANCH   1  19
TORSDOF 4
ENDMDL
MODEL 9
REMARK VINA RESULT:      -7.7      2.843      6.963
REMARK  Name = 
REMARK  4 active torsions:
REMARK  status: ('A' for Active; 'I' for Inactive)
REMARK    1  A    between atoms: C_2  and  CA_3
REMARK    2  A    between atoms: CA_3  and  C_4
REMARK    3  A    between atoms: CA_3  and  N_6
REMARK    4  A    between atoms: C_7  and  C_9
REMARK                            x       y       z     vdW  Elec       q    Type
REMARK                         _______ _______ _______ _____ _____    ______ ____
ROOT
ATOM      1  C   UNL     1       0.678   4.569 -10.134  0.00  0.00    +0.116 C 
ATOM      2  C   UNL     1       2.119   4.545  -9.385  0.00  0.00    +0.086 C 
ATOM      3  N   UNL     1       2.646   5.659  -8.929  0.00  0.00    -0.268 NA
ATOM      4  C   UNL     1       3.946   6.125  -9.232  0.00  0.00    +0.090 C 
ATOM      5  C   UNL     1       1.735   6.932  -9.051  0.00  0.00    +0.084 C 
ATOM      6  C   UNL     1       0.565   6.203  -8.219  0.00  0.00    -0.011 C 
ATOM      7  C   UNL     1       0.456   6.313  -6.817  0.00  0.00    -0.002 A 
ATOM      8  C   UNL     1       1.597   6.396  -6.072  0.00  0.00    +0.015 A 
ATOM      9  C   UNL     1       1.798   6.015  -4.793  0.00  0.00    +0.081 A 
ATOM     10  N   UNL     1       3.099   6.227  -4.603  0.00  0.00    -0.244 NA
ATOM     11  C   UNL     1       3.668   6.788  -5.704  0.00  0.00    +0.095 A 
ATOM     12  C   UNL     1       0.731   5.344  -4.210  0.00  0.00    +0.019 A 
ATOM     13  C   UNL     1      -0.519   5.480  -4.813  0.00  0.00    +0.002 A 
ATOM     14  C   UNL     1       2.746   6.726  -6.745  0.00  0.00    +0.000 A 
ATOM     15  C   UNL     1      -0.642   5.766  -6.174  0.00  0.00    -0.000 A 
ATOM     16  C   UNL     1       2.472   7.718  -7.809  0.00  0.00    +0.048 C 
ATOM     17  C   UNL     1      -0.070   5.390  -8.974  0.00  0.00    -0.019 C 
ENDROOT
BRANCH   1  19
ATOM     18  N   UNL     1       1.689   5.335 -12.176  0.00  0.00    -0.204 NA
ATOM     19  C   UNL     1       0.984   5.871 -11.049  0.00  0.00    +0.246 C 
ATOM     20  O   UNL     1      -0.154   6.268 -11.474  0.00  0.00    -0.273 OA
BRANCH  18  21
ATOM     21  CA  UNL     1       1.846   6.204 -13.468  0.00  0.00    +0.128 C 
BRANCH  21  23
ATOM     22  C   UNL     1       3.993   5.721 -13.583  0.00  0.00    +0.002 C 
ATOM     23  C   UNL     1       3.176   5.356 -13.934  0.00  0.00    +0.024 C 
ENDBRANCH  21  23
BRANCH  21  24
ATOM     24  C   UNL     1       0.882   5.268 -14.410  0.00  0.00    +0.204 C 
ATOM     25  O   UNL     1       0.556   6.061 -15.492  0.00  0.00    -0.219 OA
ENDBRANCH  21  24
ENDBRANCH  18  21
ENDBRANCH   1  19
TORSDOF 4
ENDMDL
