MODEL 1
REMARK VINA RESULT:     -10.4      0.000      0.000
REMARK  Name = 
REMARK  6 active torsions:
REMARK  status: ('A' for Active; 'I' for Inactive)
REMARK    1  A    between atoms: C_2  and  C_3
REMARK    2  A    between atoms: C_2  and  C_19
REMARK    3  A    between atoms: C_3  and  N_4
REMARK    4  A    between atoms: N_4  and  C_5
REMARK    5  A    between atoms: C_5  and  C_6
REMARK    6  A    between atoms: C_6  and  C_8
REMARK                            x       y       z     vdW  Elec       q    Type
REMARK                         _______ _______ _______ _____ _____    ______ ____
ROOT
ATOM      1  N   UNL     1       0.670   5.328  -8.706  0.00  0.00    -0.212 NA
ENDROOT
BRANCH   1   2
ATOM      2  C   UNL     1       0.745   5.996  -7.477  0.00  0.00    +0.125 C 
BRANCH   2   4
ATOM      3  O   UNL     1       1.448   4.737  -5.731  0.00  0.00    -0.218 OA
ATOM      4  C   UNL     1       0.100   4.980  -6.366  0.00  0.00    +0.209 C 
BRANCH   4   5
ATOM      5  C   UNL     1      -0.214   6.260  -5.262  0.00  0.00    +0.198 C 
ATOM      6  O   UNL     1      -0.414   5.261  -4.120  0.00  0.00    -0.477 OA
ATOM      7  C   UNL     1      -1.097   5.734  -3.014  0.00  0.00    +0.135 A 
ATOM      8  C   UNL     1      -1.930   6.826  -3.212  0.00  0.00    +0.014 A 
ATOM      9  C   UNL     1      -2.403   7.468  -2.104  0.00  0.00    +0.028 A 
ATOM     10  C   UNL     1      -1.754   7.334  -0.882  0.00  0.00    +0.140 A 
ATOM     11  C   UNL     1      -0.971   6.224  -0.640  0.00  0.00    +0.033 A 
ATOM     12  F   UNL     1      -2.042   8.266   0.051  0.00  0.00    -0.204 F 
ATOM     13  C   UNL     1      -2.330   7.227  -4.574  0.00  0.00    +0.033 C 
ATOM     14  C   UNL     1      -0.577   5.482  -1.751  0.00  0.00    +0.039 A 
ATOM     15  C   UNL     1      -1.807   6.267  -5.624  0.00  0.00    +0.051 C 
ENDBRANCH   4   5
ENDBRANCH   2   4
ENDBRANCH   1   2
BRANCH   1  16
ATOM     16  C   UNL     1       1.808   4.752  -9.283  0.00  0.00    +0.125 C 
BRANCH  16  17
ATOM     17  C   UNL     1       2.779   5.948  -9.830  0.00  0.00    +0.209 C 
ATOM     18  O   UNL     1       2.170   5.912 -11.213  0.00  0.00    -0.218 OA
BRANCH  17  19
ATOM     19  C   UNL     1       4.065   4.835 -10.170  0.00  0.00    +0.198 C 
ATOM     20  O   UNL     1       4.638   5.649 -11.330  0.00  0.00    -0.477 OA
ATOM     21  C   UNL     1       5.946   5.731 -11.566  0.00  0.00    +0.135 A 
ATOM     22  C   UNL     1       6.777   6.102 -10.527  0.00  0.00    +0.014 A 
ATOM     23  C   UNL     1       8.128   6.019 -10.722  0.00  0.00    +0.028 A 
ATOM     24  C   UNL     1       8.586   5.744 -12.005  0.00  0.00    +0.140 A 
ATOM     25  C   UNL     1       7.744   6.192 -13.019  0.00  0.00    +0.033 A 
ATOM     26  F   UNL     1       9.904   5.792 -12.277  0.00  0.00    -0.204 F 
ATOM     27  C   UNL     1       6.256   5.789  -9.198  0.00  0.00    +0.033 C 
ATOM     28  C   UNL     1       6.402   5.864 -12.869  0.00  0.00    +0.039 A 
ATOM     29  C   UNL     1       4.919   5.488  -8.947  0.00  0.00    +0.051 C 
ENDBRANCH  17  19
ENDBRANCH  16  17
ENDBRANCH   1  16
TORSDOF 6
ENDMDL
MODEL 2
REMARK VINA RESULT:     -10.0      2.947      9.782
REMARK  Name = 
REMARK  6 active torsions:
REMARK  status: ('A' for Active; 'I' for Inactive)
REMARK    1  A    between atoms: C_2  and  C_3
REMARK    2  A    between atoms: C_2  and  C_19
REMARK    3  A    between atoms: C_3  and  N_4
REMARK    4  A    between atoms: N_4  and  C_5
REMARK    5  A    between atoms: C_5  and  C_6
REMARK    6  A    between atoms: C_6  and  C_8
REMARK                            x       y       z     vdW  Elec       q    Type
REMARK                         _______ _______ _______ _____ _____    ______ ____
ROOT
ATOM      1  N   UNL     1       1.131   5.774  -8.617  0.00  0.00    -0.212 NA
ENDROOT
BRANCH   1   2
ATOM      2  C   UNL     1       1.991   6.564  -9.391  0.00  0.00    +0.125 C 
BRANCH   2   4
ATOM      3  O   UNL     1       2.065   6.591 -11.654  0.00  0.00    -0.218 OA
ATOM      4  C   UNL     1       2.521   5.604 -10.608  0.00  0.00    +0.209 C 
BRANCH   4   5
ATOM      5  C   UNL     1       4.088   6.311 -10.589  0.00  0.00    +0.198 C 
ATOM      6  O   UNL     1       4.542   5.399 -11.730  0.00  0.00    -0.477 OA
ATOM      7  C   UNL     1       5.909   5.261 -11.888  0.00  0.00    +0.135 A 
ATOM      8  C   UNL     1       6.697   5.522 -10.777  0.00  0.00    +0.014 A 
ATOM      9  C   UNL     1       8.042   5.650 -10.973  0.00  0.00    +0.028 A 
ATOM     10  C   UNL     1       8.545   5.945 -12.235  0.00  0.00    +0.140 A 
ATOM     11  C   UNL     1       7.805   5.634 -13.357  0.00  0.00    +0.033 A 
ATOM     12  F   UNL     1       9.808   6.417 -12.278  0.00  0.00    -0.204 F 
ATOM     13  C   UNL     1       6.096   5.597  -9.432  0.00  0.00    +0.033 C 
ATOM     14  C   UNL     1       6.449   5.380 -13.162  0.00  0.00    +0.039 A 
ATOM     15  C   UNL     1       4.617   5.264  -9.453  0.00  0.00    +0.051 C 
ENDBRANCH   4   5
ENDBRANCH   2   4
ENDBRANCH   1   2
BRANCH   1  16
ATOM     16  C   UNL     1       0.907   6.066  -7.266  0.00  0.00    +0.125 C 
BRANCH  16  17
ATOM     17  C   UNL     1       2.012   5.265  -6.367  0.00  0.00    +0.209 C 
ATOM     18  O   UNL     1       0.985   4.287  -5.842  0.00  0.00    -0.218 OA
BRANCH  17  19
ATOM     19  C   UNL     1       1.866   6.398  -5.063  0.00  0.00    +0.198 C 
ATOM     20  O   UNL     1       2.430   5.451  -4.003  0.00  0.00    -0.477 OA
ATOM     21  C   UNL     1       3.203   5.876  -3.006  0.00  0.00    +0.135 A 
ATOM     22  C   UNL     1       4.311   6.641  -3.314  0.00  0.00    +0.014 A 
ATOM     23  C   UNL     1       5.002   7.218  -2.286  0.00  0.00    +0.028 A 
ATOM     24  C   UNL     1       4.663   6.855  -0.987  0.00  0.00    +0.140 A 
ATOM     25  C   UNL     1       4.154   5.565  -0.871  0.00  0.00    +0.033 A 
ATOM     26  F   UNL     1       5.404   7.286   0.050  0.00  0.00    -0.204 F 
ATOM     27  C   UNL     1       4.197   7.386  -4.568  0.00  0.00    +0.033 C 
ATOM     28  C   UNL     1       3.153   5.234  -1.778  0.00  0.00    +0.039 A 
ATOM     29  C   UNL     1       3.252   7.099  -5.551  0.00  0.00    +0.051 C 
ENDBRANCH  17  19
ENDBRANCH  16  17
ENDBRANCH   1  16
TORSDOF 6
ENDMDL
MODEL 3
REMARK VINA RESULT:      -9.8      2.106     10.882
REMARK  Name = 
REMARK  6 active torsions:
REMARK  status: ('A' for Active; 'I' for Inactive)
REMARK    1  A    between atoms: C_2  and  C_3
REMARK    2  A    between atoms: C_2  and  C_19
REMARK    3  A    between atoms: C_3  and  N_4
REMARK    4  A    between atoms: N_4  and  C_5
REMARK    5  A    between atoms: C_5  and  C_6
REMARK    6  A    between atoms: C_6  and  C_8
REMARK                            x       y       z     vdW  Elec       q    Type
REMARK                         _______ _______ _______ _____ _____    ______ ____
ROOT
ATOM      1  N   UNL     1       4.406   5.437  -6.196  0.00  0.00    -0.212 NA
ENDROOT
BRANCH   1   2
ATOM      2  C   UNL     1       3.862   5.922  -7.393  0.00  0.00    +0.125 C 
BRANCH   2   4
ATOM      3  O   UNL     1       2.858   4.872  -9.130  0.00  0.00    -0.218 OA
ATOM      4  C   UNL     1       4.249   4.826  -8.547  0.00  0.00    +0.209 C 
BRANCH   4   5
ATOM      5  C   UNL     1       4.773   6.045  -9.640  0.00  0.00    +0.198 C 
ATOM      6  O   UNL     1       4.691   5.066 -10.813  0.00  0.00    -0.477 OA
ATOM      7  C   UNL     1       5.400   5.418 -11.947  0.00  0.00    +0.135 A 
ATOM      8  C   UNL     1       6.458   6.298 -11.776  0.00  0.00    +0.014 A 
ATOM      9  C   UNL     1       6.998   6.861 -12.897  0.00  0.00    +0.028 A 
ATOM     10  C   UNL     1       6.271   6.910 -14.080  0.00  0.00    +0.140 A 
ATOM     11  C   UNL     1       5.256   6.002 -14.299  0.00  0.00    +0.033 A 
ATOM     12  F   UNL     1       6.703   7.789 -15.009  0.00  0.00    -0.204 F 
ATOM     13  C   UNL     1       7.007   6.559 -10.433  0.00  0.00    +0.033 C 
ATOM     14  C   UNL     1       4.771   5.325 -13.182  0.00  0.00    +0.039 A 
ATOM     15  C   UNL     1       6.346   5.699  -9.373  0.00  0.00    +0.051 C 
ENDBRANCH   4   5
ENDBRANCH   2   4
ENDBRANCH   1   2
BRANCH   1  16
ATOM     16  C   UNL     1       3.580   5.079  -5.123  0.00  0.00    +0.125 C 
BRANCH  16  17
ATOM     17  C   UNL     1       2.619   6.349  -4.757  0.00  0.00    +0.209 C 
ATOM     18  O   UNL     1       3.111   6.404  -3.329  0.00  0.00    -0.218 OA
BRANCH  17  19
ATOM     19  C   UNL     1       1.264   5.314  -4.441  0.00  0.00    +0.198 C 
ATOM     20  O   UNL     1       0.703   6.176  -3.309  0.00  0.00    -0.477 OA
ATOM     21  C   UNL     1      -0.605   6.334  -3.115  0.00  0.00    +0.135 A 
ATOM     22  C   UNL     1      -1.383   6.735  -4.183  0.00  0.00    +0.014 A 
ATOM     23  C   UNL     1      -2.741   6.729  -4.029  0.00  0.00    +0.028 A 
ATOM     24  C   UNL     1      -3.252   6.500  -2.756  0.00  0.00    +0.140 A 
ATOM     25  C   UNL     1      -2.416   6.915  -1.723  0.00  0.00    +0.033 A 
ATOM     26  F   UNL     1      -4.572   6.624  -2.525  0.00  0.00    -0.204 F 
ATOM     27  C   UNL     1      -0.841   6.373  -5.492  0.00  0.00    +0.033 C 
ATOM     28  C   UNL     1      -1.090   6.511  -1.828  0.00  0.00    +0.039 A 
ATOM     29  C   UNL     1       0.484   5.995  -5.698  0.00  0.00    +0.051 C 
ENDBRANCH  17  19
ENDBRANCH  16  17
ENDBRANCH   1  16
TORSDOF 6
ENDMDL
MODEL 4
REMARK VINA RESULT:      -9.8      3.164      3.688
REMARK  Name = 
REMARK  6 active torsions:
REMARK  status: ('A' for Active; 'I' for Inactive)
REMARK    1  A    between atoms: C_2  and  C_3
REMARK    2  A    between atoms: C_2  and  C_19
REMARK    3  A    between atoms: C_3  and  N_4
REMARK    4  A    between atoms: N_4  and  C_5
REMARK    5  A    between atoms: C_5  and  C_6
REMARK    6  A    between atoms: C_6  and  C_8
REMARK                            x       y       z     vdW  Elec       q    Type
REMARK                         _______ _______ _______ _____ _____    ______ ____
ROOT
ATOM      1  N   UNL     1       1.511   5.120  -7.438  0.00  0.00    -0.212 NA
ENDROOT
BRANCH   1   2
ATOM      2  C   UNL     1       2.035   4.924  -6.153  0.00  0.00    +0.125 C 
BRANCH   2   4
ATOM      3  O   UNL     1       1.545   7.103  -5.776  0.00  0.00    -0.218 OA
ATOM      4  C   UNL     1       2.827   6.305  -5.769  0.00  0.00    +0.209 C 
BRANCH   4   5
ATOM      5  C   UNL     1       2.668   6.019  -4.081  0.00  0.00    +0.198 C 
ATOM      6  O   UNL     1       3.411   7.319  -3.764  0.00  0.00    -0.477 OA
ATOM      7  C   UNL     1       3.935   7.422  -2.489  0.00  0.00    +0.135 A 
ATOM      8  C   UNL     1       4.177   6.234  -1.813  0.00  0.00    +0.014 A 
ATOM      9  C   UNL     1       4.439   6.311  -0.475  0.00  0.00    +0.028 A 
ATOM     10  C   UNL     1       4.055   7.430   0.254  0.00  0.00    +0.140 A 
ATOM     11  C   UNL     1       3.872   8.637  -0.388  0.00  0.00    +0.033 A 
ATOM     12  F   UNL     1       4.006   7.280   1.594  0.00  0.00    -0.204 F 
ATOM     13  C   UNL     1       4.205   4.951  -2.539  0.00  0.00    +0.033 C 
ATOM     14  C   UNL     1       3.723   8.593  -1.773  0.00  0.00    +0.039 A 
ATOM     15  C   UNL     1       4.044   5.142  -4.035  0.00  0.00    +0.051 C 
ENDBRANCH   4   5
ENDBRANCH   2   4
ENDBRANCH   1   2
BRANCH   1  16
ATOM     16  C   UNL     1       2.114   4.533  -8.558  0.00  0.00    +0.125 C 
BRANCH  16  17
ATOM     17  C   UNL     1       2.830   5.706  -9.441  0.00  0.00    +0.209 C 
ATOM     18  O   UNL     1       1.998   5.397 -10.664  0.00  0.00    -0.218 OA
BRANCH  17  19
ATOM     19  C   UNL     1       4.156   4.670  -9.859  0.00  0.00    +0.198 C 
ATOM     20  O   UNL     1       4.561   5.470 -11.098  0.00  0.00    -0.477 OA
ATOM     21  C   UNL     1       5.833   5.631 -11.458  0.00  0.00    +0.135 A 
ATOM     22  C   UNL     1       6.727   6.103 -10.516  0.00  0.00    +0.014 A 
ATOM     23  C   UNL     1       8.057   6.104 -10.833  0.00  0.00    +0.028 A 
ATOM     24  C   UNL     1       8.415   5.806 -12.143  0.00  0.00    +0.140 A 
ATOM     25  C   UNL     1       7.453   6.151 -13.089  0.00  0.00    +0.033 A 
ATOM     26  F   UNL     1       9.695   5.931 -12.539  0.00  0.00    -0.204 F 
ATOM     27  C   UNL     1       6.353   5.812  -9.133  0.00  0.00    +0.033 C 
ATOM     28  C   UNL     1       6.158   5.738 -12.802  0.00  0.00    +0.039 A 
ATOM     29  C   UNL     1       5.069   5.432  -8.746  0.00  0.00    +0.051 C 
ENDBRANCH  17  19
ENDBRANCH  16  17
ENDBRANCH   1  16
TORSDOF 6
ENDMDL
MODEL 5
REMARK VINA RESULT:      -9.8      1.337     10.578
REMARK  Name = 
REMARK  6 active torsions:
REMARK  status: ('A' for Active; 'I' for Inactive)
REMARK    1  A    between atoms: C_2  and  C_3
REMARK    2  A    between atoms: C_2  and  C_19
REMARK    3  A    between atoms: C_3  and  N_4
REMARK    4  A    between atoms: N_4  and  C_5
REMARK    5  A    between atoms: C_5  and  C_6
REMARK    6  A    between atoms: C_6  and  C_8
REMARK                            x       y       z     vdW  Elec       q    Type
REMARK                         _______ _______ _______ _____ _____    ______ ____
ROOT
ATOM      1  N   UNL     1       0.427   5.780 -10.063  0.00  0.00    -0.212 NA
ENDROOT
BRANCH   1   2
ATOM      2  C   UNL     1       1.396   6.575 -10.690  0.00  0.00    +0.125 C 
BRANCH   2   4
ATOM      3  O   UNL     1       1.880   6.598 -12.902  0.00  0.00    -0.218 OA
ATOM      4  C   UNL     1       2.136   5.612 -11.788  0.00  0.00    +0.209 C 
BRANCH   4   5
ATOM      5  C   UNL     1       3.675   6.317 -11.486  0.00  0.00    +0.198 C 
ATOM      6  O   UNL     1       4.320   5.428 -12.551  0.00  0.00    -0.477 OA
ATOM      7  C   UNL     1       5.694   5.291 -12.475  0.00  0.00    +0.135 A 
ATOM      8  C   UNL     1       6.279   5.528 -11.239  0.00  0.00    +0.014 A 
ATOM      9  C   UNL     1       7.638   5.658 -11.198  0.00  0.00    +0.028 A 
ATOM     10  C   UNL     1       8.349   5.979 -12.349  0.00  0.00    +0.140 A 
ATOM     11  C   UNL     1       7.814   5.693 -13.587  0.00  0.00    +0.033 A 
ATOM     12  F   UNL     1       9.600   6.449 -12.164  0.00  0.00    -0.204 F 
ATOM     13  C   UNL     1       5.456   5.575 -10.016  0.00  0.00    +0.033 C 
ATOM     14  C   UNL     1       6.445   5.436 -13.634  0.00  0.00    +0.039 A 
ATOM     15  C   UNL     1       4.003   5.246 -10.298  0.00  0.00    +0.051 C 
ENDBRANCH   4   5
ENDBRANCH   2   4
ENDBRANCH   1   2
BRANCH   1  16
ATOM     16  C   UNL     1       0.735   5.044  -8.912  0.00  0.00    +0.125 C 
BRANCH  16  17
ATOM     17  C   UNL     1       0.762   6.061  -7.633  0.00  0.00    +0.209 C 
ATOM     18  O   UNL     1       2.205   5.741  -7.315  0.00  0.00    -0.218 OA
BRANCH  17  19
ATOM     19  C   UNL     1       0.076   4.861  -6.585  0.00  0.00    +0.198 C 
ATOM     20  O   UNL     1       0.467   5.579  -5.293  0.00  0.00    -0.477 OA
ATOM     21  C   UNL     1      -0.312   5.576  -4.212  0.00  0.00    +0.135 A 
ATOM     22  C   UNL     1      -1.633   5.955  -4.354  0.00  0.00    +0.014 A 
ATOM     23  C   UNL     1      -2.469   5.787  -3.286  0.00  0.00    +0.028 A 
ATOM     24  C   UNL     1      -1.907   5.420  -2.069  0.00  0.00    +0.140 A 
ATOM     25  C   UNL     1      -0.598   5.859  -1.890  0.00  0.00    +0.033 A 
ATOM     26  F   UNL     1      -2.667   5.379  -0.958  0.00  0.00    -0.204 F 
ATOM     27  C   UNL     1      -2.179   5.742  -5.693  0.00  0.00    +0.033 C 
ATOM     28  C   UNL     1       0.264   5.614  -2.952  0.00  0.00    +0.039 A 
ATOM     29  C   UNL     1      -1.390   5.529  -6.822  0.00  0.00    +0.051 C 
ENDBRANCH  17  19
ENDBRANCH  16  17
ENDBRANCH   1  16
TORSDOF 6
ENDMDL
MODEL 6
REMARK VINA RESULT:      -9.8      2.610      3.299
REMARK  Name = 
REMARK  6 active torsions:
REMARK  status: ('A' for Active; 'I' for Inactive)
REMARK    1  A    between atoms: C_2  and  C_3
REMARK    2  A    between atoms: C_2  and  C_19
REMARK    3  A    between atoms: C_3  and  N_4
REMARK    4  A    between atoms: N_4  and  C_5
REMARK    5  A    between atoms: C_5  and  C_6
REMARK    6  A    between atoms: C_6  and  C_8
REMARK                            x       y       z     vdW  Elec       q    Type
REMARK                         _______ _______ _______ _____ _____    ______ ____
ROOT
ATOM      1  N   UNL     1       0.733   5.857  -8.904  0.00  0.00    -0.212 NA
ENDROOT
BRANCH   1   2
ATOM      2  C   UNL     1       0.323   5.372  -7.655  0.00  0.00    +0.125 C 
BRANCH   2   4
ATOM      3  O   UNL     1      -0.540   6.273  -5.765  0.00  0.00    -0.218 OA
ATOM      4  C   UNL     1       0.714   6.530  -6.565  0.00  0.00    +0.209 C 
BRANCH   4   5
ATOM      5  C   UNL     1       1.593   5.423  -5.586  0.00  0.00    +0.198 C 
ATOM      6  O   UNL     1       1.579   6.407  -4.415  0.00  0.00    -0.477 OA
ATOM      7  C   UNL     1       2.520   6.185  -3.426  0.00  0.00    +0.135 A 
ATOM      8  C   UNL     1       3.647   5.461  -3.785  0.00  0.00    +0.014 A 
ATOM      9  C   UNL     1       4.453   5.007  -2.780  0.00  0.00    +0.028 A 
ATOM     10  C   UNL     1       3.960   4.882  -1.486  0.00  0.00    +0.140 A 
ATOM     11  C   UNL     1       2.880   5.640  -1.088  0.00  0.00    +0.033 A 
ATOM     12  F   UNL     1       4.672   4.095  -0.652  0.00  0.00    -0.204 F 
ATOM     13  C   UNL     1       3.982   5.251  -5.206  0.00  0.00    +0.033 C 
ATOM     14  C   UNL     1       2.113   6.216  -2.098  0.00  0.00    +0.039 A 
ATOM     15  C   UNL     1       3.027   5.984  -6.128  0.00  0.00    +0.051 C 
ENDBRANCH   4   5
ENDBRANCH   2   4
ENDBRANCH   1   2
BRANCH   1  16
ATOM     16  C   UNL     1       1.627   5.129  -9.700  0.00  0.00    +0.125 C 
BRANCH  16  17
ATOM     17  C   UNL     1       2.605   6.179 -10.482  0.00  0.00    +0.209 C 
ATOM     18  O   UNL     1       2.056   5.796 -11.837  0.00  0.00    -0.218 OA
BRANCH  17  19
ATOM     19  C   UNL     1       3.918   5.047 -10.492  0.00  0.00    +0.198 C 
ATOM     20  O   UNL     1       4.608   5.659 -11.711  0.00  0.00    -0.477 OA
ATOM     21  C   UNL     1       5.934   5.722 -11.823  0.00  0.00    +0.135 A 
ATOM     22  C   UNL     1       6.654   6.281 -10.785  0.00  0.00    +0.014 A 
ATOM     23  C   UNL     1       8.017   6.189 -10.824  0.00  0.00    +0.028 A 
ATOM     24  C   UNL     1       8.606   5.706 -11.987  0.00  0.00    +0.140 A 
ATOM     25  C   UNL     1       7.872   5.958 -13.144  0.00  0.00    +0.033 A 
ATOM     26  F   UNL     1       9.944   5.729 -12.128  0.00  0.00    -0.204 F 
ATOM     27  C   UNL     1       5.998   6.192  -9.481  0.00  0.00    +0.033 C 
ATOM     28  C   UNL     1       6.522   5.637 -13.076  0.00  0.00    +0.039 A 
ATOM     29  C   UNL     1       4.642   5.915  -9.319  0.00  0.00    +0.051 C 
ENDBRANCH  17  19
ENDBRANCH  16  17
ENDBRANCH   1  16
TORSDOF 6
ENDMDL
MODEL 7
REMARK VINA RESULT:      -9.6      2.008      2.571
REMARK  Name = 
REMARK  6 active torsions:
REMARK  status: ('A' for Active; 'I' for Inactive)
REMARK    1  A    between atoms: C_2  and  C_3
REMARK    2  A    between atoms: C_2  and  C_19
REMARK    3  A    between atoms: C_3  and  N_4
REMARK    4  A    between atoms: N_4  and  C_5
REMARK    5  A    between atoms: C_5  and  C_6
REMARK    6  A    between atoms: C_6  and  C_8
REMARK                            x       y       z     vdW  Elec       q    Type
REMARK                         _______ _______ _______ _____ _____    ______ ____
ROOT
ATOM      1  N   UNL     1       3.854   6.167  -6.876  0.00  0.00    -0.212 NA
ENDROOT
BRANCH   1   2
ATOM      2  C   UNL     1       3.139   6.765  -5.830  0.00  0.00    +0.125 C 
BRANCH   2   4
ATOM      3  O   UNL     1       3.007   6.156  -3.653  0.00  0.00    -0.218 OA
ATOM      4  C   UNL     1       2.519   5.538  -4.941  0.00  0.00    +0.209 C 
BRANCH   4   5
ATOM      5  C   UNL     1       1.000   6.325  -4.771  0.00  0.00    +0.198 C 
ATOM      6  O   UNL     1       0.663   5.467  -3.549  0.00  0.00    -0.477 OA
ATOM      7  C   UNL     1      -0.675   5.403  -3.204  0.00  0.00    +0.135 A 
ATOM      8  C   UNL     1      -1.594   5.677  -4.206  0.00  0.00    +0.014 A 
ATOM      9  C   UNL     1      -2.892   5.878  -3.834  0.00  0.00    +0.028 A 
ATOM     10  C   UNL     1      -3.203   6.232  -2.526  0.00  0.00    +0.140 A 
ATOM     11  C   UNL     1      -2.333   5.912  -1.505  0.00  0.00    +0.033 A 
ATOM     12  F   UNL     1      -4.425   6.769  -2.328  0.00  0.00    -0.204 F 
ATOM     13  C   UNL     1      -1.180   5.686  -5.621  0.00  0.00    +0.033 C 
ATOM     14  C   UNL     1      -1.030   5.583  -1.873  0.00  0.00    +0.039 A 
ATOM     15  C   UNL     1       0.271   5.278  -5.790  0.00  0.00    +0.051 C 
ENDBRANCH   4   5
ENDBRANCH   2   4
ENDBRANCH   1   2
BRANCH   1  16
ATOM     16  C   UNL     1       3.200   5.724  -8.033  0.00  0.00    +0.125 C 
BRANCH  16  17
ATOM     17  C   UNL     1       4.261   4.874  -8.940  0.00  0.00    +0.209 C 
ATOM     18  O   UNL     1       5.398   5.120  -7.975  0.00  0.00    -0.218 OA
BRANCH  17  19
ATOM     19  C   UNL     1       4.586   6.241  -9.955  0.00  0.00    +0.198 C 
ATOM     20  O   UNL     1       5.916   5.700 -10.481  0.00  0.00    -0.477 OA
ATOM     21  C   UNL     1       6.319   5.894 -11.735  0.00  0.00    +0.135 A 
ATOM     22  C   UNL     1       5.456   5.559 -12.761  0.00  0.00    +0.014 A 
ATOM     23  C   UNL     1       5.799   5.918 -14.035  0.00  0.00    +0.028 A 
ATOM     24  C   UNL     1       7.074   6.430 -14.247  0.00  0.00    +0.140 A 
ATOM     25  C   UNL     1       8.033   5.962 -13.352  0.00  0.00    +0.033 A 
ATOM     26  F   UNL     1       7.509   6.665 -15.499  0.00  0.00    -0.204 F 
ATOM     27  C   UNL     1       4.041   5.602 -12.395  0.00  0.00    +0.033 C 
ATOM     28  C   UNL     1       7.673   6.011 -12.011  0.00  0.00    +0.039 A 
ATOM     29  C   UNL     1       3.587   5.614 -11.077  0.00  0.00    +0.051 C 
ENDBRANCH  17  19
ENDBRANCH  16  17
ENDBRANCH   1  16
TORSDOF 6
ENDMDL
MODEL 8
REMARK VINA RESULT:      -9.5      1.417     10.496
REMARK  Name = 
REMARK  6 active torsions:
REMARK  status: ('A' for Active; 'I' for Inactive)
REMARK    1  A    between atoms: C_2  and  C_3
REMARK    2  A    between atoms: C_2  and  C_19
REMARK    3  A    between atoms: C_3  and  N_4
REMARK    4  A    between atoms: N_4  and  C_5
REMARK    5  A    between atoms: C_5  and  C_6
REMARK    6  A    between atoms: C_6  and  C_8
REMARK                            x       y       z     vdW  Elec       q    Type
REMARK                         _______ _______ _______ _____ _____    ______ ____
ROOT
ATOM      1  N   UNL     1       0.465   5.407  -8.813  0.00  0.00    -0.212 NA
ENDROOT
BRANCH   1   2
ATOM      2  C   UNL     1       1.515   4.900  -9.589  0.00  0.00    +0.125 C 
BRANCH   2   4
ATOM      3  O   UNL     1       3.046   3.528  -8.640  0.00  0.00    -0.218 OA
ATOM      4  C   UNL     1       2.864   5.026  -8.670  0.00  0.00    +0.209 C 
BRANCH   4   5
ATOM      5  C   UNL     1       3.887   5.146 -10.047  0.00  0.00    +0.198 C 
ATOM      6  O   UNL     1       5.121   5.275  -9.151  0.00  0.00    -0.477 OA
ATOM      7  C   UNL     1       6.250   5.805  -9.748  0.00  0.00    +0.135 A 
ATOM      8  C   UNL     1       6.052   6.593 -10.873  0.00  0.00    +0.014 A 
ATOM      9  C   UNL     1       7.148   6.906 -11.626  0.00  0.00    +0.028 A 
ATOM     10  C   UNL     1       8.302   6.135 -11.542  0.00  0.00    +0.140 A 
ATOM     11  C   UNL     1       8.550   5.394 -10.406  0.00  0.00    +0.033 A 
ATOM     12  F   UNL     1       9.181   6.267 -12.558  0.00  0.00    -0.204 F 
ATOM     13  C   UNL     1       4.712   7.117 -11.196  0.00  0.00    +0.033 C 
ATOM     14  C   UNL     1       7.468   5.165  -9.559  0.00  0.00    +0.039 A 
ATOM     15  C   UNL     1       3.694   6.766 -10.128  0.00  0.00    +0.051 C 
ENDBRANCH   4   5
ENDBRANCH   2   4
ENDBRANCH   1   2
BRANCH   1  16
ATOM     16  C   UNL     1       0.703   5.945  -7.543  0.00  0.00    +0.125 C 
BRANCH  16  17
ATOM     17  C   UNL     1      -0.195   5.126  -6.451  0.00  0.00    +0.209 C 
ATOM     18  O   UNL     1      -1.494   5.661  -7.007  0.00  0.00    -0.218 OA
BRANCH  17  19
ATOM     19  C   UNL     1       0.013   6.366  -5.256  0.00  0.00    +0.198 C 
ATOM     20  O   UNL     1      -1.373   6.184  -4.637  0.00  0.00    -0.477 OA
ATOM     21  C   UNL     1      -1.591   6.307  -3.329  0.00  0.00    +0.135 A 
ATOM     22  C   UNL     1      -0.799   5.582  -2.460  0.00  0.00    +0.014 A 
ATOM     23  C   UNL     1      -0.908   5.839  -1.122  0.00  0.00    +0.028 A 
ATOM     24  C   UNL     1      -1.933   6.678  -0.700  0.00  0.00    +0.140 A 
ATOM     25  C   UNL     1      -3.059   6.658  -1.518  0.00  0.00    +0.033 A 
ATOM     26  F   UNL     1      -2.169   6.849   0.614  0.00  0.00    -0.204 F 
ATOM     27  C   UNL     1       0.522   5.245  -2.988  0.00  0.00    +0.033 C 
ATOM     28  C   UNL     1      -2.811   6.789  -2.879  0.00  0.00    +0.039 A 
ATOM     29  C   UNL     1       0.849   5.309  -4.341  0.00  0.00    +0.051 C 
ENDBRANCH  17  19
ENDBRANCH  16  17
ENDBRANCH   1  16
TORSDOF 6
ENDMDL
MODEL 9
REMARK VINA RESULT:      -9.5      3.350      4.292
REMARK  Name = 
REMARK  6 active torsions:
REMARK  status: ('A' for Active; 'I' for Inactive)
REMARK    1  A    between atoms: C_2  and  C_3
REMARK    2  A    between atoms: C_2  and  C_19
REMARK    3  A    between atoms: C_3  and  N_4
REMARK    4  A    between atoms: N_4  and  C_5
REMARK    5  A    between atoms: C_5  and  C_6
REMARK    6  A    between atoms: C_6  and  C_8
REMARK                            x       y       z     vdW  Elec       q    Type
REMARK                         _______ _______ _______ _____ _____    ______ ____
ROOT
ATOM      1  N   UNL     1       4.496   5.597  -5.994  0.00  0.00    -0.212 NA
ENDROOT
BRANCH   1   2
ATOM      2  C   UNL     1       3.518   6.359  -5.342  0.00  0.00    +0.125 C 
BRANCH   2   4
ATOM      3  O   UNL     1       3.398   6.342  -3.081  0.00  0.00    -0.218 OA
ATOM      4  C   UNL     1       2.911   5.404  -4.158  0.00  0.00    +0.209 C 
BRANCH   4   5
ATOM      5  C   UNL     1       1.386   6.197  -4.192  0.00  0.00    +0.198 C 
ATOM      6  O   UNL     1       0.919   5.409  -2.966  0.00  0.00    -0.477 OA
ATOM      7  C   UNL     1      -0.447   5.363  -2.759  0.00  0.00    +0.135 A 
ATOM      8  C   UNL     1      -1.256   5.579  -3.866  0.00  0.00    +0.014 A 
ATOM      9  C   UNL     1      -2.585   5.800  -3.644  0.00  0.00    +0.028 A 
ATOM     10  C   UNL     1      -3.028   6.226  -2.397  0.00  0.00    +0.140 A 
ATOM     11  C   UNL     1      -2.271   5.965  -1.274  0.00  0.00    +0.033 A 
ATOM     12  F   UNL     1      -4.262   6.772  -2.358  0.00  0.00    -0.204 F 
ATOM     13  C   UNL     1      -0.696   5.509  -5.228  0.00  0.00    +0.033 C 
ATOM     14  C   UNL     1      -0.939   5.617  -1.485  0.00  0.00    +0.039 A 
ATOM     15  C   UNL     1       0.762   5.094  -5.222  0.00  0.00    +0.051 C 
ENDBRANCH   4   5
ENDBRANCH   2   4
ENDBRANCH   1   2
BRANCH   1  16
ATOM     16  C   UNL     1       4.694   5.711  -7.376  0.00  0.00    +0.125 C 
BRANCH  16  17
ATOM     17  C   UNL     1       3.392   5.091  -8.144  0.00  0.00    +0.209 C 
ATOM     18  O   UNL     1       4.243   4.260  -9.075  0.00  0.00    -0.218 OA
BRANCH  17  19
ATOM     19  C   UNL     1       3.274   6.470  -9.190  0.00  0.00    +0.198 C 
ATOM     20  O   UNL     1       3.040   5.650 -10.459  0.00  0.00    -0.477 OA
ATOM     21  C   UNL     1       2.222   6.056 -11.429  0.00  0.00    +0.135 A 
ATOM     22  C   UNL     1       0.934   6.422 -11.091  0.00  0.00    +0.014 A 
ATOM     23  C   UNL     1       0.154   7.000 -12.054  0.00  0.00    +0.028 A 
ATOM     24  C   UNL     1       0.635   7.017 -13.359  0.00  0.00    +0.140 A 
ATOM     25  C   UNL     1       1.486   5.959 -13.666  0.00  0.00    +0.033 A 
ATOM     26  F   UNL     1      -0.151   7.445 -14.363  0.00  0.00    -0.204 F 
ATOM     27  C   UNL     1       0.783   6.893  -9.714  0.00  0.00    +0.033 C 
ATOM     28  C   UNL     1       2.499   5.720 -12.745  0.00  0.00    +0.039 A 
ATOM     29  C   UNL     1       1.728   6.665  -8.716  0.00  0.00    +0.051 C 
ENDBRANCH  17  19
ENDBRANCH  16  17
ENDBRANCH   1  16
TORSDOF 6
ENDMDL
