MODEL 1
REMARK VINA RESULT:      -6.7      0.000      0.000
REMARK  Name = 
REMARK  1 active torsions:
REMARK  status: ('A' for Active; 'I' for Inactive)
REMARK    1  A    between atoms: C_10  and  C_11
REMARK                            x       y       z     vdW  Elec       q    Type
REMARK                         _______ _______ _______ _____ _____    ______ ____
ROOT
ATOM      1  C   UNL     1      -2.441   7.210  -2.975  0.00  0.00    -0.000 A 
ATOM      2  C   UNL     1      -2.513   7.221  -4.339  0.00  0.00    -0.005 A 
ATOM      3  C   UNL     1      -1.714   6.319  -5.036  0.00  0.00    -0.026 A 
ATOM      4  C   UNL     1      -2.215   5.820  -6.333  0.00  0.00    +0.026 C 
ATOM      5  C   UNL     1      -1.129   5.219  -7.172  0.00  0.00    +0.006 C 
ATOM      6  C   UNL     1       0.147   5.833  -6.664  0.00  0.00    +0.017 C 
ATOM      7  C   UNL     1       0.440   5.004  -5.252  0.00  0.00    +0.131 C 
ATOM      8  C   UNL     1      -0.558   5.976  -4.414  0.00  0.00    -0.015 A 
ATOM      9  C   UNL     1      -0.641   5.664  -3.060  0.00  0.00    -0.004 A 
ATOM     10  C   UNL     1      -1.643   6.300  -2.331  0.00  0.00    -0.000 A 
ENDROOT
BRANCH   7  11
ATOM     11  C   UNL     1       1.735   5.922  -4.867  0.00  0.00    +0.336 C 
ATOM     12  N   UNL     1       2.909   5.149  -4.574  0.00  0.00    -0.030 NA
ATOM     13  C   UNL     1       4.050   5.647  -5.309  0.00  0.00    +0.308 C 
ATOM     14  C   UNL     1       3.535   6.958  -5.810  0.00  0.00    +0.318 C 
ATOM     15  N   UNL     1       2.124   6.843  -5.642  0.00  0.00    -0.061 NA
ENDBRANCH   7  11
TORSDOF 1
ENDMDL
MODEL 2
REMARK VINA RESULT:      -6.4      2.048      4.514
REMARK  Name = 
REMARK  1 active torsions:
REMARK  status: ('A' for Active; 'I' for Inactive)
REMARK    1  A    between atoms: C_10  and  C_11
REMARK                            x       y       z     vdW  Elec       q    Type
REMARK                         _______ _______ _______ _____ _____    ______ ____
ROOT
ATOM      1  C   UNL     1       2.404   4.666  -5.665  0.00  0.00    -0.000 A 
ATOM      2  C   UNL     1       1.189   4.234  -6.114  0.00  0.00    -0.005 A 
ATOM      3  C   UNL     1       0.116   5.117  -6.029  0.00  0.00    -0.026 A 
ATOM      4  C   UNL     1      -0.948   5.003  -7.048  0.00  0.00    +0.026 C 
ATOM      5  C   UNL     1      -2.216   5.681  -6.628  0.00  0.00    +0.006 C 
ATOM      6  C   UNL     1      -2.152   5.742  -5.127  0.00  0.00    +0.017 C 
ATOM      7  C   UNL     1      -1.096   6.993  -4.834  0.00  0.00    +0.131 C 
ATOM      8  C   UNL     1       0.192   6.017  -5.017  0.00  0.00    -0.015 A 
ATOM      9  C   UNL     1       1.414   6.658  -4.835  0.00  0.00    -0.004 A 
ATOM     10  C   UNL     1       2.555   5.947  -5.199  0.00  0.00    -0.000 A 
ENDROOT
BRANCH   7  11
ATOM     11  C   UNL     1      -1.107   6.754  -3.218  0.00  0.00    +0.336 C 
ATOM     12  N   UNL     1      -2.009   7.630  -2.524  0.00  0.00    -0.030 NA
ATOM     13  C   UNL     1      -2.855   6.886  -1.618  0.00  0.00    +0.308 C 
ATOM     14  C   UNL     1      -2.172   5.556  -1.596  0.00  0.00    +0.318 C 
ATOM     15  N   UNL     1      -1.321   5.604  -2.739  0.00  0.00    -0.061 NA
ENDBRANCH   7  11
TORSDOF 1
ENDMDL
MODEL 3
REMARK VINA RESULT:      -6.3      1.753      3.652
REMARK  Name = 
REMARK  1 active torsions:
REMARK  status: ('A' for Active; 'I' for Inactive)
REMARK    1  A    between atoms: C_10  and  C_11
REMARK                            x       y       z     vdW  Elec       q    Type
REMARK                         _______ _______ _______ _____ _____    ______ ____
ROOT
ATOM      1  C   UNL     1      -1.000   5.153  -7.495  0.00  0.00    -0.000 A 
ATOM      2  C   UNL     1      -1.961   5.537  -6.604  0.00  0.00    -0.005 A 
ATOM      3  C   UNL     1      -1.560   6.287  -5.502  0.00  0.00    -0.026 A 
ATOM      4  C   UNL     1      -2.527   7.254  -4.943  0.00  0.00    +0.026 C 
ATOM      5  C   UNL     1      -2.170   7.677  -3.550  0.00  0.00    +0.006 C 
ATOM      6  C   UNL     1      -1.304   6.573  -3.011  0.00  0.00    +0.017 C 
ATOM      7  C   UNL     1       0.168   6.846  -3.737  0.00  0.00    +0.131 C 
ATOM      8  C   UNL     1      -0.291   6.057  -5.083  0.00  0.00    -0.015 A 
ATOM      9  C   UNL     1       0.695   5.998  -6.064  0.00  0.00    -0.004 A 
ATOM     10  C   UNL     1       0.302   5.546  -7.321  0.00  0.00    -0.000 A 
ENDROOT
BRANCH   7  11
ATOM     11  C   UNL     1       0.836   5.491  -3.114  0.00  0.00    +0.336 C 
ATOM     12  N   UNL     1       2.232   5.637  -2.811  0.00  0.00    -0.030 NA
ATOM     13  C   UNL     1       2.520   5.176  -1.471  0.00  0.00    +0.308 C 
ATOM     14  C   UNL     1       1.255   4.458  -1.125  0.00  0.00    +0.318 C 
ATOM     15  N   UNL     1       0.329   4.932  -2.100  0.00  0.00    -0.061 NA
ENDBRANCH   7  11
TORSDOF 1
ENDMDL
MODEL 4
REMARK VINA RESULT:      -6.2      4.438      6.320
REMARK  Name = 
REMARK  1 active torsions:
REMARK  status: ('A' for Active; 'I' for Inactive)
REMARK    1  A    between atoms: C_10  and  C_11
REMARK                            x       y       z     vdW  Elec       q    Type
REMARK                         _______ _______ _______ _____ _____    ______ ____
ROOT
ATOM      1  C   UNL     1       3.895   5.995  -5.465  0.00  0.00    -0.000 A 
ATOM      2  C   UNL     1       4.589   5.282  -6.400  0.00  0.00    -0.005 A 
ATOM      3  C   UNL     1       4.462   5.665  -7.732  0.00  0.00    -0.026 A 
ATOM      4  C   UNL     1       5.618   5.436  -8.624  0.00  0.00    +0.026 C 
ATOM      5  C   UNL     1       5.238   5.480 -10.073  0.00  0.00    +0.006 C 
ATOM      6  C   UNL     1       3.766   5.176 -10.104  0.00  0.00    +0.017 C 
ATOM      7  C   UNL     1       3.065   6.607  -9.623  0.00  0.00    +0.131 C 
ATOM      8  C   UNL     1       3.277   6.243  -8.053  0.00  0.00    -0.015 A 
ATOM      9  C   UNL     1       2.794   7.213  -7.180  0.00  0.00    -0.004 A 
ATOM     10  C   UNL     1       3.145   7.080  -5.839  0.00  0.00    -0.000 A 
ENDROOT
BRANCH   7  11
ATOM     11  C   UNL     1       1.557   5.978  -9.614  0.00  0.00    +0.336 C 
ATOM     12  N   UNL     1       0.610   6.772 -10.346  0.00  0.00    -0.030 NA
ATOM     13  C   UNL     1      -0.149   5.952 -11.264  0.00  0.00    +0.308 C 
ATOM     14  C   UNL     1       0.198   4.577 -10.793  0.00  0.00    +0.318 C 
ATOM     15  N   UNL     1       1.355   4.787  -9.985  0.00  0.00    -0.061 NA
ENDBRANCH   7  11
TORSDOF 1
ENDMDL
MODEL 5
REMARK VINA RESULT:      -6.2      5.373      8.657
REMARK  Name = 
REMARK  1 active torsions:
REMARK  status: ('A' for Active; 'I' for Inactive)
REMARK    1  A    between atoms: C_10  and  C_11
REMARK                            x       y       z     vdW  Elec       q    Type
REMARK                         _______ _______ _______ _____ _____    ______ ____
ROOT
ATOM      1  C   UNL     1       6.956   7.331 -12.255  0.00  0.00    -0.000 A 
ATOM      2  C   UNL     1       6.969   7.228 -10.894  0.00  0.00    -0.005 A 
ATOM      3  C   UNL     1       6.110   6.304 -10.306  0.00  0.00    -0.026 A 
ATOM      4  C   UNL     1       6.538   5.682  -9.035  0.00  0.00    +0.026 C 
ATOM      5  C   UNL     1       5.397   5.057  -8.293  0.00  0.00    +0.006 C 
ATOM      6  C   UNL     1       4.166   5.756  -8.799  0.00  0.00    +0.017 C 
ATOM      7  C   UNL     1       3.906   5.056 -10.286  0.00  0.00    +0.131 C 
ATOM      8  C   UNL     1       4.972   6.055 -11.000  0.00  0.00    -0.015 A 
ATOM      9  C   UNL     1       5.103   5.851 -12.371  0.00  0.00    -0.004 A 
ATOM     10  C   UNL     1       6.156   6.506 -13.004  0.00  0.00    -0.000 A 
ENDROOT
BRANCH   7  11
ATOM     11  C   UNL     1       2.661   6.050 -10.645  0.00  0.00    +0.336 C 
ATOM     12  N   UNL     1       1.705   5.459 -11.539  0.00  0.00    -0.030 NA
ATOM     13  C   UNL     1       0.360   5.618 -11.034  0.00  0.00    +0.308 C 
ATOM     14  C   UNL     1       0.567   6.618  -9.942  0.00  0.00    +0.318 C 
ATOM     15  N   UNL     1       1.976   6.582  -9.725  0.00  0.00    -0.061 NA
ENDBRANCH   7  11
TORSDOF 1
ENDMDL
MODEL 6
REMARK VINA RESULT:      -6.2      6.099      9.027
REMARK  Name = 
REMARK  1 active torsions:
REMARK  status: ('A' for Active; 'I' for Inactive)
REMARK    1  A    between atoms: C_10  and  C_11
REMARK                            x       y       z     vdW  Elec       q    Type
REMARK                         _______ _______ _______ _____ _____    ______ ____
ROOT
ATOM      1  C   UNL     1       8.433   5.700 -11.711  0.00  0.00    -0.000 A 
ATOM      2  C   UNL     1       7.479   5.168 -12.530  0.00  0.00    -0.005 A 
ATOM      3  C   UNL     1       6.186   5.676 -12.434  0.00  0.00    -0.026 A 
ATOM      4  C   UNL     1       5.354   5.666 -13.655  0.00  0.00    +0.026 C 
ATOM      5  C   UNL     1       3.895   5.824 -13.351  0.00  0.00    +0.006 C 
ATOM      6  C   UNL     1       3.737   5.373 -11.926  0.00  0.00    +0.017 C 
ATOM      7  C   UNL     1       4.312   6.663 -11.045  0.00  0.00    +0.131 C 
ATOM      8  C   UNL     1       5.848   6.157 -11.211  0.00  0.00    -0.015 A 
ATOM      9  C   UNL     1       6.781   6.973 -10.576  0.00  0.00    -0.004 A 
ATOM     10  C   UNL     1       8.122   6.734 -10.866  0.00  0.00    -0.000 A 
ENDROOT
BRANCH   7  11
ATOM     11  C   UNL     1       4.159   5.883  -9.619  0.00  0.00    +0.336 C 
ATOM     12  N   UNL     1       3.086   6.389  -8.810  0.00  0.00    -0.030 NA
ATOM     13  C   UNL     1       2.248   5.312  -8.331  0.00  0.00    +0.308 C 
ATOM     14  C   UNL     1       3.086   4.117  -8.654  0.00  0.00    +0.318 C 
ATOM     15  N   UNL     1       4.041   4.624  -9.583  0.00  0.00    -0.061 NA
ENDBRANCH   7  11
TORSDOF 1
ENDMDL
MODEL 7
REMARK VINA RESULT:      -6.2      4.818      6.420
REMARK  Name = 
REMARK  1 active torsions:
REMARK  status: ('A' for Active; 'I' for Inactive)
REMARK    1  A    between atoms: C_10  and  C_11
REMARK                            x       y       z     vdW  Elec       q    Type
REMARK                         _______ _______ _______ _____ _____    ______ ____
ROOT
ATOM      1  C   UNL     1       3.399   6.871  -6.284  0.00  0.00    -0.000 A 
ATOM      2  C   UNL     1       2.576   7.179  -7.329  0.00  0.00    -0.005 A 
ATOM      3  C   UNL     1       2.758   6.486  -8.523  0.00  0.00    -0.026 A 
ATOM      4  C   UNL     1       1.571   6.265  -9.375  0.00  0.00    +0.026 C 
ATOM      5  C   UNL     1       1.938   5.907 -10.783  0.00  0.00    +0.006 C 
ATOM      6  C   UNL     1       3.329   6.443 -10.977  0.00  0.00    +0.017 C 
ATOM      7  C   UNL     1       4.285   5.336 -10.184  0.00  0.00    +0.131 C 
ATOM      8  C   UNL     1       4.025   6.060  -8.751  0.00  0.00    -0.015 A 
ATOM      9  C   UNL     1       4.687   5.454  -7.687  0.00  0.00    -0.004 A 
ATOM     10  C   UNL     1       4.332   5.874  -6.408  0.00  0.00    -0.000 A 
ENDROOT
BRANCH   7  11
ATOM     11  C   UNL     1       5.652   6.198 -10.425  0.00  0.00    +0.336 C 
ATOM     12  N   UNL     1       6.561   5.571 -11.343  0.00  0.00    -0.030 NA
ATOM     13  C   UNL     1       7.001   6.507 -12.353  0.00  0.00    +0.308 C 
ATOM     14  C   UNL     1       6.536   7.806 -11.779  0.00  0.00    +0.318 C 
ATOM     15  N   UNL     1       5.595   7.409 -10.784  0.00  0.00    -0.061 NA
ENDBRANCH   7  11
TORSDOF 1
ENDMDL
MODEL 8
REMARK VINA RESULT:      -6.0      2.133      5.043
REMARK  Name = 
REMARK  1 active torsions:
REMARK  status: ('A' for Active; 'I' for Inactive)
REMARK    1  A    between atoms: C_10  and  C_11
REMARK                            x       y       z     vdW  Elec       q    Type
REMARK                         _______ _______ _______ _____ _____    ______ ____
ROOT
ATOM      1  C   UNL     1       1.284   6.750  -9.517  0.00  0.00    -0.000 A 
ATOM      2  C   UNL     1       2.093   7.197  -8.512  0.00  0.00    -0.005 A 
ATOM      3  C   UNL     1       1.927   6.637  -7.249  0.00  0.00    -0.026 A 
ATOM      4  C   UNL     1       3.117   6.548  -6.377  0.00  0.00    +0.026 C 
ATOM      5  C   UNL     1       2.755   6.339  -4.938  0.00  0.00    +0.006 C 
ATOM      6  C   UNL     1       1.347   6.852  -4.806  0.00  0.00    +0.017 C 
ATOM      7  C   UNL     1       0.428   5.635  -5.470  0.00  0.00    +0.131 C 
ATOM      8  C   UNL     1       0.672   6.201  -6.975  0.00  0.00    -0.015 A 
ATOM      9  C   UNL     1       0.033   5.461  -7.965  0.00  0.00    -0.004 A 
ATOM     10  C   UNL     1       0.381   5.745  -9.283  0.00  0.00    -0.000 A 
ENDROOT
BRANCH   7  11
ATOM     11  C   UNL     1      -0.965   6.476  -5.328  0.00  0.00    +0.336 C 
ATOM     12  N   UNL     1      -1.973   5.778  -4.581  0.00  0.00    -0.030 NA
ATOM     13  C   UNL     1      -2.540   6.630  -3.560  0.00  0.00    +0.308 C 
ATOM     14  C   UNL     1      -2.019   7.971  -3.966  0.00  0.00    +0.318 C 
ATOM     15  N   UNL     1      -0.961   7.654  -4.869  0.00  0.00    -0.061 NA
ENDBRANCH   7  11
TORSDOF 1
ENDMDL
MODEL 9
REMARK VINA RESULT:      -5.8      2.274      4.139
REMARK  Name = 
REMARK  1 active torsions:
REMARK  status: ('A' for Active; 'I' for Inactive)
REMARK    1  A    between atoms: C_10  and  C_11
REMARK                            x       y       z     vdW  Elec       q    Type
REMARK                         _______ _______ _______ _____ _____    ______ ____
ROOT
ATOM      1  C   UNL     1      -0.084   5.957  -3.868  0.00  0.00    -0.000 A 
ATOM      2  C   UNL     1       1.233   5.913  -3.512  0.00  0.00    -0.005 A 
ATOM      3  C   UNL     1       2.155   6.510  -4.367  0.00  0.00    -0.026 A 
ATOM      4  C   UNL     1       3.378   7.083  -3.766  0.00  0.00    +0.026 C 
ATOM      5  C   UNL     1       4.462   7.301  -4.776  0.00  0.00    +0.006 C 
ATOM      6  C   UNL     1       4.147   6.359  -5.905  0.00  0.00    +0.017 C 
ATOM      7  C   UNL     1       2.905   7.120  -6.709  0.00  0.00    +0.131 C 
ATOM      8  C   UNL     1       1.800   6.521  -5.677  0.00  0.00    -0.015 A 
ATOM      9  C   UNL     1       0.493   6.897  -5.971  0.00  0.00    -0.004 A 
ATOM     10  C   UNL     1      -0.472   6.616  -5.007  0.00  0.00    -0.000 A 
ENDROOT
BRANCH   7  11
ATOM     11  C   UNL     1       2.682   5.877  -7.744  0.00  0.00    +0.336 C 
ATOM     12  N   UNL     1       2.669   6.283  -9.121  0.00  0.00    -0.030 NA
ATOM     13  C   UNL     1       3.552   5.455  -9.912  0.00  0.00    +0.308 C 
ATOM     14  C   UNL     1       3.841   4.337  -8.963  0.00  0.00    +0.318 C 
ATOM     15  N   UNL     1       3.434   4.861  -7.701  0.00  0.00    -0.061 NA
ENDBRANCH   7  11
TORSDOF 1
ENDMDL
