MODEL 1
REMARK VINA RESULT:      -6.6      0.000      0.000
REMARK  Name = 
REMARK  3 active torsions:
REMARK  status: ('A' for Active; 'I' for Inactive)
REMARK    1  A    between atoms: N_4  and  N_5
REMARK    2  A    between atoms: C_6  and  C_7
REMARK    3  A    between atoms: C_10  and  N_11
REMARK                            x       y       z     vdW  Elec       q    Type
REMARK                         _______ _______ _______ _____ _____    ______ ____
ROOT
ATOM      1  N   UNL     1       2.003   5.798 -10.479  0.00  0.00    -0.169 NA
ATOM      2  C   UNL     1       2.940   5.841 -11.345  0.00  0.00    +0.155 C 
ENDROOT
BRANCH   1   8
ATOM      3  O   UNL     1       3.282   7.498  -6.427  0.00  0.00    -0.271 OA
ATOM      4  C   UNL     1       2.602   6.595  -6.998  0.00  0.00    +0.272 C 
ATOM      5  N   UNL     1       2.844   5.187  -7.014  0.00  0.00    -0.125 NA
ATOM      6  C   UNL     1       2.452   4.665  -8.289  0.00  0.00    +0.349 C 
ATOM      7  O   UNL     1       2.620   3.485  -8.711  0.00  0.00    -0.249 OA
ATOM      8  N   UNL     1       2.341   5.827  -9.121  0.00  0.00    -0.154 N 
ATOM      9  C   UNL     1       1.806   6.856  -8.233  0.00  0.00    +0.208 C 
ENDBRANCH   1   8
BRANCH   2  10
ATOM     10  C   UNL     1       4.342   6.117 -11.031  0.00  0.00    +0.172 A 
ATOM     11  O   UNL     1       5.300   5.284 -11.392  0.00  0.00    -0.397 OA
ATOM     12  C   UNL     1       6.456   5.878 -11.423  0.00  0.00    +0.447 A 
ATOM     13  C   UNL     1       6.297   7.181 -11.033  0.00  0.00    +0.121 A 
ATOM     14  C   UNL     1       4.954   7.298 -10.705  0.00  0.00    +0.049 A 
BRANCH  12  15
ATOM     15  N   UNL     1       7.634   5.233 -11.924  0.00  0.00    +0.119 N 
ATOM     16  O   UNL     1       8.897   5.715 -11.637  0.00  0.00    -0.573 OA
ATOM     17  O   UNL     1       7.532   4.600 -13.005  0.00  0.00    +0.045 OA
ENDBRANCH  12  15
ENDBRANCH   2  10
TORSDOF 3
ENDMDL
MODEL 2
REMARK VINA RESULT:      -6.3      6.429      8.340
REMARK  Name = 
REMARK  3 active torsions:
REMARK  status: ('A' for Active; 'I' for Inactive)
REMARK    1  A    between atoms: N_4  and  N_5
REMARK    2  A    between atoms: C_6  and  C_7
REMARK    3  A    between atoms: C_10  and  N_11
REMARK                            x       y       z     vdW  Elec       q    Type
REMARK                         _______ _______ _______ _____ _____    ______ ____
ROOT
ATOM      1  N   UNL     1      -2.015   8.234  -3.423  0.00  0.00    -0.169 NA
ATOM      2  C   UNL     1      -1.842   8.234  -4.687  0.00  0.00    +0.155 C 
ENDROOT
BRANCH   1   8
ATOM      3  O   UNL     1       0.032   4.613  -1.514  0.00  0.00    -0.271 OA
ATOM      4  C   UNL     1      -0.956   5.400  -1.432  0.00  0.00    +0.272 C 
ATOM      5  N   UNL     1      -2.338   5.103  -1.638  0.00  0.00    -0.125 NA
ATOM      6  C   UNL     1      -2.969   6.237  -2.246  0.00  0.00    +0.349 C 
ATOM      7  O   UNL     1      -4.156   6.305  -2.677  0.00  0.00    -0.249 OA
ATOM      8  N   UNL     1      -1.874   7.028  -2.725  0.00  0.00    -0.154 N 
ATOM      9  C   UNL     1      -0.838   6.862  -1.709  0.00  0.00    +0.208 C 
ENDBRANCH   1   8
BRANCH   2  10
ATOM     10  C   UNL     1      -1.311   7.103  -5.448  0.00  0.00    +0.172 A 
ATOM     11  O   UNL     1      -0.113   6.610  -5.194  0.00  0.00    -0.397 OA
ATOM     12  C   UNL     1       0.001   5.394  -5.636  0.00  0.00    +0.447 A 
ATOM     13  C   UNL     1      -1.164   5.034  -6.257  0.00  0.00    +0.121 A 
ATOM     14  C   UNL     1      -1.965   6.165  -6.202  0.00  0.00    +0.049 A 
BRANCH  12  15
ATOM     15  N   UNL     1       1.152   4.584  -5.359  0.00  0.00    +0.119 N 
ATOM     16  O   UNL     1       2.239   5.088  -4.669  0.00  0.00    -0.573 OA
ATOM     17  O   UNL     1       1.409   3.651  -6.160  0.00  0.00    +0.045 OA
ENDBRANCH  12  15
ENDBRANCH   2  10
TORSDOF 3
ENDMDL
MODEL 3
REMARK VINA RESULT:      -6.3      5.251      8.375
REMARK  Name = 
REMARK  3 active torsions:
REMARK  status: ('A' for Active; 'I' for Inactive)
REMARK    1  A    between atoms: N_4  and  N_5
REMARK    2  A    between atoms: C_6  and  C_7
REMARK    3  A    between atoms: C_10  and  N_11
REMARK                            x       y       z     vdW  Elec       q    Type
REMARK                         _______ _______ _______ _____ _____    ______ ____
ROOT
ATOM      1  N   UNL     1       0.011   5.380  -7.273  0.00  0.00    -0.169 NA
ATOM      2  C   UNL     1      -1.214   5.570  -6.968  0.00  0.00    +0.155 C 
ENDROOT
BRANCH   1   8
ATOM      3  O   UNL     1       2.492   5.779  -3.448  0.00  0.00    -0.271 OA
ATOM      4  C   UNL     1       2.522   5.870  -4.711  0.00  0.00    +0.272 C 
ATOM      5  N   UNL     1       2.692   7.045  -5.505  0.00  0.00    -0.125 NA
ATOM      6  C   UNL     1       1.903   6.918  -6.694  0.00  0.00    +0.349 C 
ATOM      7  O   UNL     1       1.715   7.801  -7.579  0.00  0.00    -0.249 OA
ATOM      8  N   UNL     1       1.001   5.844  -6.398  0.00  0.00    -0.154 N 
ATOM      9  C   UNL     1       1.795   4.916  -5.599  0.00  0.00    +0.208 C 
ENDBRANCH   1   8
BRANCH   2  10
ATOM     10  C   UNL     1      -1.674   6.066  -5.671  0.00  0.00    +0.172 A 
ATOM     11  O   UNL     1      -1.626   5.306  -4.593  0.00  0.00    -0.397 OA
ATOM     12  C   UNL     1      -1.653   6.021  -3.508  0.00  0.00    +0.447 A 
ATOM     13  C   UNL     1      -1.757   7.343  -3.849  0.00  0.00    +0.121 A 
ATOM     14  C   UNL     1      -1.854   7.351  -5.233  0.00  0.00    +0.049 A 
BRANCH  12  15
ATOM     15  N   UNL     1      -1.465   5.447  -2.208  0.00  0.00    +0.119 N 
ATOM     16  O   UNL     1      -0.289   4.808  -1.864  0.00  0.00    -0.573 OA
ATOM     17  O   UNL     1      -2.490   5.053  -1.596  0.00  0.00    +0.045 OA
ENDBRANCH  12  15
ENDBRANCH   2  10
TORSDOF 3
ENDMDL
MODEL 4
REMARK VINA RESULT:      -6.2      4.344      8.443
REMARK  Name = 
REMARK  3 active torsions:
REMARK  status: ('A' for Active; 'I' for Inactive)
REMARK    1  A    between atoms: N_4  and  N_5
REMARK    2  A    between atoms: C_6  and  C_7
REMARK    3  A    between atoms: C_10  and  N_11
REMARK                            x       y       z     vdW  Elec       q    Type
REMARK                         _______ _______ _______ _____ _____    ______ ____
ROOT
ATOM      1  N   UNL     1       2.581   6.411  -5.021  0.00  0.00    -0.169 NA
ATOM      2  C   UNL     1       1.649   6.508  -4.155  0.00  0.00    +0.155 C 
ENDROOT
BRANCH   1   8
ATOM      3  O   UNL     1       1.182   7.181  -9.310  0.00  0.00    -0.271 OA
ATOM      4  C   UNL     1       1.921   6.455  -8.581  0.00  0.00    +0.272 C 
ATOM      5  N   UNL     1       1.770   5.067  -8.280  0.00  0.00    -0.125 NA
ATOM      6  C   UNL     1       2.198   4.837  -6.933  0.00  0.00    +0.349 C 
ATOM      7  O   UNL     1       2.108   3.757  -6.281  0.00  0.00    -0.249 OA
ATOM      8  N   UNL     1       2.237   6.146  -6.353  0.00  0.00    -0.154 N 
ATOM      9  C   UNL     1       2.703   7.007  -7.436  0.00  0.00    +0.208 C 
ENDBRANCH   1   8
BRANCH   2  10
ATOM     10  C   UNL     1       0.223   6.556  -4.479  0.00  0.00    +0.172 A 
ATOM     11  O   UNL     1      -0.647   5.790  -3.850  0.00  0.00    -0.397 OA
ATOM     12  C   UNL     1      -1.853   6.265  -3.947  0.00  0.00    +0.447 A 
ATOM     13  C   UNL     1      -1.823   7.401  -4.711  0.00  0.00    +0.121 A 
ATOM     14  C   UNL     1      -0.502   7.530  -5.113  0.00  0.00    +0.049 A 
BRANCH  12  15
ATOM     15  N   UNL     1      -2.958   5.699  -3.231  0.00  0.00    +0.119 N 
ATOM     16  O   UNL     1      -3.930   6.497  -2.657  0.00  0.00    -0.573 OA
ATOM     17  O   UNL     1      -2.780   4.585  -2.676  0.00  0.00    +0.045 OA
ENDBRANCH  12  15
ENDBRANCH   2  10
TORSDOF 3
ENDMDL
MODEL 5
REMARK VINA RESULT:      -6.2      4.036      7.384
REMARK  Name = 
REMARK  3 active torsions:
REMARK  status: ('A' for Active; 'I' for Inactive)
REMARK    1  A    between atoms: N_4  and  N_5
REMARK    2  A    between atoms: C_6  and  C_7
REMARK    3  A    between atoms: C_10  and  N_11
REMARK                            x       y       z     vdW  Elec       q    Type
REMARK                         _______ _______ _______ _____ _____    ______ ____
ROOT
ATOM      1  N   UNL     1       2.466   3.926  -7.569  0.00  0.00    -0.169 NA
ATOM      2  C   UNL     1       2.053   3.673  -6.388  0.00  0.00    +0.155 C 
ENDROOT
BRANCH   1   8
ATOM      3  O   UNL     1       2.164   8.483  -7.871  0.00  0.00    -0.271 OA
ATOM      4  C   UNL     1       2.349   7.416  -8.528  0.00  0.00    +0.272 C 
ATOM      5  N   UNL     1       1.493   6.823  -9.505  0.00  0.00    -0.125 NA
ATOM      6  C   UNL     1       1.584   5.397  -9.396  0.00  0.00    +0.349 C 
ATOM      7  O   UNL     1       0.891   4.542 -10.018  0.00  0.00    -0.249 OA
ATOM      8  N   UNL     1       2.199   5.186  -8.119  0.00  0.00    -0.154 N 
ATOM      9  C   UNL     1       3.158   6.280  -7.995  0.00  0.00    +0.208 C 
ENDBRANCH   1   8
BRANCH   2  10
ATOM     10  C   UNL     1       1.485   4.671  -5.481  0.00  0.00    +0.172 A 
ATOM     11  O   UNL     1       0.180   4.798  -5.335  0.00  0.00    -0.397 OA
ATOM     12  C   UNL     1      -0.116   5.392  -4.218  0.00  0.00    +0.447 A 
ATOM     13  C   UNL     1       1.044   5.723  -3.569  0.00  0.00    +0.121 A 
ATOM     14  C   UNL     1       2.061   5.331  -4.428  0.00  0.00    +0.049 A 
BRANCH  12  15
ATOM     15  N   UNL     1      -1.466   5.521  -3.754  0.00  0.00    +0.119 N 
ATOM     16  O   UNL     1      -1.869   4.980  -2.547  0.00  0.00    -0.573 OA
ATOM     17  O   UNL     1      -2.368   5.633  -4.622  0.00  0.00    +0.045 OA
ENDBRANCH  12  15
ENDBRANCH   2  10
TORSDOF 3
ENDMDL
MODEL 6
REMARK VINA RESULT:      -6.0      5.849      8.688
REMARK  Name = 
REMARK  3 active torsions:
REMARK  status: ('A' for Active; 'I' for Inactive)
REMARK    1  A    between atoms: N_4  and  N_5
REMARK    2  A    between atoms: C_6  and  C_7
REMARK    3  A    between atoms: C_10  and  N_11
REMARK                            x       y       z     vdW  Elec       q    Type
REMARK                         _______ _______ _______ _____ _____    ______ ____
ROOT
ATOM      1  N   UNL     1       2.341   4.743  -5.231  0.00  0.00    -0.169 NA
ATOM      2  C   UNL     1       1.165   4.690  -5.724  0.00  0.00    +0.155 C 
ENDROOT
BRANCH   1   8
ATOM      3  O   UNL     1       2.354   6.988  -1.243  0.00  0.00    -0.271 OA
ATOM      4  C   UNL     1       3.021   6.746  -2.292  0.00  0.00    +0.272 C 
ATOM      5  N   UNL     1       3.371   7.650  -3.341  0.00  0.00    -0.125 NA
ATOM      6  C   UNL     1       3.353   6.943  -4.586  0.00  0.00    +0.349 C 
ATOM      7  O   UNL     1       3.502   7.435  -5.742  0.00  0.00    -0.249 OA
ATOM      8  N   UNL     1       2.632   5.740  -4.292  0.00  0.00    -0.154 N 
ATOM      9  C   UNL     1       3.041   5.398  -2.932  0.00  0.00    +0.208 C 
ENDBRANCH   1   8
BRANCH   2  10
ATOM     10  C   UNL     1       0.030   5.475  -5.237  0.00  0.00    +0.172 A 
ATOM     11  O   UNL     1      -0.574   5.172  -4.104  0.00  0.00    -0.397 OA
ATOM     12  C   UNL     1      -1.232   6.189  -3.632  0.00  0.00    +0.447 A 
ATOM     13  C   UNL     1      -1.105   7.242  -4.499  0.00  0.00    +0.121 A 
ATOM     14  C   UNL     1      -0.364   6.746  -5.562  0.00  0.00    +0.049 A 
BRANCH  12  15
ATOM     15  N   UNL     1      -1.854   6.166  -2.341  0.00  0.00    +0.119 N 
ATOM     16  O   UNL     1      -2.528   5.048  -1.886  0.00  0.00    -0.573 OA
ATOM     17  O   UNL     1      -2.247   7.262  -1.868  0.00  0.00    +0.045 OA
ENDBRANCH  12  15
ENDBRANCH   2  10
TORSDOF 3
ENDMDL
MODEL 7
REMARK VINA RESULT:      -6.0      3.211      4.414
REMARK  Name = 
REMARK  3 active torsions:
REMARK  status: ('A' for Active; 'I' for Inactive)
REMARK    1  A    between atoms: N_4  and  N_5
REMARK    2  A    between atoms: C_6  and  C_7
REMARK    3  A    between atoms: C_10  and  N_11
REMARK                            x       y       z     vdW  Elec       q    Type
REMARK                         _______ _______ _______ _____ _____    ______ ____
ROOT
ATOM      1  N   UNL     1       0.761   4.526  -9.610  0.00  0.00    -0.169 NA
ATOM      2  C   UNL     1       0.396   4.643 -10.827  0.00  0.00    +0.155 C 
ENDROOT
BRANCH   1   8
ATOM      3  O   UNL     1       2.152   8.533  -7.891  0.00  0.00    -0.271 OA
ATOM      4  C   UNL     1       2.345   7.281  -7.873  0.00  0.00    +0.272 C 
ATOM      5  N   UNL     1       3.478   6.557  -8.353  0.00  0.00    -0.125 NA
ATOM      6  C   UNL     1       3.033   5.310  -8.900  0.00  0.00    +0.349 C 
ATOM      7  O   UNL     1       3.735   4.457  -9.515  0.00  0.00    -0.249 OA
ATOM      8  N   UNL     1       1.622   5.490  -9.070  0.00  0.00    -0.154 N 
ATOM      9  C   UNL     1       1.221   6.300  -7.923  0.00  0.00    +0.208 C 
ENDBRANCH   1   8
BRANCH   2  10
ATOM     10  C   UNL     1       0.653   5.821 -11.656  0.00  0.00    +0.172 A 
ATOM     11  O   UNL     1       1.265   5.717 -12.820  0.00  0.00    -0.397 OA
ATOM     12  C   UNL     1       1.018   6.744 -13.578  0.00  0.00    +0.447 A 
ATOM     13  C   UNL     1       0.220   7.621 -12.892  0.00  0.00    +0.121 A 
ATOM     14  C   UNL     1       0.063   7.057 -11.635  0.00  0.00    +0.049 A 
BRANCH  12  15
ATOM     15  N   UNL     1       1.444   6.806 -14.945  0.00  0.00    +0.119 N 
ATOM     16  O   UNL     1       0.587   6.491 -15.983  0.00  0.00    -0.573 OA
ATOM     17  O   UNL     1       2.665   6.620 -15.179  0.00  0.00    +0.045 OA
ENDBRANCH  12  15
ENDBRANCH   2  10
TORSDOF 3
ENDMDL
MODEL 8
REMARK VINA RESULT:      -6.0      5.240      7.325
REMARK  Name = 
REMARK  3 active torsions:
REMARK  status: ('A' for Active; 'I' for Inactive)
REMARK    1  A    between atoms: N_4  and  N_5
REMARK    2  A    between atoms: C_6  and  C_7
REMARK    3  A    between atoms: C_10  and  N_11
REMARK                            x       y       z     vdW  Elec       q    Type
REMARK                         _______ _______ _______ _____ _____    ______ ____
ROOT
ATOM      1  N   UNL     1       3.573   5.786  -6.560  0.00  0.00    -0.169 NA
ATOM      2  C   UNL     1       4.470   6.019  -5.683  0.00  0.00    +0.155 C 
ENDROOT
BRANCH   1   8
ATOM      3  O   UNL     1      -0.388   7.397  -4.930  0.00  0.00    -0.271 OA
ATOM      4  C   UNL     1       0.136   6.571  -5.735  0.00  0.00    +0.272 C 
ATOM      5  N   UNL     1       0.128   5.145  -5.662  0.00  0.00    -0.125 NA
ATOM      6  C   UNL     1       1.375   4.649  -6.163  0.00  0.00    +0.349 C 
ATOM      7  O   UNL     1       1.775   3.450  -6.153  0.00  0.00    -0.249 OA
ATOM      8  N   UNL     1       2.229   5.800  -6.168  0.00  0.00    -0.154 N 
ATOM      9  C   UNL     1       1.347   6.902  -6.542  0.00  0.00    +0.208 C 
ENDBRANCH   1   8
BRANCH   2  10
ATOM     10  C   UNL     1       4.194   6.497  -4.328  0.00  0.00    +0.172 A 
ATOM     11  O   UNL     1       3.832   5.664  -3.370  0.00  0.00    -0.397 OA
ATOM     12  C   UNL     1       4.054   6.170  -2.194  0.00  0.00    +0.447 A 
ATOM     13  C   UNL     1       4.567   7.430  -2.341  0.00  0.00    +0.121 A 
ATOM     14  C   UNL     1       4.573   7.659  -3.710  0.00  0.00    +0.049 A 
BRANCH  12  15
ATOM     15  N   UNL     1       3.884   5.410  -0.990  0.00  0.00    +0.119 N 
ATOM     16  O   UNL     1       2.768   4.620  -0.788  0.00  0.00    -0.573 OA
ATOM     17  O   UNL     1       4.428   5.849   0.054  0.00  0.00    +0.045 OA
ENDBRANCH  12  15
ENDBRANCH   2  10
TORSDOF 3
ENDMDL
MODEL 9
REMARK VINA RESULT:      -5.7      1.896      2.305
REMARK  Name = 
REMARK  3 active torsions:
REMARK  status: ('A' for Active; 'I' for Inactive)
REMARK    1  A    between atoms: N_4  and  N_5
REMARK    2  A    between atoms: C_6  and  C_7
REMARK    3  A    between atoms: C_10  and  N_11
REMARK                            x       y       z     vdW  Elec       q    Type
REMARK                         _______ _______ _______ _____ _____    ______ ____
ROOT
ATOM      1  N   UNL     1       1.454   5.327  -8.580  0.00  0.00    -0.169 NA
ATOM      2  C   UNL     1       2.196   4.964  -9.553  0.00  0.00    +0.155 C 
ENDROOT
BRANCH   1   8
ATOM      3  O   UNL     1       3.991   7.517  -5.463  0.00  0.00    -0.271 OA
ATOM      4  C   UNL     1       2.964   6.795  -5.634  0.00  0.00    +0.272 C 
ATOM      5  N   UNL     1       2.752   5.450  -5.205  0.00  0.00    -0.125 NA
ATOM      6  C   UNL     1       1.967   4.768  -6.191  0.00  0.00    +0.349 C 
ATOM      7  O   UNL     1       1.674   3.538  -6.211  0.00  0.00    -0.249 OA
ATOM      8  N   UNL     1       2.054   5.612  -7.347  0.00  0.00    -0.154 N 
ATOM      9  C   UNL     1       2.054   6.967  -6.804  0.00  0.00    +0.208 C 
ENDBRANCH   1   8
BRANCH   2  10
ATOM     10  C   UNL     1       3.658   5.007  -9.536  0.00  0.00    +0.172 A 
ATOM     11  O   UNL     1       4.329   5.752 -10.395  0.00  0.00    -0.397 OA
ATOM     12  C   UNL     1       5.530   6.003  -9.965  0.00  0.00    +0.447 A 
ATOM     13  C   UNL     1       5.714   5.374  -8.764  0.00  0.00    +0.121 A 
ATOM     14  C   UNL     1       4.538   4.672  -8.541  0.00  0.00    +0.049 A 
BRANCH  12  15
ATOM     15  N   UNL     1       6.410   6.910 -10.642  0.00  0.00    +0.119 N 
ATOM     16  O   UNL     1       7.745   7.013 -10.296  0.00  0.00    -0.573 OA
ATOM     17  O   UNL     1       5.902   7.945 -11.141  0.00  0.00    +0.045 OA
ENDBRANCH  12  15
ENDBRANCH   2  10
TORSDOF 3
ENDMDL
