MODEL 1
REMARK VINA RESULT:      -6.7      0.000      0.000
REMARK  Name = 
REMARK  3 active torsions:
REMARK  status: ('A' for Active; 'I' for Inactive)
REMARK    1  A    between atoms: C_5  and  C_6
REMARK    2  A    between atoms: C_6  and  C_7
REMARK    3  A    between atoms: C_6  and  C_14
REMARK                            x       y       z     vdW  Elec       q    Type
REMARK                         _______ _______ _______ _____ _____    ______ ____
ROOT
ATOM      1  C   UNL     1       1.084   5.109 -10.305  0.00  0.00    +0.076 C 
ENDROOT
BRANCH   1   6
ATOM      2 CL   UNL     1       2.552   6.551  -5.287  0.00  0.00    -0.082 Cl
ATOM      3  C   UNL     1       1.688   6.737  -6.593  0.00  0.00    +0.058 A 
ATOM      4  C   UNL     1       0.538   5.992  -6.811  0.00  0.00    +0.011 A 
ATOM      5  C   UNL     1       0.104   5.732  -8.106  0.00  0.00    -0.003 A 
ATOM      6  C   UNL     1       0.733   6.283  -9.219  0.00  0.00    -0.016 A 
ATOM      7  C   UNL     1       1.784   7.117  -8.931  0.00  0.00    -0.003 A 
ATOM      8  C   UNL     1       2.030   7.581  -7.644  0.00  0.00    +0.011 A 
ENDBRANCH   1   6
BRANCH   1   9
ATOM      9  C   UNL     1       2.685   5.403 -10.292  0.00  0.00    -0.005 A 
ATOM     10  C   UNL     1       3.375   4.796  -9.279  0.00  0.00    +0.054 A 
ATOM     11 CL   UNL     1       2.761   3.339  -8.504  0.00  0.00    -0.083 Cl
ATOM     12  C   UNL     1       4.700   5.192  -9.133  0.00  0.00    +0.011 A 
ATOM     13  C   UNL     1       5.250   6.161  -9.965  0.00  0.00    +0.001 A 
ATOM     14  C   UNL     1       4.517   6.593 -11.065  0.00  0.00    -0.000 A 
ATOM     15  C   UNL     1       3.170   6.270 -11.203  0.00  0.00    -0.003 A 
ENDBRANCH   1   9
BRANCH   1  16
ATOM     16  C   UNL     1       0.865   6.063 -11.645  0.00  0.00    +0.167 C 
ATOM     17 CL   UNL     1       0.678   4.902 -12.953  0.00  0.00    -0.096 Cl
ATOM     18 CL   UNL     1      -0.382   7.197 -11.429  0.00  0.00    -0.096 Cl
ENDBRANCH   1  16
TORSDOF 3
ENDMDL
MODEL 2
REMARK VINA RESULT:      -6.7      3.305      6.420
REMARK  Name = 
REMARK  3 active torsions:
REMARK  status: ('A' for Active; 'I' for Inactive)
REMARK    1  A    between atoms: C_5  and  C_6
REMARK    2  A    between atoms: C_6  and  C_7
REMARK    3  A    between atoms: C_6  and  C_14
REMARK                            x       y       z     vdW  Elec       q    Type
REMARK                         _______ _______ _______ _____ _____    ______ ____
ROOT
ATOM      1  C   UNL     1       0.203   6.861  -5.137  0.00  0.00    +0.076 C 
ENDROOT
BRANCH   1   6
ATOM      2 CL   UNL     1       3.484   4.222  -8.555  0.00  0.00    -0.082 Cl
ATOM      3  C   UNL     1       2.158   4.342  -7.712  0.00  0.00    +0.058 A 
ATOM      4  C   UNL     1       1.064   5.054  -8.184  0.00  0.00    +0.011 A 
ATOM      5  C   UNL     1       0.160   5.624  -7.294  0.00  0.00    -0.003 A 
ATOM      6  C   UNL     1       0.252   5.424  -5.919  0.00  0.00    -0.016 A 
ATOM      7  C   UNL     1       1.279   4.601  -5.526  0.00  0.00    -0.003 A 
ATOM      8  C   UNL     1       1.996   3.827  -6.430  0.00  0.00    +0.011 A 
ENDBRANCH   1   6
BRANCH   1   9
ATOM      9  C   UNL     1       0.519   6.217  -3.676  0.00  0.00    -0.005 A 
ATOM     10  C   UNL     1       1.837   6.228  -3.313  0.00  0.00    +0.054 A 
ATOM     11 CL   UNL     1       2.962   7.395  -4.001  0.00  0.00    -0.083 Cl
ATOM     12  C   UNL     1       2.151   5.508  -2.166  0.00  0.00    +0.011 A 
ATOM     13  C   UNL     1       1.167   4.815  -1.468  0.00  0.00    +0.001 A 
ATOM     14  C   UNL     1      -0.164   5.005  -1.824  0.00  0.00    -0.000 A 
ATOM     15  C   UNL     1      -0.507   5.660  -3.002  0.00  0.00    -0.003 A 
ENDBRANCH   1   9
BRANCH   1  16
ATOM     16  C   UNL     1      -1.432   6.832  -4.857  0.00  0.00    +0.167 C 
ATOM     17 CL   UNL     1      -1.829   8.520  -4.556  0.00  0.00    -0.096 Cl
ATOM     18 CL   UNL     1      -2.283   6.043  -6.098  0.00  0.00    -0.096 Cl
ENDBRANCH   1  16
TORSDOF 3
ENDMDL
MODEL 3
REMARK VINA RESULT:      -6.7      3.956      6.854
REMARK  Name = 
REMARK  3 active torsions:
REMARK  status: ('A' for Active; 'I' for Inactive)
REMARK    1  A    between atoms: C_5  and  C_6
REMARK    2  A    between atoms: C_6  and  C_7
REMARK    3  A    between atoms: C_6  and  C_14
REMARK                            x       y       z     vdW  Elec       q    Type
REMARK                         _______ _______ _______ _____ _____    ______ ____
ROOT
ATOM      1  C   UNL     1      -0.339   6.931  -5.509  0.00  0.00    +0.076 C 
ENDROOT
BRANCH   1   6
ATOM      2 CL   UNL     1       4.935   7.680  -4.498  0.00  0.00    -0.082 Cl
ATOM      3  C   UNL     1       3.648   6.774  -4.576  0.00  0.00    +0.058 A 
ATOM      4  C   UNL     1       3.226   6.221  -5.777  0.00  0.00    +0.011 A 
ATOM      5  C   UNL     1       1.883   5.920  -5.978  0.00  0.00    -0.003 A 
ATOM      6  C   UNL     1       0.936   6.060  -4.967  0.00  0.00    -0.016 A 
ATOM      7  C   UNL     1       1.440   6.486  -3.763  0.00  0.00    -0.003 A 
ATOM      8  C   UNL     1       2.805   6.518  -3.501  0.00  0.00    +0.011 A 
ENDBRANCH   1   6
BRANCH   1   9
ATOM      9  C   UNL     1      -1.251   6.648  -4.191  0.00  0.00    -0.005 A 
ATOM     10  C   UNL     1      -1.764   7.766  -3.592  0.00  0.00    +0.054 A 
ATOM     11 CL   UNL     1      -2.000   9.257  -4.500  0.00  0.00    -0.083 Cl
ATOM     12  C   UNL     1      -2.374   7.562  -2.360  0.00  0.00    +0.011 A 
ATOM     13  C   UNL     1      -2.424   6.294  -1.791  0.00  0.00    +0.001 A 
ATOM     14  C   UNL     1      -2.024   5.203  -2.553  0.00  0.00    -0.000 A 
ATOM     15  C   UNL     1      -1.348   5.375  -3.758  0.00  0.00    -0.003 A 
ENDBRANCH   1   9
BRANCH   1  16
ATOM     16  C   UNL     1      -1.047   5.677  -6.334  0.00  0.00    +0.167 C 
ATOM     17 CL   UNL     1      -2.750   6.118  -6.375  0.00  0.00    -0.096 Cl
ATOM     18 CL   UNL     1      -0.287   5.377  -7.824  0.00  0.00    -0.096 Cl
ENDBRANCH   1  16
TORSDOF 3
ENDMDL
MODEL 4
REMARK VINA RESULT:      -6.7      2.858      5.111
REMARK  Name = 
REMARK  3 active torsions:
REMARK  status: ('A' for Active; 'I' for Inactive)
REMARK    1  A    between atoms: C_5  and  C_6
REMARK    2  A    between atoms: C_6  and  C_7
REMARK    3  A    between atoms: C_6  and  C_14
REMARK                            x       y       z     vdW  Elec       q    Type
REMARK                         _______ _______ _______ _____ _____    ______ ____
ROOT
ATOM      1  C   UNL     1       3.426   6.848  -5.431  0.00  0.00    +0.076 C 
ENDROOT
BRANCH   1   6
ATOM      2 CL   UNL     1      -1.565   5.185  -6.750  0.00  0.00    -0.082 Cl
ATOM      3  C   UNL     1      -0.210   5.032  -5.958  0.00  0.00    +0.058 A 
ATOM      4  C   UNL     1       0.019   5.726  -4.778  0.00  0.00    +0.011 A 
ATOM      5  C   UNL     1       1.317   6.041  -4.390  0.00  0.00    -0.003 A 
ATOM      6  C   UNL     1       2.428   5.593  -5.098  0.00  0.00    -0.016 A 
ATOM      7  C   UNL     1       2.138   4.800  -6.182  0.00  0.00    -0.003 A 
ATOM      8  C   UNL     1       0.870   4.274  -6.395  0.00  0.00    +0.011 A 
ENDBRANCH   1   6
BRANCH   1   9
ATOM      9  C   UNL     1       3.855   6.280  -6.895  0.00  0.00    -0.005 A 
ATOM     10  C   UNL     1       3.023   6.639  -7.919  0.00  0.00    +0.054 A 
ATOM     11 CL   UNL     1       2.020   8.083  -7.815  0.00  0.00    -0.083 Cl
ATOM     12  C   UNL     1       3.257   6.004  -9.134  0.00  0.00    +0.011 A 
ATOM     13  C   UNL     1       4.267   5.056  -9.259  0.00  0.00    +0.001 A 
ATOM     14  C   UNL     1       5.159   4.886  -8.207  0.00  0.00    -0.000 A 
ATOM     15  C   UNL     1       4.916   5.451  -6.959  0.00  0.00    -0.003 A 
ENDBRANCH   1   9
BRANCH   1  16
ATOM     16  C   UNL     1       4.765   6.176  -4.718  0.00  0.00    +0.167 C 
ATOM     17 CL   UNL     1       5.701   7.573  -4.200  0.00  0.00    -0.096 Cl
ATOM     18 CL   UNL     1       4.357   5.032  -3.530  0.00  0.00    -0.096 Cl
ENDBRANCH   1  16
TORSDOF 3
ENDMDL
MODEL 5
REMARK VINA RESULT:      -6.6      2.206      5.982
REMARK  Name = 
REMARK  3 active torsions:
REMARK  status: ('A' for Active; 'I' for Inactive)
REMARK    1  A    between atoms: C_5  and  C_6
REMARK    2  A    between atoms: C_6  and  C_7
REMARK    3  A    between atoms: C_6  and  C_14
REMARK                            x       y       z     vdW  Elec       q    Type
REMARK                         _______ _______ _______ _____ _____    ______ ____
ROOT
ATOM      1  C   UNL     1       3.660   5.447  -5.088  0.00  0.00    +0.076 C 
ENDROOT
BRANCH   1   6
ATOM      2 CL   UNL     1       1.814   6.216 -10.129  0.00  0.00    -0.082 Cl
ATOM      3  C   UNL     1       2.745   6.594  -8.915  0.00  0.00    +0.058 A 
ATOM      4  C   UNL     1       3.944   5.932  -8.690  0.00  0.00    +0.011 A 
ATOM      5  C   UNL     1       4.469   5.847  -7.405  0.00  0.00    -0.003 A 
ATOM      6  C   UNL     1       3.882   6.498  -6.324  0.00  0.00    -0.016 A 
ATOM      7  C   UNL     1       2.773   7.245  -6.636  0.00  0.00    -0.003 A 
ATOM      8  C   UNL     1       2.424   7.541  -7.948  0.00  0.00    +0.011 A 
ENDBRANCH   1   6
BRANCH   1   9
ATOM      9  C   UNL     1       2.042   5.617  -5.071  0.00  0.00    -0.005 A 
ATOM     10  C   UNL     1       1.368   4.821  -5.956  0.00  0.00    +0.054 A 
ATOM     11 CL   UNL     1       2.071   3.317  -6.545  0.00  0.00    -0.083 Cl
ATOM     12  C   UNL     1       0.012   5.092  -6.098  0.00  0.00    +0.011 A 
ATOM     13  C   UNL     1      -0.585   6.127  -5.386  0.00  0.00    +0.001 A 
ATOM     14  C   UNL     1       0.148   6.766  -4.392  0.00  0.00    -0.000 A 
ATOM     15  C   UNL     1       1.520   6.568  -4.271  0.00  0.00    -0.003 A 
ENDBRANCH   1   9
BRANCH   1  16
ATOM     16  C   UNL     1       3.845   6.577  -3.887  0.00  0.00    +0.167 C 
ATOM     17 CL   UNL     1       4.175   5.607  -2.456  0.00  0.00    -0.096 Cl
ATOM     18 CL   UNL     1       4.984   7.770  -4.295  0.00  0.00    -0.096 Cl
ENDBRANCH   1  16
TORSDOF 3
ENDMDL
MODEL 6
REMARK VINA RESULT:      -6.5      1.444      4.202
REMARK  Name = 
REMARK  3 active torsions:
REMARK  status: ('A' for Active; 'I' for Inactive)
REMARK    1  A    between atoms: C_5  and  C_6
REMARK    2  A    between atoms: C_6  and  C_7
REMARK    3  A    between atoms: C_6  and  C_14
REMARK                            x       y       z     vdW  Elec       q    Type
REMARK                         _______ _______ _______ _____ _____    ______ ____
ROOT
ATOM      1  C   UNL     1       1.108   6.718  -9.996  0.00  0.00    +0.076 C 
ENDROOT
BRANCH   1   6
ATOM      2 CL   UNL     1       6.146   5.156  -8.734  0.00  0.00    -0.082 Cl
ATOM      3  C   UNL     1       4.753   4.930  -9.437  0.00  0.00    +0.058 A 
ATOM      4  C   UNL     1       4.470   5.485 -10.677  0.00  0.00    +0.011 A 
ATOM      5  C   UNL     1       3.157   5.769 -11.036  0.00  0.00    -0.003 A 
ATOM      6  C   UNL     1       2.079   5.421 -10.228  0.00  0.00    -0.016 A 
ATOM      7  C   UNL     1       2.417   4.756  -9.075  0.00  0.00    -0.003 A 
ATOM      8  C   UNL     1       3.690   4.241  -8.863  0.00  0.00    +0.011 A 
ENDBRANCH   1   6
BRANCH   1   9
ATOM      9  C   UNL     1       0.585   6.222  -8.537  0.00  0.00    -0.005 A 
ATOM     10  C   UNL     1       1.365   6.608  -7.482  0.00  0.00    +0.054 A 
ATOM     11 CL   UNL     1       2.403   8.027  -7.588  0.00  0.00    -0.083 Cl
ATOM     12  C   UNL     1       1.049   6.031  -6.257  0.00  0.00    +0.011 A 
ATOM     13  C   UNL     1       0.014   5.108  -6.151  0.00  0.00    +0.001 A 
ATOM     14  C   UNL     1      -0.822   4.911  -7.245  0.00  0.00    -0.000 A 
ATOM     15  C   UNL     1      -0.496   5.417  -8.499  0.00  0.00    -0.003 A 
ENDBRANCH   1   9
BRANCH   1  16
ATOM     16  C   UNL     1      -0.214   6.062 -10.754  0.00  0.00    +0.167 C 
ATOM     17 CL   UNL     1      -0.993   7.452 -11.502  0.00  0.00    -0.096 Cl
ATOM     18 CL   UNL     1       0.203   4.766 -11.769  0.00  0.00    -0.096 Cl
ENDBRANCH   1  16
TORSDOF 3
ENDMDL
MODEL 7
REMARK VINA RESULT:      -6.4      2.298      4.652
REMARK  Name = 
REMARK  3 active torsions:
REMARK  status: ('A' for Active; 'I' for Inactive)
REMARK    1  A    between atoms: C_5  and  C_6
REMARK    2  A    between atoms: C_6  and  C_7
REMARK    3  A    between atoms: C_6  and  C_14
REMARK                            x       y       z     vdW  Elec       q    Type
REMARK                         _______ _______ _______ _____ _____    ______ ____
ROOT
ATOM      1  C   UNL     1       2.660   6.158  -9.482  0.00  0.00    +0.076 C 
ENDROOT
BRANCH   1   6
ATOM      2 CL   UNL     1       7.899   6.943 -10.638  0.00  0.00    -0.082 Cl
ATOM      3  C   UNL     1       6.653   6.010 -10.389  0.00  0.00    +0.058 A 
ATOM      4  C   UNL     1       5.735   5.747 -11.396  0.00  0.00    +0.011 A 
ATOM      5  C   UNL     1       4.419   5.426 -11.079  0.00  0.00    -0.003 A 
ATOM      6  C   UNL     1       3.997   5.257  -9.764  0.00  0.00    -0.016 A 
ATOM      7  C   UNL     1       4.984   5.402  -8.820  0.00  0.00    -0.003 A 
ATOM      8  C   UNL     1       6.331   5.448  -9.159  0.00  0.00    +0.011 A 
ENDBRANCH   1   6
BRANCH   1   9
ATOM      9  C   UNL     1       2.358   5.483  -8.032  0.00  0.00    -0.005 A 
ATOM     10  C   UNL     1       2.236   6.369  -6.997  0.00  0.00    +0.054 A 
ATOM     11 CL   UNL     1       1.770   8.043  -7.282  0.00  0.00    -0.083 Cl
ATOM     12  C   UNL     1       2.179   5.806  -5.727  0.00  0.00    +0.011 A 
ATOM     13  C   UNL     1       2.264   4.429  -5.555  0.00  0.00    +0.001 A 
ATOM     14  C   UNL     1       2.219   3.609  -6.677  0.00  0.00    -0.000 A 
ATOM     15  C   UNL     1       2.344   4.137  -7.958  0.00  0.00    -0.003 A 
ENDBRANCH   1   9
BRANCH   1  16
ATOM     16  C   UNL     1       1.609   5.122 -10.243  0.00  0.00    +0.167 C 
ATOM     17 CL   UNL     1       0.079   5.412  -9.425  0.00  0.00    -0.096 Cl
ATOM     18 CL   UNL     1       1.634   5.307 -11.932  0.00  0.00    -0.096 Cl
ENDBRANCH   1  16
TORSDOF 3
ENDMDL
MODEL 8
REMARK VINA RESULT:      -6.3      4.564      6.951
REMARK  Name = 
REMARK  3 active torsions:
REMARK  status: ('A' for Active; 'I' for Inactive)
REMARK    1  A    between atoms: C_5  and  C_6
REMARK    2  A    between atoms: C_6  and  C_7
REMARK    3  A    between atoms: C_6  and  C_14
REMARK                            x       y       z     vdW  Elec       q    Type
REMARK                         _______ _______ _______ _____ _____    ______ ____
ROOT
ATOM      1  C   UNL     1       0.828   6.937  -4.431  0.00  0.00    +0.076 C 
ENDROOT
BRANCH   1   6
ATOM      2 CL   UNL     1      -1.692   6.521   0.353  0.00  0.00    -0.082 Cl
ATOM      3  C   UNL     1      -0.812   5.929  -0.813  0.00  0.00    +0.058 A 
ATOM      4  C   UNL     1       0.554   6.166  -0.878  0.00  0.00    +0.011 A 
ATOM      5  C   UNL     1       1.212   6.149  -2.103  0.00  0.00    -0.003 A 
ATOM      6  C   UNL     1       0.563   5.799  -3.284  0.00  0.00    -0.016 A 
ATOM      7  C   UNL     1      -0.756   5.447  -3.133  0.00  0.00    -0.003 A 
ATOM      8  C   UNL     1      -1.319   5.204  -1.886  0.00  0.00    +0.011 A 
ENDBRANCH   1   6
BRANCH   1   9
ATOM      9  C   UNL     1      -0.410   6.455  -5.372  0.00  0.00    -0.005 A 
ATOM     10  C   UNL     1      -1.602   7.078  -5.121  0.00  0.00    +0.054 A 
ATOM     11 CL   UNL     1      -1.656   8.672  -4.374  0.00  0.00    -0.083 Cl
ATOM     12  C   UNL     1      -2.708   6.543  -5.771  0.00  0.00    +0.011 A 
ATOM     13  C   UNL     1      -2.580   5.434  -6.599  0.00  0.00    +0.001 A 
ATOM     14  C   UNL     1      -1.305   4.980  -6.917  0.00  0.00    -0.000 A 
ATOM     15  C   UNL     1      -0.185   5.445  -6.235  0.00  0.00    -0.003 A 
ENDBRANCH   1   9
BRANCH   1  16
ATOM     16  C   UNL     1       1.913   6.032  -5.302  0.00  0.00    +0.167 C 
ATOM     17 CL   UNL     1       2.780   7.232  -6.254  0.00  0.00    -0.096 Cl
ATOM     18 CL   UNL     1       2.839   5.009  -4.312  0.00  0.00    -0.096 Cl
ENDBRANCH   1  16
TORSDOF 3
ENDMDL
MODEL 9
REMARK VINA RESULT:      -6.3      2.122      5.008
REMARK  Name = 
REMARK  3 active torsions:
REMARK  status: ('A' for Active; 'I' for Inactive)
REMARK    1  A    between atoms: C_5  and  C_6
REMARK    2  A    between atoms: C_6  and  C_7
REMARK    3  A    between atoms: C_6  and  C_14
REMARK                            x       y       z     vdW  Elec       q    Type
REMARK                         _______ _______ _______ _____ _____    ______ ____
ROOT
ATOM      1  C   UNL     1       4.080   5.295 -10.304  0.00  0.00    +0.076 C 
ENDROOT
BRANCH   1   6
ATOM      2 CL   UNL     1       0.541   4.212 -14.268  0.00  0.00    -0.082 Cl
ATOM      3  C   UNL     1       1.481   5.195 -13.471  0.00  0.00    +0.058 A 
ATOM      4  C   UNL     1       2.843   5.264 -13.733  0.00  0.00    +0.011 A 
ATOM      5  C   UNL     1       3.729   5.662 -12.738  0.00  0.00    -0.003 A 
ATOM      6  C   UNL     1       3.291   6.100 -11.491  0.00  0.00    -0.016 A 
ATOM      7  C   UNL     1       1.927   6.134 -11.341  0.00  0.00    -0.003 A 
ATOM      8  C   UNL     1       1.060   5.999 -12.418  0.00  0.00    +0.011 A 
ENDBRANCH   1   6
BRANCH   1   9
ATOM      9  C   UNL     1       3.149   5.894  -9.110  0.00  0.00    -0.005 A 
ATOM     10  C   UNL     1       2.300   4.991  -8.532  0.00  0.00    +0.054 A 
ATOM     11 CL   UNL     1       2.641   3.264  -8.575  0.00  0.00    -0.083 Cl
ATOM     12  C   UNL     1       1.362   5.524  -7.655  0.00  0.00    +0.011 A 
ATOM     13  C   UNL     1       1.305   6.893  -7.419  0.00  0.00    +0.001 A 
ATOM     14  C   UNL     1       2.316   7.702  -7.925  0.00  0.00    -0.000 A 
ATOM     15  C   UNL     1       3.227   7.216  -8.858  0.00  0.00    -0.003 A 
ENDBRANCH   1   9
BRANCH   1  16
ATOM     16  C   UNL     1       5.234   6.463 -10.063  0.00  0.00    +0.167 C 
ATOM     17 CL   UNL     1       6.487   5.623  -9.157  0.00  0.00    -0.096 Cl
ATOM     18 CL   UNL     1       5.698   7.218 -11.512  0.00  0.00    -0.096 Cl
ENDBRANCH   1  16
TORSDOF 3
ENDMDL
