MODEL 1
REMARK VINA RESULT:      -5.0      0.000      0.000
REMARK  Name = 
REMARK  0 active torsions:
REMARK  status: ('A' for Active; 'I' for Inactive)
REMARK                            x       y       z     vdW  Elec       q    Type
REMARK                         _______ _______ _______ _____ _____    ______ ____
ROOT
ATOM      1  O   UNL     1       5.372   4.644 -13.500  0.00  0.00    -0.243 OA
ATOM      2  C   UNL     1       6.332   5.391 -13.145  0.00  0.00    +0.372 A 
ATOM      3  N   UNL     1       6.103   6.694 -12.878  0.00  0.00    -0.150 NA
ATOM      4  C   UNL     1       6.724   7.306 -11.842  0.00  0.00    +0.312 A 
ATOM      5  O   UNL     1       6.492   8.516 -11.544  0.00  0.00    -0.263 OA
ATOM      6  C   UNL     1       7.619   6.588 -11.057  0.00  0.00    +0.217 A 
ATOM      7  F   UNL     1       7.944   7.021  -9.804  0.00  0.00    -0.197 F 
ATOM      8  C   UNL     1       8.060   5.365 -11.543  0.00  0.00    +0.138 A 
ATOM      9  N   UNL     1       7.508   4.898 -12.691  0.00  0.00    -0.187 NA
ENDROOT
TORSDOF 0
ENDMDL
MODEL 2
REMARK VINA RESULT:      -4.6     12.041     12.387
REMARK  Name = 
REMARK  0 active torsions:
REMARK  status: ('A' for Active; 'I' for Inactive)
REMARK                            x       y       z     vdW  Elec       q    Type
REMARK                         _______ _______ _______ _____ _____    ______ ____
ROOT
ATOM      1  O   UNL     1      -0.296   4.748  -1.685  0.00  0.00    -0.243 OA
ATOM      2  C   UNL     1      -1.172   5.465  -2.254  0.00  0.00    +0.372 A 
ATOM      3  N   UNL     1      -0.794   6.554  -2.957  0.00  0.00    -0.150 NA
ATOM      4  C   UNL     1      -1.399   6.865  -4.127  0.00  0.00    +0.312 A 
ATOM      5  O   UNL     1      -1.032   7.857  -4.826  0.00  0.00    -0.263 OA
ATOM      6  C   UNL     1      -2.433   6.065  -4.600  0.00  0.00    +0.217 A 
ATOM      7  F   UNL     1      -2.784   6.094  -5.919  0.00  0.00    -0.197 F 
ATOM      8  C   UNL     1      -2.995   5.155  -3.715  0.00  0.00    +0.138 A 
ATOM      9  N   UNL     1      -2.431   5.026  -2.489  0.00  0.00    -0.187 NA
ENDROOT
TORSDOF 0
ENDMDL
MODEL 3
REMARK VINA RESULT:      -4.6      2.122      2.770
REMARK  Name = 
REMARK  0 active torsions:
REMARK  status: ('A' for Active; 'I' for Inactive)
REMARK                            x       y       z     vdW  Elec       q    Type
REMARK                         _______ _______ _______ _____ _____    ______ ____
ROOT
ATOM      1  O   UNL     1       4.576   6.844 -10.568  0.00  0.00    -0.243 OA
ATOM      2  C   UNL     1       5.488   5.972 -10.683  0.00  0.00    +0.372 A 
ATOM      3  N   UNL     1       5.783   5.467 -11.899  0.00  0.00    -0.150 NA
ATOM      4  C   UNL     1       7.068   5.229 -12.255  0.00  0.00    +0.312 A 
ATOM      5  O   UNL     1       7.374   4.798 -13.407  0.00  0.00    -0.263 OA
ATOM      6  C   UNL     1       8.090   5.489 -11.350  0.00  0.00    +0.217 A 
ATOM      7  F   UNL     1       9.375   5.652 -11.783  0.00  0.00    -0.197 F 
ATOM      8  C   UNL     1       7.735   5.704 -10.025  0.00  0.00    +0.138 A 
ATOM      9  N   UNL     1       6.415   5.757  -9.720  0.00  0.00    -0.187 NA
ENDROOT
TORSDOF 0
ENDMDL
MODEL 4
REMARK VINA RESULT:      -4.5      2.374      2.549
REMARK  Name = 
REMARK  0 active torsions:
REMARK  status: ('A' for Active; 'I' for Inactive)
REMARK                            x       y       z     vdW  Elec       q    Type
REMARK                         _______ _______ _______ _____ _____    ______ ____
ROOT
ATOM      1  O   UNL     1       7.763   4.584 -12.816  0.00  0.00    -0.243 OA
ATOM      2  C   UNL     1       7.218   5.375 -11.989  0.00  0.00    +0.372 A 
ATOM      3  N   UNL     1       5.874   5.404 -11.876  0.00  0.00    -0.150 NA
ATOM      4  C   UNL     1       5.285   5.526 -10.663  0.00  0.00    +0.312 A 
ATOM      5  O   UNL     1       4.024   5.511 -10.527  0.00  0.00    -0.263 OA
ATOM      6  C   UNL     1       6.075   5.642  -9.525  0.00  0.00    +0.217 A 
ATOM      7  F   UNL     1       5.559   5.363  -8.292  0.00  0.00    -0.197 F 
ATOM      8  C   UNL     1       7.423   5.921  -9.706  0.00  0.00    +0.138 A 
ATOM      9  N   UNL     1       7.903   5.952 -10.974  0.00  0.00    -0.187 NA
ENDROOT
TORSDOF 0
ENDMDL
MODEL 5
REMARK VINA RESULT:      -4.3      2.431      3.430
REMARK  Name = 
REMARK  0 active torsions:
REMARK  status: ('A' for Active; 'I' for Inactive)
REMARK                            x       y       z     vdW  Elec       q    Type
REMARK                         _______ _______ _______ _____ _____    ______ ____
ROOT
ATOM      1  O   UNL     1       6.815   5.734  -9.146  0.00  0.00    -0.243 OA
ATOM      2  C   UNL     1       7.266   6.180 -10.243  0.00  0.00    +0.372 A 
ATOM      3  N   UNL     1       7.601   5.320 -11.228  0.00  0.00    -0.150 NA
ATOM      4  C   UNL     1       7.321   5.609 -12.521  0.00  0.00    +0.312 A 
ATOM      5  O   UNL     1       7.585   4.799 -13.460  0.00  0.00    -0.263 OA
ATOM      6  C   UNL     1       6.700   6.812 -12.837  0.00  0.00    +0.217 A 
ATOM      7  F   UNL     1       6.049   6.964 -14.027  0.00  0.00    -0.197 F 
ATOM      8  C   UNL     1       6.657   7.789 -11.852  0.00  0.00    +0.138 A 
ATOM      9  N   UNL     1       7.121   7.472 -10.619  0.00  0.00    -0.187 NA
ENDROOT
TORSDOF 0
ENDMDL
MODEL 6
REMARK VINA RESULT:      -4.3     11.051     11.394
REMARK  Name = 
REMARK  0 active torsions:
REMARK  status: ('A' for Active; 'I' for Inactive)
REMARK                            x       y       z     vdW  Elec       q    Type
REMARK                         _______ _______ _______ _____ _____    ______ ____
ROOT
ATOM      1  O   UNL     1      -2.653   4.774  -2.553  0.00  0.00    -0.243 OA
ATOM      2  C   UNL     1      -2.050   5.482  -3.414  0.00  0.00    +0.372 A 
ATOM      3  N   UNL     1      -0.721   5.331  -3.594  0.00  0.00    -0.150 NA
ATOM      4  C   UNL     1      -0.183   5.369  -4.836  0.00  0.00    +0.312 A 
ATOM      5  O   UNL     1       1.056   5.186  -5.034  0.00  0.00    -0.263 OA
ATOM      6  C   UNL     1      -1.007   5.586  -5.934  0.00  0.00    +0.217 A 
ATOM      7  F   UNL     1      -0.596   5.236  -7.188  0.00  0.00    -0.197 F 
ATOM      8  C   UNL     1      -2.295   6.042  -5.690  0.00  0.00    +0.138 A 
ATOM      9  N   UNL     1      -2.702   6.141  -4.400  0.00  0.00    -0.187 NA
ENDROOT
TORSDOF 0
ENDMDL
MODEL 7
REMARK VINA RESULT:      -4.1     11.794     12.147
REMARK  Name = 
REMARK  0 active torsions:
REMARK  status: ('A' for Active; 'I' for Inactive)
REMARK                            x       y       z     vdW  Elec       q    Type
REMARK                         _______ _______ _______ _____ _____    ______ ____
ROOT
ATOM      1  O   UNL     1       1.499   5.799  -3.401  0.00  0.00    -0.243 OA
ATOM      2  C   UNL     1       0.320   5.424  -3.671  0.00  0.00    +0.372 A 
ATOM      3  N   UNL     1      -0.501   5.025  -2.676  0.00  0.00    -0.150 NA
ATOM      4  C   UNL     1      -1.812   5.365  -2.683  0.00  0.00    +0.312 A 
ATOM      5  O   UNL     1      -2.592   5.040  -1.739  0.00  0.00    -0.263 OA
ATOM      6  C   UNL     1      -2.320   6.116  -3.737  0.00  0.00    +0.217 A 
ATOM      7  F   UNL     1      -3.488   6.808  -3.595  0.00  0.00    -0.197 F 
ATOM      8  C   UNL     1      -1.535   6.237  -4.876  0.00  0.00    +0.138 A 
ATOM      9  N   UNL     1      -0.285   5.712  -4.847  0.00  0.00    -0.187 NA
ENDROOT
TORSDOF 0
ENDMDL
MODEL 8
REMARK VINA RESULT:      -4.1     10.880     11.272
REMARK  Name = 
REMARK  0 active torsions:
REMARK  status: ('A' for Active; 'I' for Inactive)
REMARK                            x       y       z     vdW  Elec       q    Type
REMARK                         _______ _______ _______ _____ _____    ______ ____
ROOT
ATOM      1  O   UNL     1       0.094   4.589  -1.515  0.00  0.00    -0.243 OA
ATOM      2  C   UNL     1       1.206   5.194  -1.582  0.00  0.00    +0.372 A 
ATOM      3  N   UNL     1       2.245   4.771  -0.832  0.00  0.00    -0.150 NA
ATOM      4  C   UNL     1       3.501   4.755  -1.338  0.00  0.00    +0.312 A 
ATOM      5  O   UNL     1       4.486   4.321  -0.668  0.00  0.00    -0.263 OA
ATOM      6  C   UNL     1       3.723   5.198  -2.636  0.00  0.00    +0.217 A 
ATOM      7  F   UNL     1       4.854   4.832  -3.309  0.00  0.00    -0.197 F 
ATOM      8  C   UNL     1       2.703   5.907  -3.256  0.00  0.00    +0.138 A 
ATOM      9  N   UNL     1       1.522   6.026  -2.602  0.00  0.00    -0.187 NA
ENDROOT
TORSDOF 0
ENDMDL
MODEL 9
REMARK VINA RESULT:      -4.1      8.020      8.495
REMARK  Name = 
REMARK  0 active torsions:
REMARK  status: ('A' for Active; 'I' for Inactive)
REMARK                            x       y       z     vdW  Elec       q    Type
REMARK                         _______ _______ _______ _____ _____    ______ ____
ROOT
ATOM      1  O   UNL     1       2.125   8.375  -7.875  0.00  0.00    -0.243 OA
ATOM      2  C   UNL     1       1.763   7.182  -7.647  0.00  0.00    +0.372 A 
ATOM      3  N   UNL     1       1.407   6.818  -6.397  0.00  0.00    -0.150 NA
ATOM      4  C   UNL     1       0.360   5.984  -6.192  0.00  0.00    +0.312 A 
ATOM      5  O   UNL     1      -0.020   5.662  -5.026  0.00  0.00    -0.263 OA
ATOM      6  C   UNL     1      -0.342   5.484  -7.282  0.00  0.00    +0.217 A 
ATOM      7  F   UNL     1      -1.606   4.992  -7.125  0.00  0.00    -0.197 F 
ATOM      8  C   UNL     1       0.235   5.625  -8.536  0.00  0.00    +0.138 A 
ATOM      9  N   UNL     1       1.386   6.334  -8.632  0.00  0.00    -0.187 NA
ENDROOT
TORSDOF 0
ENDMDL
