MODEL 1
REMARK VINA RESULT:      -4.1      0.000      0.000
REMARK  Name = 
REMARK  10 active torsions:
REMARK  status: ('A' for Active; 'I' for Inactive)
REMARK    1  A    between atoms: C_2  and  C_3
REMARK    2  A    between atoms: C_3  and  N_4
REMARK    3  A    between atoms: N_4  and  C_5
REMARK    4  A    between atoms: C_5  and  C_6
REMARK    5  A    between atoms: C_6  and  N_7
REMARK    6  A    between atoms: N_7  and  C_8
REMARK    7  A    between atoms: C_8  and  C_9
REMARK    8  A    between atoms: C_9  and  N_10
REMARK    9  A    between atoms: N_10  and  C_11
REMARK   10  A    between atoms: C_11  and  C_12
REMARK                            x       y       z     vdW  Elec       q    Type
REMARK                         _______ _______ _______ _____ _____    ______ ____
ROOT
ATOM      1  N   UNL     1       0.958   4.010  -5.921  0.00  0.00    -0.215 NA
ENDROOT
BRANCH   1   2
ATOM      2  C   UNL     1       2.320   4.127  -6.419  0.00  0.00    +0.108 C 
BRANCH   2   3
ATOM      3  C   UNL     1       2.377   4.155  -7.923  0.00  0.00    +0.108 C 
BRANCH   3   4
ATOM      4  N   UNL     1       3.583   4.803  -8.374  0.00  0.00    -0.215 NA
BRANCH   4   5
ATOM      5  C   UNL     1       3.689   6.177  -7.953  0.00  0.00    +0.109 C 
BRANCH   5   7
ATOM      6  N   UNL     1       2.149   8.089  -7.818  0.00  0.00    -0.130 NA
ATOM      7  C   UNL     1       2.748   7.099  -8.677  0.00  0.00    +0.128 C 
ENDBRANCH   5   7
ENDBRANCH   4   5
ENDBRANCH   3   4
ENDBRANCH   2   3
ENDBRANCH   1   2
BRANCH   1   8
ATOM      8  C   UNL     1       0.603   5.078  -5.020  0.00  0.00    +0.108 C 
BRANCH   8   9
ATOM      9  C   UNL     1      -0.271   6.126  -5.653  0.00  0.00    +0.108 C 
BRANCH   9  10
ATOM     10  N   UNL     1      -1.667   5.812  -5.491  0.00  0.00    -0.215 NA
BRANCH  10  11
ATOM     11  C   UNL     1      -2.209   6.298  -4.246  0.00  0.00    +0.109 C 
BRANCH  11  12
ATOM     12  C   UNL     1      -3.118   5.277  -3.577  0.00  0.00    +0.128 C 
ATOM     13  N   UNL     1      -2.528   4.877  -2.308  0.00  0.00    -0.130 NA
ENDBRANCH  11  12
ENDBRANCH  10  11
ENDBRANCH   9  10
ENDBRANCH   8   9
ENDBRANCH   1   8
TORSDOF 10
ENDMDL
MODEL 2
REMARK VINA RESULT:      -4.1      3.720      6.085
REMARK  Name = 
REMARK  10 active torsions:
REMARK  status: ('A' for Active; 'I' for Inactive)
REMARK    1  A    between atoms: C_2  and  C_3
REMARK    2  A    between atoms: C_3  and  N_4
REMARK    3  A    between atoms: N_4  and  C_5
REMARK    4  A    between atoms: C_5  and  C_6
REMARK    5  A    between atoms: C_6  and  N_7
REMARK    6  A    between atoms: N_7  and  C_8
REMARK    7  A    between atoms: C_8  and  C_9
REMARK    8  A    between atoms: C_9  and  N_10
REMARK    9  A    between atoms: N_10  and  C_11
REMARK   10  A    between atoms: C_11  and  C_12
REMARK                            x       y       z     vdW  Elec       q    Type
REMARK                         _______ _______ _______ _____ _____    ______ ____
ROOT
ATOM      1  N   UNL     1       3.700   5.968 -10.373  0.00  0.00    -0.215 NA
ENDROOT
BRANCH   1   2
ATOM      2  C   UNL     1       4.785   6.173 -11.321  0.00  0.00    +0.108 C 
BRANCH   2   3
ATOM      3  C   UNL     1       5.593   7.404 -11.007  0.00  0.00    +0.108 C 
BRANCH   3   4
ATOM      4  N   UNL     1       6.847   7.383 -11.715  0.00  0.00    -0.215 NA
BRANCH   4   5
ATOM      5  C   UNL     1       7.816   6.483 -11.143  0.00  0.00    +0.109 C 
BRANCH   5   7
ATOM      6  N   UNL     1       7.757   4.763 -12.897  0.00  0.00    -0.130 NA
ATOM      7  C   UNL     1       8.580   5.694 -12.169  0.00  0.00    +0.128 C 
ENDBRANCH   5   7
ENDBRANCH   4   5
ENDBRANCH   3   4
ENDBRANCH   2   3
ENDBRANCH   1   2
BRANCH   1   8
ATOM      8  C   UNL     1       3.949   4.867  -9.475  0.00  0.00    +0.108 C 
BRANCH   8   9
ATOM      9  C   UNL     1       2.704   4.352  -8.807  0.00  0.00    +0.108 C 
BRANCH   9  10
ATOM     10  N   UNL     1       2.682   4.688  -7.407  0.00  0.00    -0.215 NA
BRANCH  10  11
ATOM     11  C   UNL     1       1.847   5.829  -7.119  0.00  0.00    +0.109 C 
BRANCH  11  12
ATOM     12  C   UNL     1       2.658   7.104  -6.939  0.00  0.00    +0.128 C 
ATOM     13  N   UNL     1       2.164   8.114  -7.862  0.00  0.00    -0.130 NA
ENDBRANCH  11  12
ENDBRANCH  10  11
ENDBRANCH   9  10
ENDBRANCH   8   9
ENDBRANCH   1   8
TORSDOF 10
ENDMDL
MODEL 3
REMARK VINA RESULT:      -4.1      3.638      8.091
REMARK  Name = 
REMARK  10 active torsions:
REMARK  status: ('A' for Active; 'I' for Inactive)
REMARK    1  A    between atoms: C_2  and  C_3
REMARK    2  A    between atoms: C_3  and  N_4
REMARK    3  A    between atoms: N_4  and  C_5
REMARK    4  A    between atoms: C_5  and  C_6
REMARK    5  A    between atoms: C_6  and  N_7
REMARK    6  A    between atoms: N_7  and  C_8
REMARK    7  A    between atoms: C_8  and  C_9
REMARK    8  A    between atoms: C_9  and  N_10
REMARK    9  A    between atoms: N_10  and  C_11
REMARK   10  A    between atoms: C_11  and  C_12
REMARK                            x       y       z     vdW  Elec       q    Type
REMARK                         _______ _______ _______ _____ _____    ______ ____
ROOT
ATOM      1  N   UNL     1       4.292   5.917  -9.608  0.00  0.00    -0.215 NA
ENDROOT
BRANCH   1   2
ATOM      2  C   UNL     1       4.119   4.584  -9.050  0.00  0.00    +0.108 C 
BRANCH   2   3
ATOM      3  C   UNL     1       2.669   4.233  -8.850  0.00  0.00    +0.108 C 
BRANCH   3   4
ATOM      4  N   UNL     1       2.184   4.766  -7.603  0.00  0.00    -0.215 NA
BRANCH   4   5
ATOM      5  C   UNL     1       1.273   5.871  -7.764  0.00  0.00    +0.109 C 
BRANCH   5   7
ATOM      6  N   UNL     1       2.120   8.176  -7.867  0.00  0.00    -0.130 NA
ATOM      7  C   UNL     1       1.687   7.103  -7.009  0.00  0.00    +0.128 C 
ENDBRANCH   5   7
ENDBRANCH   4   5
ENDBRANCH   3   4
ENDBRANCH   2   3
ENDBRANCH   1   2
BRANCH   1   8
ATOM      8  C   UNL     1       4.980   5.903 -10.875  0.00  0.00    +0.108 C 
BRANCH   8   9
ATOM      9  C   UNL     1       5.736   7.172 -11.156  0.00  0.00    +0.108 C 
BRANCH   9  10
ATOM     10  N   UNL     1       7.070   7.119 -10.616  0.00  0.00    -0.215 NA
BRANCH  10  11
ATOM     11  C   UNL     1       7.733   5.867 -10.884  0.00  0.00    +0.109 C 
BRANCH  11  12
ATOM     12  C   UNL     1       8.389   5.847 -12.258  0.00  0.00    +0.128 C 
ATOM     13  N   UNL     1       7.793   4.782 -13.052  0.00  0.00    -0.130 NA
ENDBRANCH  11  12
ENDBRANCH  10  11
ENDBRANCH   9  10
ENDBRANCH   8   9
ENDBRANCH   1   8
TORSDOF 10
ENDMDL
MODEL 4
REMARK VINA RESULT:      -4.0      2.021      6.192
REMARK  Name = 
REMARK  10 active torsions:
REMARK  status: ('A' for Active; 'I' for Inactive)
REMARK    1  A    between atoms: C_2  and  C_3
REMARK    2  A    between atoms: C_3  and  N_4
REMARK    3  A    between atoms: N_4  and  C_5
REMARK    4  A    between atoms: C_5  and  C_6
REMARK    5  A    between atoms: C_6  and  N_7
REMARK    6  A    between atoms: N_7  and  C_8
REMARK    7  A    between atoms: C_8  and  C_9
REMARK    8  A    between atoms: C_9  and  N_10
REMARK    9  A    between atoms: N_10  and  C_11
REMARK   10  A    between atoms: C_11  and  C_12
REMARK                            x       y       z     vdW  Elec       q    Type
REMARK                         _______ _______ _______ _____ _____    ______ ____
ROOT
ATOM      1  N   UNL     1      -2.304   7.246  -4.560  0.00  0.00    -0.215 NA
ENDROOT
BRANCH   1   2
ATOM      2  C   UNL     1      -2.538   5.814  -4.445  0.00  0.00    +0.108 C 
BRANCH   2   3
ATOM      3  C   UNL     1      -3.306   5.460  -3.199  0.00  0.00    +0.108 C 
BRANCH   3   4
ATOM      4  N   UNL     1      -2.433   4.877  -2.213  0.00  0.00    -0.215 NA
BRANCH   4   5
ATOM      5  C   UNL     1      -1.937   5.827  -1.249  0.00  0.00    +0.109 C 
BRANCH   5   7
ATOM      6  N   UNL     1       0.179   4.670  -1.725  0.00  0.00    -0.130 NA
ATOM      7  C   UNL     1      -0.439   5.822  -1.120  0.00  0.00    +0.128 C 
ENDBRANCH   5   7
ENDBRANCH   4   5
ENDBRANCH   3   4
ENDBRANCH   2   3
ENDBRANCH   1   2
BRANCH   1   8
ATOM      8  C   UNL     1      -0.927   7.560  -4.850  0.00  0.00    +0.108 C 
BRANCH   8   9
ATOM      9  C   UNL     1      -0.039   6.348  -4.908  0.00  0.00    +0.108 C 
BRANCH   9  10
ATOM     10  N   UNL     1       1.347   6.702  -4.737  0.00  0.00    -0.215 NA
BRANCH  10  11
ATOM     11  C   UNL     1       2.208   6.071  -5.707  0.00  0.00    +0.109 C 
BRANCH  11  12
ATOM     12  C   UNL     1       2.517   4.625  -5.345  0.00  0.00    +0.128 C 
ATOM     13  N   UNL     1       2.095   3.763  -6.440  0.00  0.00    -0.130 NA
ENDBRANCH  11  12
ENDBRANCH  10  11
ENDBRANCH   9  10
ENDBRANCH   8   9
ENDBRANCH   1   8
TORSDOF 10
ENDMDL
MODEL 5
REMARK VINA RESULT:      -4.0      0.726      5.992
REMARK  Name = 
REMARK  10 active torsions:
REMARK  status: ('A' for Active; 'I' for Inactive)
REMARK    1  A    between atoms: C_2  and  C_3
REMARK    2  A    between atoms: C_3  and  N_4
REMARK    3  A    between atoms: N_4  and  C_5
REMARK    4  A    between atoms: C_5  and  C_6
REMARK    5  A    between atoms: C_6  and  N_7
REMARK    6  A    between atoms: N_7  and  C_8
REMARK    7  A    between atoms: C_8  and  C_9
REMARK    8  A    between atoms: C_9  and  N_10
REMARK    9  A    between atoms: N_10  and  C_11
REMARK   10  A    between atoms: C_11  and  C_12
REMARK                            x       y       z     vdW  Elec       q    Type
REMARK                         _______ _______ _______ _____ _____    ______ ____
ROOT
ATOM      1  N   UNL     1       0.545   4.640  -6.221  0.00  0.00    -0.215 NA
ENDROOT
BRANCH   1   2
ATOM      2  C   UNL     1       0.205   5.358  -5.001  0.00  0.00    +0.108 C 
BRANCH   2   3
ATOM      3  C   UNL     1       0.002   6.830  -5.243  0.00  0.00    +0.108 C 
BRANCH   3   4
ATOM      4  N   UNL     1      -1.218   7.283  -4.627  0.00  0.00    -0.215 NA
BRANCH   4   5
ATOM      5  C   UNL     1      -2.278   6.308  -4.663  0.00  0.00    +0.109 C 
BRANCH   5   7
ATOM      6  N   UNL     1      -2.892   4.806  -2.816  0.00  0.00    -0.130 NA
ATOM      7  C   UNL     1      -2.985   6.142  -3.347  0.00  0.00    +0.128 C 
ENDBRANCH   5   7
ENDBRANCH   4   5
ENDBRANCH   3   4
ENDBRANCH   2   3
ENDBRANCH   1   2
BRANCH   1   8
ATOM      8  C   UNL     1       1.949   4.319  -6.301  0.00  0.00    +0.108 C 
BRANCH   8   9
ATOM      9  C   UNL     1       2.412   4.024  -7.701  0.00  0.00    +0.108 C 
BRANCH   9  10
ATOM     10  N   UNL     1       3.500   4.886  -8.087  0.00  0.00    -0.215 NA
BRANCH  10  11
ATOM     11  C   UNL     1       3.391   6.210  -7.524  0.00  0.00    +0.109 C 
BRANCH  11  12
ATOM     12  C   UNL     1       2.916   7.232  -8.547  0.00  0.00    +0.128 C 
ATOM     13  N   UNL     1       2.119   8.244  -7.871  0.00  0.00    -0.130 NA
ENDBRANCH  11  12
ENDBRANCH  10  11
ENDBRANCH   9  10
ENDBRANCH   8   9
ENDBRANCH   1   8
TORSDOF 10
ENDMDL
MODEL 6
REMARK VINA RESULT:      -4.0      1.751      6.412
REMARK  Name = 
REMARK  10 active torsions:
REMARK  status: ('A' for Active; 'I' for Inactive)
REMARK    1  A    between atoms: C_2  and  C_3
REMARK    2  A    between atoms: C_3  and  N_4
REMARK    3  A    between atoms: N_4  and  C_5
REMARK    4  A    between atoms: C_5  and  C_6
REMARK    5  A    between atoms: C_6  and  N_7
REMARK    6  A    between atoms: N_7  and  C_8
REMARK    7  A    between atoms: C_8  and  C_9
REMARK    8  A    between atoms: C_9  and  N_10
REMARK    9  A    between atoms: N_10  and  C_11
REMARK   10  A    between atoms: C_11  and  C_12
REMARK                            x       y       z     vdW  Elec       q    Type
REMARK                         _______ _______ _______ _____ _____    ______ ____
ROOT
ATOM      1  N   UNL     1      -1.005   5.420  -4.596  0.00  0.00    -0.215 NA
ENDROOT
BRANCH   1   2
ATOM      2  C   UNL     1      -2.195   6.218  -4.338  0.00  0.00    +0.108 C 
BRANCH   2   3
ATOM      3  C   UNL     1      -3.130   5.550  -3.366  0.00  0.00    +0.108 C 
BRANCH   3   4
ATOM      4  N   UNL     1      -2.390   4.882  -2.326  0.00  0.00    -0.215 NA
BRANCH   4   5
ATOM      5  C   UNL     1      -2.038   5.744  -1.226  0.00  0.00    +0.109 C 
BRANCH   5   7
ATOM      6  N   UNL     1       0.172   4.708  -1.526  0.00  0.00    -0.130 NA
ATOM      7  C   UNL     1      -0.557   5.824  -0.979  0.00  0.00    +0.128 C 
ENDBRANCH   5   7
ENDBRANCH   4   5
ENDBRANCH   3   4
ENDBRANCH   2   3
ENDBRANCH   1   2
BRANCH   1   8
ATOM      8  C   UNL     1      -0.412   5.708  -5.878  0.00  0.00    +0.108 C 
BRANCH   8   9
ATOM      9  C   UNL     1       0.522   4.631  -6.357  0.00  0.00    +0.108 C 
BRANCH   9  10
ATOM     10  N   UNL     1       1.476   5.146  -7.305  0.00  0.00    -0.215 NA
BRANCH  10  11
ATOM     11  C   UNL     1       2.409   6.072  -6.712  0.00  0.00    +0.109 C 
BRANCH  11  12
ATOM     12  C   UNL     1       2.992   7.035  -7.736  0.00  0.00    +0.128 C 
ATOM     13  N   UNL     1       2.105   8.181  -7.868  0.00  0.00    -0.130 NA
ENDBRANCH  11  12
ENDBRANCH  10  11
ENDBRANCH   9  10
ENDBRANCH   8   9
ENDBRANCH   1   8
TORSDOF 10
ENDMDL
MODEL 7
REMARK VINA RESULT:      -3.9      2.762      5.416
REMARK  Name = 
REMARK  10 active torsions:
REMARK  status: ('A' for Active; 'I' for Inactive)
REMARK    1  A    between atoms: C_2  and  C_3
REMARK    2  A    between atoms: C_3  and  N_4
REMARK    3  A    between atoms: N_4  and  C_5
REMARK    4  A    between atoms: C_5  and  C_6
REMARK    5  A    between atoms: C_6  and  N_7
REMARK    6  A    between atoms: N_7  and  C_8
REMARK    7  A    between atoms: C_8  and  C_9
REMARK    8  A    between atoms: C_9  and  N_10
REMARK    9  A    between atoms: N_10  and  C_11
REMARK   10  A    between atoms: C_11  and  C_12
REMARK                            x       y       z     vdW  Elec       q    Type
REMARK                         _______ _______ _______ _____ _____    ______ ____
ROOT
ATOM      1  N   UNL     1       0.152   4.841  -5.815  0.00  0.00    -0.215 NA
ENDROOT
BRANCH   1   2
ATOM      2  C   UNL     1      -0.614   5.935  -6.393  0.00  0.00    +0.108 C 
BRANCH   2   3
ATOM      3  C   UNL     1      -2.088   5.807  -6.117  0.00  0.00    +0.108 C 
BRANCH   3   4
ATOM      4  N   UNL     1      -2.560   6.930  -5.348  0.00  0.00    -0.215 NA
BRANCH   4   5
ATOM      5  C   UNL     1      -2.554   6.697  -3.926  0.00  0.00    +0.109 C 
BRANCH   5   7
ATOM      6  N   UNL     1      -2.475   4.887  -2.264  0.00  0.00    -0.130 NA
ATOM      7  C   UNL     1      -2.983   5.308  -3.545  0.00  0.00    +0.128 C 
ENDBRANCH   5   7
ENDBRANCH   4   5
ENDBRANCH   3   4
ENDBRANCH   2   3
ENDBRANCH   1   2
BRANCH   1   8
ATOM      8  C   UNL     1       0.754   5.192  -4.553  0.00  0.00    +0.108 C 
BRANCH   8   9
ATOM      9  C   UNL     1       1.234   6.616  -4.499  0.00  0.00    +0.108 C 
BRANCH   9  10
ATOM     10  N   UNL     1       2.255   6.788  -3.497  0.00  0.00    -0.215 NA
BRANCH  10  11
ATOM     11  C   UNL     1       2.606   5.554  -2.838  0.00  0.00    +0.109 C 
BRANCH  11  12
ATOM     12  C   UNL     1       2.607   5.691  -1.323  0.00  0.00    +0.128 C 
ATOM     13  N   UNL     1       1.917   4.549  -0.743  0.00  0.00    -0.130 NA
ENDBRANCH  11  12
ENDBRANCH  10  11
ENDBRANCH   9  10
ENDBRANCH   8   9
ENDBRANCH   1   8
TORSDOF 10
ENDMDL
MODEL 8
REMARK VINA RESULT:      -3.9      2.852      6.268
REMARK  Name = 
REMARK  10 active torsions:
REMARK  status: ('A' for Active; 'I' for Inactive)
REMARK    1  A    between atoms: C_2  and  C_3
REMARK    2  A    between atoms: C_3  and  N_4
REMARK    3  A    between atoms: N_4  and  C_5
REMARK    4  A    between atoms: C_5  and  C_6
REMARK    5  A    between atoms: C_6  and  N_7
REMARK    6  A    between atoms: N_7  and  C_8
REMARK    7  A    between atoms: C_8  and  C_9
REMARK    8  A    between atoms: C_9  and  N_10
REMARK    9  A    between atoms: N_10  and  C_11
REMARK   10  A    between atoms: C_11  and  C_12
REMARK                            x       y       z     vdW  Elec       q    Type
REMARK                         _______ _______ _______ _____ _____    ______ ____
ROOT
ATOM      1  N   UNL     1       0.079   4.756  -1.826  0.00  0.00    -0.215 NA
ENDROOT
BRANCH   1   2
ATOM      2  C   UNL     1      -0.629   5.728  -1.005  0.00  0.00    +0.108 C 
BRANCH   2   3
ATOM      3  C   UNL     1      -2.094   5.799  -1.343  0.00  0.00    +0.108 C 
BRANCH   3   4
ATOM      4  N   UNL     1      -2.429   4.838  -2.362  0.00  0.00    -0.215 NA
BRANCH   4   5
ATOM      5  C   UNL     1      -3.191   5.396  -3.451  0.00  0.00    +0.109 C 
BRANCH   5   7
ATOM      6  N   UNL     1      -2.284   6.727  -5.308  0.00  0.00    -0.130 NA
ATOM      7  C   UNL     1      -2.676   6.727  -3.921  0.00  0.00    +0.128 C 
ENDBRANCH   5   7
ENDBRANCH   4   5
ENDBRANCH   3   4
ENDBRANCH   2   3
ENDBRANCH   1   2
BRANCH   1   8
ATOM      8  C   UNL     1       1.158   5.347  -2.579  0.00  0.00    +0.108 C 
BRANCH   8   9
ATOM      9  C   UNL     1       0.911   5.359  -4.062  0.00  0.00    +0.108 C 
BRANCH   9  10
ATOM     10  N   UNL     1       2.129   5.595  -4.795  0.00  0.00    -0.215 NA
BRANCH  10  11
ATOM     11  C   UNL     1       2.973   6.585  -4.173  0.00  0.00    +0.109 C 
BRANCH  11  12
ATOM     12  C   UNL     1       4.449   6.226  -4.271  0.00  0.00    +0.128 C 
ATOM     13  N   UNL     1       4.590   4.780  -4.198  0.00  0.00    -0.130 NA
ENDBRANCH  11  12
ENDBRANCH  10  11
ENDBRANCH   9  10
ENDBRANCH   8   9
ENDBRANCH   1   8
TORSDOF 10
ENDMDL
MODEL 9
REMARK VINA RESULT:      -3.8      3.184      5.538
REMARK  Name = 
REMARK  10 active torsions:
REMARK  status: ('A' for Active; 'I' for Inactive)
REMARK    1  A    between atoms: C_2  and  C_3
REMARK    2  A    between atoms: C_3  and  N_4
REMARK    3  A    between atoms: N_4  and  C_5
REMARK    4  A    between atoms: C_5  and  C_6
REMARK    5  A    between atoms: C_6  and  N_7
REMARK    6  A    between atoms: N_7  and  C_8
REMARK    7  A    between atoms: C_8  and  C_9
REMARK    8  A    between atoms: C_9  and  N_10
REMARK    9  A    between atoms: N_10  and  C_11
REMARK   10  A    between atoms: C_11  and  C_12
REMARK                            x       y       z     vdW  Elec       q    Type
REMARK                         _______ _______ _______ _____ _____    ______ ____
ROOT
ATOM      1  N   UNL     1      -2.357   4.925  -2.300  0.00  0.00    -0.215 NA
ENDROOT
BRANCH   1   2
ATOM      2  C   UNL     1      -3.043   5.317  -3.522  0.00  0.00    +0.108 C 
BRANCH   2   3
ATOM      3  C   UNL     1      -2.746   6.741  -3.912  0.00  0.00    +0.108 C 
BRANCH   3   4
ATOM      4  N   UNL     1      -2.372   6.820  -5.301  0.00  0.00    -0.215 NA
BRANCH   4   5
ATOM      5  C   UNL     1      -2.411   5.550  -5.980  0.00  0.00    +0.109 C 
BRANCH   5   7
ATOM      6  N   UNL     1      -0.016   5.002  -6.059  0.00  0.00    -0.130 NA
ATOM      7  C   UNL     1      -1.199   5.289  -6.830  0.00  0.00    +0.128 C 
ENDBRANCH   5   7
ENDBRANCH   4   5
ENDBRANCH   3   4
ENDBRANCH   2   3
ENDBRANCH   1   2
BRANCH   1   8
ATOM      8  C   UNL     1      -0.983   5.361  -2.273  0.00  0.00    +0.108 C 
BRANCH   8   9
ATOM      9  C   UNL     1      -0.578   5.970  -0.958  0.00  0.00    +0.108 C 
BRANCH   9  10
ATOM     10  N   UNL     1      -1.724   6.437  -0.221  0.00  0.00    -0.215 NA
BRANCH  10  11
ATOM     11  C   UNL     1      -1.706   7.863  -0.006  0.00  0.00    +0.109 C 
BRANCH  11  12
ATOM     12  C   UNL     1      -0.765   8.263   1.121  0.00  0.00    +0.128 C 
ATOM     13  N   UNL     1      -0.493   9.689   1.028  0.00  0.00    -0.130 NA
ENDBRANCH  11  12
ENDBRANCH  10  11
ENDBRANCH   9  10
ENDBRANCH   8   9
ENDBRANCH   1   8
TORSDOF 10
ENDMDL
