MODEL 1
REMARK VINA RESULT:      -9.3      0.000      0.000
REMARK  Name = 
REMARK  5 active torsions:
REMARK  status: ('A' for Active; 'I' for Inactive)
REMARK    1  A    between atoms: C_2  and  C_3
REMARK    2  A    between atoms: C_2  and  C_19
REMARK    3  A    between atoms: C_3  and  C_4
REMARK    4  A    between atoms: C_13  and  C_14
REMARK    5  A    between atoms: C_19  and  C_20
REMARK                            x       y       z     vdW  Elec       q    Type
REMARK                         _______ _______ _______ _____ _____    ______ ____
ROOT
ATOM      1  C   UNL     1       2.706   6.640  -6.019  0.00  0.00    +0.227 C 
ATOM      2  N   UNL     1       1.649   6.817  -5.067  0.00  0.00    -0.270 N 
ATOM      3  C   UNL     1       0.504   7.547  -5.566  0.00  0.00    +0.160 C 
ATOM      4  C   UNL     1      -0.709   6.825  -5.092  0.00  0.00    +0.164 A 
ATOM      5  N   UNL     1      -1.937   6.728  -5.609  0.00  0.00    -0.132 NA
ATOM      6  N   UNL     1      -2.796   6.662  -4.593  0.00  0.00    -0.125 NA
ATOM      7  C   UNL     1      -2.085   6.316  -3.490  0.00  0.00    +0.238 A 
ATOM      8  N   UNL     1      -0.801   6.339  -3.852  0.00  0.00    -0.292 N 
ATOM      9  C   UNL     1       0.383   5.983  -3.120  0.00  0.00    +0.130 C 
ATOM     10  C   UNL     1       1.612   5.887  -3.971  0.00  0.00    +0.118 C 
ATOM     11  O   UNL     1       3.701   7.394  -5.923  0.00  0.00    -0.275 OA
ENDROOT
BRANCH   7  12
ATOM     12  C   UNL     1      -2.711   6.328  -2.152  0.00  0.00    +0.452 C 
ATOM     13  F   UNL     1      -2.142   7.393  -1.459  0.00  0.00    -0.163 F 
ATOM     14  F   UNL     1      -2.547   5.168  -1.450  0.00  0.00    -0.163 F 
ATOM     15  F   UNL     1      -4.075   6.552  -2.298  0.00  0.00    -0.163 F 
ENDBRANCH   7  12
BRANCH   1  16
ATOM     16  C   UNL     1       2.350   5.901  -7.253  0.00  0.00    +0.105 C 
BRANCH  16  18
ATOM     17  N   UNL     1       1.515   7.102  -9.064  0.00  0.00    -0.132 NA
ATOM     18  C   UNL     1       2.956   6.928  -8.410  0.00  0.00    +0.105 C 
BRANCH  18  19
ATOM     19  C   UNL     1       3.339   5.655  -9.402  0.00  0.00    +0.048 C 
BRANCH  19  20
ATOM     20  C   UNL     1       4.681   5.955  -9.935  0.00  0.00    +0.009 A 
ATOM     21  C   UNL     1       5.749   5.497  -9.170  0.00  0.00    +0.139 A 
ATOM     22  F   UNL     1       5.544   5.034  -7.903  0.00  0.00    -0.204 F 
ATOM     23  C   UNL     1       7.038   5.777  -9.558  0.00  0.00    +0.061 A 
ATOM     24  C   UNL     1       7.228   6.691 -10.569  0.00  0.00    +0.170 A 
ATOM     25  F   UNL     1       8.402   6.812 -11.245  0.00  0.00    -0.202 F 
ATOM     26  C   UNL     1       6.171   7.455 -11.039  0.00  0.00    +0.167 A 
ATOM     27  F   UNL     1       6.449   8.691 -11.529  0.00  0.00    -0.202 F 
ATOM     28  C   UNL     1       4.874   7.032 -10.788  0.00  0.00    +0.030 A 
ENDBRANCH  19  20
ENDBRANCH  18  19
ENDBRANCH  16  18
ENDBRANCH   1  16
TORSDOF 5
ENDMDL
MODEL 2
REMARK VINA RESULT:      -9.0      1.780      2.289
REMARK  Name = 
REMARK  5 active torsions:
REMARK  status: ('A' for Active; 'I' for Inactive)
REMARK    1  A    between atoms: C_2  and  C_3
REMARK    2  A    between atoms: C_2  and  C_19
REMARK    3  A    between atoms: C_3  and  C_4
REMARK    4  A    between atoms: C_13  and  C_14
REMARK    5  A    between atoms: C_19  and  C_20
REMARK                            x       y       z     vdW  Elec       q    Type
REMARK                         _______ _______ _______ _____ _____    ______ ____
ROOT
ATOM      1  C   UNL     1       1.933   7.260  -7.481  0.00  0.00    +0.227 C 
ATOM      2  N   UNL     1       1.759   7.150  -6.062  0.00  0.00    -0.270 N 
ATOM      3  C   UNL     1       0.381   7.164  -5.620  0.00  0.00    +0.160 C 
ATOM      4  C   UNL     1       0.248   6.100  -4.587  0.00  0.00    +0.164 A 
ATOM      5  N   UNL     1      -0.798   5.355  -4.217  0.00  0.00    -0.132 NA
ATOM      6  N   UNL     1      -0.691   5.137  -2.907  0.00  0.00    -0.125 NA
ATOM      7  C   UNL     1       0.595   5.395  -2.562  0.00  0.00    +0.238 A 
ATOM      8  N   UNL     1       1.177   5.908  -3.648  0.00  0.00    -0.292 N 
ATOM      9  C   UNL     1       2.542   6.288  -3.887  0.00  0.00    +0.130 C 
ATOM     10  C   UNL     1       2.847   6.566  -5.327  0.00  0.00    +0.118 C 
ATOM     11  O   UNL     1       2.261   8.379  -7.937  0.00  0.00    -0.275 OA
ENDROOT
BRANCH   7  12
ATOM     12  C   UNL     1       1.009   5.419  -1.144  0.00  0.00    +0.452 C 
ATOM     13  F   UNL     1      -0.145   5.650  -0.400  0.00  0.00    -0.163 F 
ATOM     14  F   UNL     1       1.952   6.363  -0.855  0.00  0.00    -0.163 F 
ATOM     15  F   UNL     1       1.529   4.174  -0.809  0.00  0.00    -0.163 F 
ENDBRANCH   7  12
BRANCH   1  16
ATOM     16  C   UNL     1       1.310   6.189  -8.295  0.00  0.00    +0.105 C 
BRANCH  16  18
ATOM     17  N   UNL     1       1.262   5.248 -10.424  0.00  0.00    -0.132 NA
ATOM     18  C   UNL     1       2.172   6.340  -9.708  0.00  0.00    +0.105 C 
BRANCH  18  19
ATOM     19  C   UNL     1       3.275   5.207  -9.207  0.00  0.00    +0.048 C 
BRANCH  19  20
ATOM     20  C   UNL     1       4.571   5.642  -9.757  0.00  0.00    +0.009 A 
ATOM     21  C   UNL     1       5.688   5.325  -8.991  0.00  0.00    +0.139 A 
ATOM     22  F   UNL     1       5.543   4.872  -7.712  0.00  0.00    -0.204 F 
ATOM     23  C   UNL     1       6.935   5.737  -9.396  0.00  0.00    +0.061 A 
ATOM     24  C   UNL     1       7.016   6.643 -10.430  0.00  0.00    +0.170 A 
ATOM     25  F   UNL     1       8.166   6.878 -11.118  0.00  0.00    -0.202 F 
ATOM     26  C   UNL     1       5.878   7.272 -10.909  0.00  0.00    +0.167 A 
ATOM     27  F   UNL     1       6.012   8.520 -11.430  0.00  0.00    -0.202 F 
ATOM     28  C   UNL     1       4.638   6.713 -10.637  0.00  0.00    +0.030 A 
ENDBRANCH  19  20
ENDBRANCH  18  19
ENDBRANCH  16  18
ENDBRANCH   1  16
TORSDOF 5
ENDMDL
MODEL 3
REMARK VINA RESULT:      -8.8      2.263      9.366
REMARK  Name = 
REMARK  5 active torsions:
REMARK  status: ('A' for Active; 'I' for Inactive)
REMARK    1  A    between atoms: C_2  and  C_3
REMARK    2  A    between atoms: C_2  and  C_19
REMARK    3  A    between atoms: C_3  and  C_4
REMARK    4  A    between atoms: C_13  and  C_14
REMARK    5  A    between atoms: C_19  and  C_20
REMARK                            x       y       z     vdW  Elec       q    Type
REMARK                         _______ _______ _______ _____ _____    ______ ____
ROOT
ATOM      1  C   UNL     1       1.799   4.479  -6.769  0.00  0.00    +0.227 C 
ATOM      2  N   UNL     1       3.062   4.504  -7.447  0.00  0.00    -0.270 N 
ATOM      3  C   UNL     1       3.012   4.089  -8.833  0.00  0.00    +0.160 C 
ATOM      4  C   UNL     1       3.851   5.048  -9.602  0.00  0.00    +0.164 A 
ATOM      5  N   UNL     1       3.785   5.456 -10.873  0.00  0.00    -0.132 NA
ATOM      6  N   UNL     1       5.033   5.667 -11.291  0.00  0.00    -0.125 NA
ATOM      7  C   UNL     1       5.811   5.779 -10.186  0.00  0.00    +0.238 A 
ATOM      8  N   UNL     1       5.031   5.476  -9.147  0.00  0.00    -0.292 N 
ATOM      9  C   UNL     1       5.298   5.507  -7.735  0.00  0.00    +0.130 C 
ATOM     10  C   UNL     1       4.073   5.358  -6.886  0.00  0.00    +0.118 C 
ATOM     11  O   UNL     1       1.571   3.510  -6.010  0.00  0.00    -0.275 OA
ENDROOT
BRANCH   7  12
ATOM     12  C   UNL     1       7.283   5.843 -10.300  0.00  0.00    +0.452 C 
ATOM     13  F   UNL     1       7.794   5.081  -9.253  0.00  0.00    -0.163 F 
ATOM     14  F   UNL     1       7.791   7.110 -10.251  0.00  0.00    -0.163 F 
ATOM     15  F   UNL     1       7.662   5.274 -11.511  0.00  0.00    -0.163 F 
ENDBRANCH   7  12
BRANCH   1  16
ATOM     16  C   UNL     1       0.740   5.345  -7.340  0.00  0.00    +0.105 C 
BRANCH  16  18
ATOM     17  N   UNL     1      -1.583   5.496  -7.386  0.00  0.00    -0.132 NA
ATOM     18  C   UNL     1      -0.518   5.009  -6.308  0.00  0.00    +0.105 C 
BRANCH  18  19
ATOM     19  C   UNL     1      -0.411   6.514  -5.618  0.00  0.00    +0.048 C 
BRANCH  19  20
ATOM     20  C   UNL     1      -0.918   6.359  -4.243  0.00  0.00    +0.009 A 
ATOM     21  C   UNL     1      -1.667   7.424  -3.753  0.00  0.00    +0.139 A 
ATOM     22  F   UNL     1      -1.699   8.613  -4.422  0.00  0.00    -0.204 F 
ATOM     23  C   UNL     1      -2.136   7.394  -2.461  0.00  0.00    +0.061 A 
ATOM     24  C   UNL     1      -1.661   6.413  -1.620  0.00  0.00    +0.170 A 
ATOM     25  F   UNL     1      -2.269   6.087  -0.448  0.00  0.00    -0.202 F 
ATOM     26  C   UNL     1      -0.596   5.611  -2.000  0.00  0.00    +0.167 A 
ATOM     27  F   UNL     1       0.218   5.130  -1.025  0.00  0.00    -0.202 F 
ATOM     28  C   UNL     1      -0.274   5.519  -3.346  0.00  0.00    +0.030 A 
ENDBRANCH  19  20
ENDBRANCH  18  19
ENDBRANCH  16  18
ENDBRANCH   1  16
TORSDOF 5
ENDMDL
MODEL 4
REMARK VINA RESULT:      -8.8      3.120      7.923
REMARK  Name = 
REMARK  5 active torsions:
REMARK  status: ('A' for Active; 'I' for Inactive)
REMARK    1  A    between atoms: C_2  and  C_3
REMARK    2  A    between atoms: C_2  and  C_19
REMARK    3  A    between atoms: C_3  and  C_4
REMARK    4  A    between atoms: C_13  and  C_14
REMARK    5  A    between atoms: C_19  and  C_20
REMARK                            x       y       z     vdW  Elec       q    Type
REMARK                         _______ _______ _______ _____ _____    ______ ____
ROOT
ATOM      1  C   UNL     1       3.594   5.895  -2.289  0.00  0.00    +0.227 C 
ATOM      2  N   UNL     1       3.701   5.966  -3.717  0.00  0.00    -0.270 N 
ATOM      3  C   UNL     1       3.857   4.686  -4.375  0.00  0.00    +0.160 C 
ATOM      4  C   UNL     1       2.964   4.700  -5.566  0.00  0.00    +0.164 A 
ATOM      5  N   UNL     1       2.342   3.711  -6.214  0.00  0.00    -0.132 NA
ATOM      6  N   UNL     1       2.310   4.036  -7.506  0.00  0.00    -0.125 NA
ATOM      7  C   UNL     1       2.540   5.370  -7.588  0.00  0.00    +0.238 A 
ATOM      8  N   UNL     1       2.858   5.771  -6.356  0.00  0.00    -0.292 N 
ATOM      9  C   UNL     1       3.119   7.086  -5.838  0.00  0.00    +0.130 C 
ATOM     10  C   UNL     1       3.168   7.146  -4.342  0.00  0.00    +0.118 C 
ATOM     11  O   UNL     1       4.615   6.174  -1.620  0.00  0.00    -0.275 OA
ENDROOT
BRANCH   7  12
ATOM     12  C   UNL     1       2.746   6.024  -8.897  0.00  0.00    +0.452 C 
ATOM     13  F   UNL     1       4.084   6.407  -8.943  0.00  0.00    -0.163 F 
ATOM     14  F   UNL     1       1.939   7.104  -9.113  0.00  0.00    -0.163 F 
ATOM     15  F   UNL     1       2.500   5.095  -9.903  0.00  0.00    -0.163 F 
ENDBRANCH   7  12
BRANCH   1  16
ATOM     16  C   UNL     1       2.454   5.107  -1.763  0.00  0.00    +0.105 C 
BRANCH  16  18
ATOM     17  N   UNL     1       1.362   6.125   0.023  0.00  0.00    -0.132 NA
ATOM     18  C   UNL     1       1.323   6.306  -1.558  0.00  0.00    +0.105 C 
BRANCH  18  19
ATOM     19  C   UNL     1       0.079   5.222  -1.730  0.00  0.00    +0.048 C 
BRANCH  19  20
ATOM     20  C   UNL     1      -0.672   5.663  -2.920  0.00  0.00    +0.009 A 
ATOM     21  C   UNL     1      -2.053   5.737  -2.768  0.00  0.00    +0.139 A 
ATOM     22  F   UNL     1      -2.657   5.194  -1.672  0.00  0.00    -0.204 F 
ATOM     23  C   UNL     1      -2.841   6.086  -3.838  0.00  0.00    +0.061 A 
ATOM     24  C   UNL     1      -2.260   6.133  -5.086  0.00  0.00    +0.170 A 
ATOM     25  F   UNL     1      -2.837   6.758  -6.147  0.00  0.00    -0.202 F 
ATOM     26  C   UNL     1      -0.977   5.648  -5.286  0.00  0.00    +0.167 A 
ATOM     27  F   UNL     1      -0.672   5.142  -6.509  0.00  0.00    -0.202 F 
ATOM     28  C   UNL     1      -0.141   5.490  -4.190  0.00  0.00    +0.030 A 
ENDBRANCH  19  20
ENDBRANCH  18  19
ENDBRANCH  16  18
ENDBRANCH   1  16
TORSDOF 5
ENDMDL
MODEL 5
REMARK VINA RESULT:      -8.7      3.355      7.660
REMARK  Name = 
REMARK  5 active torsions:
REMARK  status: ('A' for Active; 'I' for Inactive)
REMARK    1  A    between atoms: C_2  and  C_3
REMARK    2  A    between atoms: C_2  and  C_19
REMARK    3  A    between atoms: C_3  and  C_4
REMARK    4  A    between atoms: C_13  and  C_14
REMARK    5  A    between atoms: C_19  and  C_20
REMARK                            x       y       z     vdW  Elec       q    Type
REMARK                         _______ _______ _______ _____ _____    ______ ____
ROOT
ATOM      1  C   UNL     1       3.795   6.879  -4.988  0.00  0.00    +0.227 C 
ATOM      2  N   UNL     1       3.465   6.777  -6.380  0.00  0.00    -0.270 N 
ATOM      3  C   UNL     1       3.918   5.560  -7.018  0.00  0.00    +0.160 C 
ATOM      4  C   UNL     1       2.797   5.077  -7.871  0.00  0.00    +0.164 A 
ATOM      5  N   UNL     1       2.455   3.847  -8.266  0.00  0.00    -0.132 NA
ATOM      6  N   UNL     1       1.942   3.948  -9.491  0.00  0.00    -0.125 NA
ATOM      7  C   UNL     1       1.602   5.248  -9.677  0.00  0.00    +0.238 A 
ATOM      8  N   UNL     1       2.067   5.910  -8.617  0.00  0.00    -0.292 N 
ATOM      9  C   UNL     1       1.929   7.290  -8.242  0.00  0.00    +0.130 C 
ATOM     10  C   UNL     1       2.365   7.580  -6.838  0.00  0.00    +0.118 C 
ATOM     11  O   UNL     1       4.769   7.603  -4.678  0.00  0.00    -0.275 OA
ENDROOT
BRANCH   7  12
ATOM     12  C   UNL     1       1.166   5.734 -11.003  0.00  0.00    +0.452 C 
ATOM     13  F   UNL     1       0.830   4.606 -11.747  0.00  0.00    -0.163 F 
ATOM     14  F   UNL     1       2.106   6.471 -11.663  0.00  0.00    -0.163 F 
ATOM     15  F   UNL     1       0.036   6.527 -10.837  0.00  0.00    -0.163 F 
ENDBRANCH   7  12
BRANCH   1  16
ATOM     16  C   UNL     1       3.247   5.818  -4.111  0.00  0.00    +0.105 C 
BRANCH  16  18
ATOM     17  N   UNL     1       2.540   6.300  -1.946  0.00  0.00    -0.132 NA
ATOM     18  C   UNL     1       1.984   6.631  -3.401  0.00  0.00    +0.105 C 
BRANCH  18  19
ATOM     19  C   UNL     1       1.034   5.271  -3.432  0.00  0.00    +0.048 C 
BRANCH  19  20
ATOM     20  C   UNL     1      -0.077   5.582  -4.349  0.00  0.00    +0.009 A 
ATOM     21  C   UNL     1      -1.343   5.614  -3.773  0.00  0.00    +0.139 A 
ATOM     22  F   UNL     1      -1.539   5.139  -2.509  0.00  0.00    -0.204 F 
ATOM     23  C   UNL     1      -2.447   5.842  -4.559  0.00  0.00    +0.061 A 
ATOM     24  C   UNL     1      -2.290   5.809  -5.927  0.00  0.00    +0.170 A 
ATOM     25  F   UNL     1      -3.208   6.321  -6.789  0.00  0.00    -0.202 F 
ATOM     26  C   UNL     1      -1.105   5.361  -6.491  0.00  0.00    +0.167 A 
ATOM     27  F   UNL     1      -1.167   4.768  -7.712  0.00  0.00    -0.202 F 
ATOM     28  C   UNL     1       0.040   5.327  -5.708  0.00  0.00    +0.030 A 
ENDBRANCH  19  20
ENDBRANCH  18  19
ENDBRANCH  16  18
ENDBRANCH   1  16
TORSDOF 5
ENDMDL
MODEL 6
REMARK VINA RESULT:      -8.7      3.198      9.729
REMARK  Name = 
REMARK  5 active torsions:
REMARK  status: ('A' for Active; 'I' for Inactive)
REMARK    1  A    between atoms: C_2  and  C_3
REMARK    2  A    between atoms: C_2  and  C_19
REMARK    3  A    between atoms: C_3  and  C_4
REMARK    4  A    between atoms: C_13  and  C_14
REMARK    5  A    between atoms: C_19  and  C_20
REMARK                            x       y       z     vdW  Elec       q    Type
REMARK                         _______ _______ _______ _____ _____    ______ ____
ROOT
ATOM      1  C   UNL     1       2.097   5.879  -9.459  0.00  0.00    +0.227 C 
ATOM      2  N   UNL     1       3.198   6.165 -10.332  0.00  0.00    -0.270 N 
ATOM      3  C   UNL     1       4.361   6.720  -9.674  0.00  0.00    +0.160 C 
ATOM      4  C   UNL     1       5.551   6.027 -10.240  0.00  0.00    +0.164 A 
ATOM      5  N   UNL     1       6.751   5.763  -9.715  0.00  0.00    -0.132 NA
ATOM      6  N   UNL     1       7.644   5.834 -10.701  0.00  0.00    -0.125 NA
ATOM      7  C   UNL     1       6.959   5.740 -11.868  0.00  0.00    +0.238 A 
ATOM      8  N   UNL     1       5.665   5.773 -11.545  0.00  0.00    -0.292 N 
ATOM      9  C   UNL     1       4.492   5.629 -12.364  0.00  0.00    +0.130 C 
ATOM     10  C   UNL     1       3.228   5.452 -11.580  0.00  0.00    +0.118 C 
ATOM     11  O   UNL     1       1.148   6.696  -9.442  0.00  0.00    -0.275 OA
ENDROOT
BRANCH   7  12
ATOM     12  C   UNL     1       7.635   5.961 -13.163  0.00  0.00    +0.452 C 
ATOM     13  F   UNL     1       7.165   7.176 -13.653  0.00  0.00    -0.163 F 
ATOM     14  F   UNL     1       7.422   4.970 -14.079  0.00  0.00    -0.163 F 
ATOM     15  F   UNL     1       9.005   6.054 -12.941  0.00  0.00    -0.163 F 
ENDBRANCH   7  12
BRANCH   1  16
ATOM     16  C   UNL     1       2.365   4.905  -8.375  0.00  0.00    +0.105 C 
BRANCH  16  18
ATOM     17  N   UNL     1       3.669   5.162  -6.464  0.00  0.00    -0.132 NA
ATOM     18  C   UNL     1       2.400   5.917  -7.058  0.00  0.00    +0.105 C 
BRANCH  18  19
ATOM     19  C   UNL     1       1.338   4.947  -6.230  0.00  0.00    +0.048 C 
BRANCH  19  20
ATOM     20  C   UNL     1       0.099   5.735  -6.098  0.00  0.00    +0.009 A 
ATOM     21  C   UNL     1       0.038   6.582  -4.996  0.00  0.00    +0.139 A 
ATOM     22  F   UNL     1       0.960   6.481  -3.995  0.00  0.00    -0.204 F 
ATOM     23  C   UNL     1      -1.100   7.316  -4.759  0.00  0.00    +0.061 A 
ATOM     24  C   UNL     1      -2.227   7.022  -5.493  0.00  0.00    +0.170 A 
ATOM     25  F   UNL     1      -3.292   7.862  -5.579  0.00  0.00    -0.202 F 
ATOM     26  C   UNL     1      -2.273   5.893  -6.296  0.00  0.00    +0.167 A 
ATOM     27  F   UNL     1      -3.480   5.301  -6.493  0.00  0.00    -0.202 F 
ATOM     28  C   UNL     1      -1.082   5.289  -6.672  0.00  0.00    +0.030 A 
ENDBRANCH  19  20
ENDBRANCH  18  19
ENDBRANCH  16  18
ENDBRANCH   1  16
TORSDOF 5
ENDMDL
MODEL 7
REMARK VINA RESULT:      -8.5      2.145      2.675
REMARK  Name = 
REMARK  5 active torsions:
REMARK  status: ('A' for Active; 'I' for Inactive)
REMARK    1  A    between atoms: C_2  and  C_3
REMARK    2  A    between atoms: C_2  and  C_19
REMARK    3  A    between atoms: C_3  and  C_4
REMARK    4  A    between atoms: C_13  and  C_14
REMARK    5  A    between atoms: C_19  and  C_20
REMARK                            x       y       z     vdW  Elec       q    Type
REMARK                         _______ _______ _______ _____ _____    ______ ____
ROOT
ATOM      1  C   UNL     1       1.707   5.036  -8.471  0.00  0.00    +0.227 C 
ATOM      2  N   UNL     1       0.732   4.875  -7.431  0.00  0.00    -0.270 N 
ATOM      3  C   UNL     1       1.256   4.347  -6.190  0.00  0.00    +0.160 C 
ATOM      4  C   UNL     1       0.650   5.146  -5.090  0.00  0.00    +0.164 A 
ATOM      5  N   UNL     1       1.097   5.445  -3.866  0.00  0.00    -0.132 NA
ATOM      6  N   UNL     1       0.041   5.493  -3.055  0.00  0.00    -0.125 NA
ATOM      7  C   UNL     1      -1.059   5.624  -3.837  0.00  0.00    +0.238 A 
ATOM      8  N   UNL     1      -0.639   5.493  -5.097  0.00  0.00    -0.292 N 
ATOM      9  C   UNL     1      -1.351   5.621  -6.338  0.00  0.00    +0.130 C 
ATOM     10  C   UNL     1      -0.460   5.670  -7.542  0.00  0.00    +0.118 C 
ATOM     11  O   UNL     1       1.739   4.164  -9.370  0.00  0.00    -0.275 OA
ENDROOT
BRANCH   7  12
ATOM     12  C   UNL     1      -2.415   5.531  -3.258  0.00  0.00    +0.452 C 
ATOM     13  F   UNL     1      -3.031   6.757  -3.494  0.00  0.00    -0.163 F 
ATOM     14  F   UNL     1      -2.432   5.244  -1.923  0.00  0.00    -0.163 F 
ATOM     15  F   UNL     1      -3.116   4.530  -3.922  0.00  0.00    -0.163 F 
ENDBRANCH   7  12
BRANCH   1  16
ATOM     16  C   UNL     1       2.833   5.949  -8.168  0.00  0.00    +0.105 C 
BRANCH  16  18
ATOM     17  N   UNL     1       4.849   5.017  -7.469  0.00  0.00    -0.132 NA
ATOM     18  C   UNL     1       4.093   5.122  -8.866  0.00  0.00    +0.105 C 
BRANCH  18  19
ATOM     19  C   UNL     1       4.861   6.538  -9.263  0.00  0.00    +0.048 C 
BRANCH  19  20
ATOM     20  C   UNL     1       5.714   6.218 -10.422  0.00  0.00    +0.009 A 
ATOM     21  C   UNL     1       7.032   5.887 -10.127  0.00  0.00    +0.139 A 
ATOM     22  F   UNL     1       7.535   6.100  -8.876  0.00  0.00    -0.204 F 
ATOM     23  C   UNL     1       7.917   5.627 -11.146  0.00  0.00    +0.061 A 
ATOM     24  C   UNL     1       7.529   5.919 -12.434  0.00  0.00    +0.170 A 
ATOM     25  F   UNL     1       8.167   5.424 -13.528  0.00  0.00    -0.202 F 
ATOM     26  C   UNL     1       6.370   6.639 -12.677  0.00  0.00    +0.167 A 
ATOM     27  F   UNL     1       6.325   7.415 -13.791  0.00  0.00    -0.202 F 
ATOM     28  C   UNL     1       5.409   6.718 -11.680  0.00  0.00    +0.030 A 
ENDBRANCH  19  20
ENDBRANCH  18  19
ENDBRANCH  16  18
ENDBRANCH   1  16
TORSDOF 5
ENDMDL
MODEL 8
REMARK VINA RESULT:      -8.4      3.720      4.529
REMARK  Name = 
REMARK  5 active torsions:
REMARK  status: ('A' for Active; 'I' for Inactive)
REMARK    1  A    between atoms: C_2  and  C_3
REMARK    2  A    between atoms: C_2  and  C_19
REMARK    3  A    between atoms: C_3  and  C_4
REMARK    4  A    between atoms: C_13  and  C_14
REMARK    5  A    between atoms: C_19  and  C_20
REMARK                            x       y       z     vdW  Elec       q    Type
REMARK                         _______ _______ _______ _____ _____    ______ ____
ROOT
ATOM      1  C   UNL     1       3.438   6.753  -6.176  0.00  0.00    +0.227 C 
ATOM      2  N   UNL     1       3.507   7.150  -4.800  0.00  0.00    -0.270 N 
ATOM      3  C   UNL     1       2.491   6.567  -3.951  0.00  0.00    +0.160 C 
ATOM      4  C   UNL     1       3.167   6.141  -2.696  0.00  0.00    +0.164 A 
ATOM      5  N   UNL     1       2.884   5.165  -1.827  0.00  0.00    -0.132 NA
ATOM      6  N   UNL     1       3.227   5.597  -0.614  0.00  0.00    -0.125 NA
ATOM      7  C   UNL     1       4.073   6.643  -0.786  0.00  0.00    +0.238 A 
ATOM      8  N   UNL     1       4.085   6.902  -2.095  0.00  0.00    -0.292 N 
ATOM      9  C   UNL     1       4.859   7.844  -2.855  0.00  0.00    +0.130 C 
ATOM     10  C   UNL     1       4.778   7.635  -4.336  0.00  0.00    +0.118 C 
ATOM     11  O   UNL     1       2.926   7.562  -6.984  0.00  0.00    -0.275 OA
ENDROOT
BRANCH   7  12
ATOM     12  C   UNL     1       4.504   7.466   0.363  0.00  0.00    +0.452 C 
ATOM     13  F   UNL     1       5.893   7.382   0.411  0.00  0.00    -0.163 F 
ATOM     14  F   UNL     1       3.967   7.078   1.557  0.00  0.00    -0.163 F 
ATOM     15  F   UNL     1       4.131   8.785   0.133  0.00  0.00    -0.163 F 
ENDBRANCH   7  12
BRANCH   1  16
ATOM     16  C   UNL     1       3.575   5.301  -6.440  0.00  0.00    +0.105 C 
BRANCH  16  18
ATOM     17  N   UNL     1       2.309   3.773  -7.657  0.00  0.00    -0.132 NA
ATOM     18  C   UNL     1       2.927   5.207  -7.967  0.00  0.00    +0.105 C 
BRANCH  18  19
ATOM     19  C   UNL     1       4.330   4.558  -8.568  0.00  0.00    +0.048 C 
BRANCH  19  20
ATOM     20  C   UNL     1       4.974   5.641  -9.334  0.00  0.00    +0.009 A 
ATOM     21  C   UNL     1       4.256   6.114 -10.428  0.00  0.00    +0.139 A 
ATOM     22  F   UNL     1       3.163   5.436 -10.883  0.00  0.00    -0.204 F 
ATOM     23  C   UNL     1       4.799   7.085 -11.235  0.00  0.00    +0.061 A 
ATOM     24  C   UNL     1       6.129   7.401 -11.067  0.00  0.00    +0.170 A 
ATOM     25  F   UNL     1       6.688   8.535 -11.566  0.00  0.00    -0.202 F 
ATOM     26  C   UNL     1       6.942   6.625 -10.255  0.00  0.00    +0.167 A 
ATOM     27  F   UNL     1       8.263   6.548 -10.566  0.00  0.00    -0.202 F 
ATOM     28  C   UNL     1       6.353   5.792  -9.315  0.00  0.00    +0.030 A 
ENDBRANCH  19  20
ENDBRANCH  18  19
ENDBRANCH  16  18
ENDBRANCH   1  16
TORSDOF 5
ENDMDL
MODEL 9
REMARK VINA RESULT:      -8.1      2.233      2.787
REMARK  Name = 
REMARK  5 active torsions:
REMARK  status: ('A' for Active; 'I' for Inactive)
REMARK    1  A    between atoms: C_2  and  C_3
REMARK    2  A    between atoms: C_2  and  C_19
REMARK    3  A    between atoms: C_3  and  C_4
REMARK    4  A    between atoms: C_13  and  C_14
REMARK    5  A    between atoms: C_19  and  C_20
REMARK                            x       y       z     vdW  Elec       q    Type
REMARK                         _______ _______ _______ _____ _____    ______ ____
ROOT
ATOM      1  C   UNL     1       1.485   5.298  -7.881  0.00  0.00    +0.227 C 
ATOM      2  N   UNL     1       0.496   5.109  -6.861  0.00  0.00    -0.270 N 
ATOM      3  C   UNL     1       0.992   4.507  -5.643  0.00  0.00    +0.160 C 
ATOM      4  C   UNL     1       0.393   5.265  -4.510  0.00  0.00    +0.164 A 
ATOM      5  N   UNL     1       0.833   5.491  -3.268  0.00  0.00    -0.132 NA
ATOM      6  N   UNL     1      -0.230   5.526  -2.467  0.00  0.00    -0.125 NA
ATOM      7  C   UNL     1      -1.318   5.723  -3.253  0.00  0.00    +0.238 A 
ATOM      8  N   UNL     1      -0.887   5.644  -4.513  0.00  0.00    -0.292 N 
ATOM      9  C   UNL     1      -1.581   5.852  -5.754  0.00  0.00    +0.130 C 
ATOM     10  C   UNL     1      -0.676   5.939  -6.944  0.00  0.00    +0.118 C 
ATOM     11  O   UNL     1       1.507   4.472  -8.822  0.00  0.00    -0.275 OA
ENDROOT
BRANCH   7  12
ATOM     12  C   UNL     1      -2.683   5.635  -2.693  0.00  0.00    +0.452 C 
ATOM     13  F   UNL     1      -3.249   6.899  -2.833  0.00  0.00    -0.163 F 
ATOM     14  F   UNL     1      -2.724   5.243  -1.386  0.00  0.00    -0.163 F 
ATOM     15  F   UNL     1      -3.414   4.719  -3.441  0.00  0.00    -0.163 F 
ENDBRANCH   7  12
BRANCH   1  16
ATOM     16  C   UNL     1       2.631   6.166  -7.521  0.00  0.00    +0.105 C 
BRANCH  16  18
ATOM     17  N   UNL     1       4.618   5.501  -6.508  0.00  0.00    -0.132 NA
ATOM     18  C   UNL     1       3.902   5.162  -7.888  0.00  0.00    +0.105 C 
BRANCH  18  19
ATOM     19  C   UNL     1       4.692   6.382  -8.688  0.00  0.00    +0.048 C 
BRANCH  19  20
ATOM     20  C   UNL     1       4.839   5.918 -10.079  0.00  0.00    +0.009 A 
ATOM     21  C   UNL     1       6.137   5.913 -10.579  0.00  0.00    +0.139 A 
ATOM     22  F   UNL     1       7.143   6.536  -9.897  0.00  0.00    -0.204 F 
ATOM     23  C   UNL     1       6.367   5.548 -11.883  0.00  0.00    +0.061 A 
ATOM     24  C   UNL     1       5.283   5.413 -12.721  0.00  0.00    +0.170 A 
ATOM     25  F   UNL     1       5.347   4.764 -13.914  0.00  0.00    -0.202 F 
ATOM     26  C   UNL     1       4.023   5.830 -12.319  0.00  0.00    +0.167 A 
ATOM     27  F   UNL     1       3.160   6.261 -13.276  0.00  0.00    -0.202 F 
ATOM     28  C   UNL     1       3.775   6.004 -10.965  0.00  0.00    +0.030 A 
ENDBRANCH  19  20
ENDBRANCH  18  19
ENDBRANCH  16  18
ENDBRANCH   1  16
TORSDOF 5
ENDMDL
