MODEL 1
REMARK VINA RESULT:      -6.2      0.000      0.000
REMARK  Name = 
REMARK  4 active torsions:
REMARK  status: ('A' for Active; 'I' for Inactive)
REMARK    1  A    between atoms: N_4  and  CA_5
REMARK    2  A    between atoms: CA_5  and  CB_6
REMARK    3  A    between atoms: CA_5  and  C_14
REMARK    4  A    between atoms: CB_6  and  CG_7
REMARK                            x       y       z     vdW  Elec       q    Type
REMARK                         _______ _______ _______ _____ _____    ______ ____
ROOT
ATOM      1  CA  TYR A   1       2.138   6.291  -6.439  0.00  0.00    +0.202 C 
ENDROOT
BRANCH   1   4
ATOM      2  C   UNK A   0       4.654   7.644  -4.125  0.00  0.00    +0.096 C 
ATOM      3  C   UNK A   0       4.175   6.862  -5.064  0.00  0.00    +0.242 C 
ATOM      4  N   TYR A   1       3.394   7.265  -6.201  0.00  0.00    -0.195 NA
ATOM      5  O   UNK A   0       4.606   5.673  -5.161  0.00  0.00    -0.273 OA
ENDBRANCH   1   4
BRANCH   1   6
ATOM      6  C   TYR A   1       1.721   7.035  -7.841  0.00  0.00    +0.385 C 
ATOM      7  OXT TYR A   1       2.083   8.355  -7.906  0.00  0.00    -0.244 OA
ATOM      8  O   TYR A   1       1.070   6.376  -8.639  0.00  0.00    -0.244 OA
ENDBRANCH   1   6
BRANCH   1   9
ATOM      9  CB  TYR A   1       1.139   7.281  -5.528  0.00  0.00    +0.060 C 
BRANCH   9  10
ATOM     10  CG  TYR A   1       0.141   6.319  -4.965  0.00  0.00    -0.020 A 
ATOM     11  CD2 TYR A   1       0.411   5.697  -3.766  0.00  0.00    -0.001 A 
ATOM     12  CE2 TYR A   1      -0.608   5.447  -2.856  0.00  0.00    +0.042 A 
ATOM     13  CZ  TYR A   1      -1.893   5.410  -3.322  0.00  0.00    +0.196 A 
ATOM     14  OH  TYR A   1      -2.884   4.673  -2.686  0.00  0.00    -0.287 OA
ATOM     15  CE1 TYR A   1      -2.169   5.905  -4.570  0.00  0.00    +0.042 A 
ATOM     16  CD1 TYR A   1      -1.188   6.639  -5.208  0.00  0.00    -0.001 A 
ENDBRANCH   9  10
ENDBRANCH   1   9
TORSDOF 4
ENDMDL
MODEL 2
REMARK VINA RESULT:      -6.2      4.483      8.109
REMARK  Name = 
REMARK  4 active torsions:
REMARK  status: ('A' for Active; 'I' for Inactive)
REMARK    1  A    between atoms: N_4  and  CA_5
REMARK    2  A    between atoms: CA_5  and  CB_6
REMARK    3  A    between atoms: CA_5  and  C_14
REMARK    4  A    between atoms: CB_6  and  CG_7
REMARK                            x       y       z     vdW  Elec       q    Type
REMARK                         _______ _______ _______ _____ _____    ______ ____
ROOT
ATOM      1  CA  TYR A   1       2.785   6.073  -8.912  0.00  0.00    +0.202 C 
ENDROOT
BRANCH   1   4
ATOM      2  C   UNK A   0       0.565   6.655 -11.784  0.00  0.00    +0.096 C 
ATOM      3  C   UNK A   0       0.995   6.071 -10.690  0.00  0.00    +0.242 C 
ATOM      4  N   TYR A   1       1.430   6.720  -9.484  0.00  0.00    -0.195 NA
ATOM      5  O   UNK A   0       0.808   4.825 -10.537  0.00  0.00    -0.273 OA
ENDBRANCH   1   4
BRANCH   1   6
ATOM      6  C   TYR A   1       2.842   7.109  -7.640  0.00  0.00    +0.385 C 
ATOM      7  OXT TYR A   1       2.191   8.296  -7.854  0.00  0.00    -0.244 OA
ATOM      8  O   TYR A   1       3.511   6.761  -6.679  0.00  0.00    -0.244 OA
ENDBRANCH   1   6
BRANCH   1   9
ATOM      9  CB  TYR A   1       3.723   7.079  -9.870  0.00  0.00    +0.060 C 
BRANCH   9  10
ATOM     10  CG  TYR A   1       4.737   6.140 -10.445  0.00  0.00    -0.020 A 
ATOM     11  CD2 TYR A   1       4.498   5.566 -11.674  0.00  0.00    -0.001 A 
ATOM     12  CE2 TYR A   1       5.540   5.353 -12.567  0.00  0.00    +0.042 A 
ATOM     13  CZ  TYR A   1       6.813   5.298 -12.070  0.00  0.00    +0.196 A 
ATOM     14  OH  TYR A   1       7.821   4.588 -12.709  0.00  0.00    -0.287 OA
ATOM     15  CE1 TYR A   1       7.056   5.744 -10.797  0.00  0.00    +0.042 A 
ATOM     16  CD1 TYR A   1       6.059   6.452 -10.156  0.00  0.00    -0.001 A 
ENDBRANCH   9  10
ENDBRANCH   1   9
TORSDOF 4
ENDMDL
MODEL 3
REMARK VINA RESULT:      -6.2      4.745      8.004
REMARK  Name = 
REMARK  4 active torsions:
REMARK  status: ('A' for Active; 'I' for Inactive)
REMARK    1  A    between atoms: N_4  and  CA_5
REMARK    2  A    between atoms: CA_5  and  CB_6
REMARK    3  A    between atoms: CA_5  and  C_14
REMARK    4  A    between atoms: CB_6  and  CG_7
REMARK                            x       y       z     vdW  Elec       q    Type
REMARK                         _______ _______ _______ _____ _____    ______ ____
ROOT
ATOM      1  CA  TYR A   1       3.257   6.583  -9.882  0.00  0.00    +0.202 C 
ENDROOT
BRANCH   1   4
ATOM      2  C   UNK A   0       2.987   7.053  -6.246  0.00  0.00    +0.096 C 
ATOM      3  C   UNK A   0       2.671   7.212  -7.510  0.00  0.00    +0.242 C 
ATOM      4  N   TYR A   1       2.545   6.177  -8.500  0.00  0.00    -0.195 NA
ATOM      5  O   UNK A   0       2.191   8.321  -7.895  0.00  0.00    -0.273 OA
ENDBRANCH   1   4
BRANCH   1   6
ATOM      6  C   TYR A   1       2.131   5.803 -10.787  0.00  0.00    +0.385 C 
ATOM      7  OXT TYR A   1       1.996   6.294 -12.060  0.00  0.00    -0.244 OA
ATOM      8  O   TYR A   1       1.482   4.934 -10.225  0.00  0.00    -0.244 OA
ENDBRANCH   1   6
BRANCH   1   9
ATOM      9  CB  TYR A   1       4.250   5.233  -9.819  0.00  0.00    +0.060 C 
BRANCH   9  10
ATOM     10  CG  TYR A   1       5.524   5.729 -10.428  0.00  0.00    -0.020 A 
ATOM     11  CD2 TYR A   1       6.654   5.812  -9.645  0.00  0.00    -0.001 A 
ATOM     12  CE2 TYR A   1       7.903   5.519 -10.177  0.00  0.00    +0.042 A 
ATOM     13  CZ  TYR A   1       8.057   5.586 -11.534  0.00  0.00    +0.196 A 
ATOM     14  OH  TYR A   1       9.287   5.849 -12.122  0.00  0.00    -0.287 OA
ATOM     15  CE1 TYR A   1       6.945   5.636 -12.334  0.00  0.00    +0.042 A 
ATOM     16  CD1 TYR A   1       5.718   5.375 -11.756  0.00  0.00    -0.001 A 
ENDBRANCH   9  10
ENDBRANCH   1   9
TORSDOF 4
ENDMDL
MODEL 4
REMARK VINA RESULT:      -6.1      1.948      2.365
REMARK  Name = 
REMARK  4 active torsions:
REMARK  status: ('A' for Active; 'I' for Inactive)
REMARK    1  A    between atoms: N_4  and  CA_5
REMARK    2  A    between atoms: CA_5  and  CB_6
REMARK    3  A    between atoms: CA_5  and  C_14
REMARK    4  A    between atoms: CB_6  and  CG_7
REMARK                            x       y       z     vdW  Elec       q    Type
REMARK                         _______ _______ _______ _____ _____    ______ ____
ROOT
ATOM      1  CA  TYR A   1       2.201   4.711  -7.199  0.00  0.00    +0.202 C 
ENDROOT
BRANCH   1   4
ATOM      2  C   UNK A   0       4.045   7.169  -5.181  0.00  0.00    +0.096 C 
ATOM      3  C   UNK A   0       3.832   6.030  -5.797  0.00  0.00    +0.242 C 
ATOM      4  N   TYR A   1       3.326   5.857  -7.131  0.00  0.00    -0.195 NA
ATOM      5  O   UNK A   0       4.321   4.963  -5.315  0.00  0.00    -0.273 OA
ENDBRANCH   1   4
BRANCH   1   6
ATOM      6  C   TYR A   1       2.583   4.312  -8.744  0.00  0.00    +0.385 C 
ATOM      7  OXT TYR A   1       1.533   4.395  -9.621  0.00  0.00    -0.244 OA
ATOM      8  O   TYR A   1       3.720   3.911  -8.943  0.00  0.00    -0.244 OA
ENDBRANCH   1   6
BRANCH   1   9
ATOM      9  CB  TYR A   1       1.040   5.816  -7.692  0.00  0.00    +0.060 C 
BRANCH   9  10
ATOM     10  CG  TYR A   1       0.084   5.827  -6.541  0.00  0.00    -0.020 A 
ATOM     11  CD2 TYR A   1       0.232   6.775  -5.554  0.00  0.00    -0.001 A 
ATOM     12  CE2 TYR A   1      -0.880   7.343  -4.947  0.00  0.00    +0.042 A 
ATOM     13  CZ  TYR A   1      -2.065   6.662  -5.008  0.00  0.00    +0.196 A 
ATOM     14  OH  TYR A   1      -3.052   6.817  -4.044  0.00  0.00    -0.287 OA
ATOM     15  CE1 TYR A   1      -2.197   5.625  -5.894  0.00  0.00    +0.042 A 
ATOM     16  CD1 TYR A   1      -1.220   5.464  -6.856  0.00  0.00    -0.001 A 
ENDBRANCH   9  10
ENDBRANCH   1   9
TORSDOF 4
ENDMDL
MODEL 5
REMARK VINA RESULT:      -6.0      3.872      7.004
REMARK  Name = 
REMARK  4 active torsions:
REMARK  status: ('A' for Active; 'I' for Inactive)
REMARK    1  A    between atoms: N_4  and  CA_5
REMARK    2  A    between atoms: CA_5  and  CB_6
REMARK    3  A    between atoms: CA_5  and  C_14
REMARK    4  A    between atoms: CB_6  and  CG_7
REMARK                            x       y       z     vdW  Elec       q    Type
REMARK                         _______ _______ _______ _____ _____    ______ ____
ROOT
ATOM      1  CA  TYR A   1       1.817   6.454  -9.867  0.00  0.00    +0.202 C 
ENDROOT
BRANCH   1   4
ATOM      2  C   UNK A   0       2.536   6.986  -6.301  0.00  0.00    +0.096 C 
ATOM      3  C   UNK A   0       2.114   7.291  -7.505  0.00  0.00    +0.242 C 
ATOM      4  N   TYR A   1       1.279   6.484  -8.353  0.00  0.00    -0.195 NA
ATOM      5  O   UNK A   0       2.219   8.487  -7.915  0.00  0.00    -0.273 OA
ENDBRANCH   1   4
BRANCH   1   6
ATOM      6  C   TYR A   1       0.471   5.694 -10.418  0.00  0.00    +0.385 C 
ATOM      7  OXT TYR A   1       0.586   4.330 -10.491  0.00  0.00    -0.244 OA
ATOM      8  O   TYR A   1      -0.453   6.408 -10.778  0.00  0.00    -0.244 OA
ENDBRANCH   1   6
BRANCH   1   9
ATOM      9  CB  TYR A   1       2.617   5.005  -9.601  0.00  0.00    +0.060 C 
BRANCH   9  10
ATOM     10  CG  TYR A   1       4.015   5.311 -10.041  0.00  0.00    -0.020 A 
ATOM     11  CD2 TYR A   1       4.222   6.295 -10.981  0.00  0.00    -0.001 A 
ATOM     12  CE2 TYR A   1       5.331   7.127 -10.900  0.00  0.00    +0.042 A 
ATOM     13  CZ  TYR A   1       6.409   6.694 -10.177  0.00  0.00    +0.196 A 
ATOM     14  OH  TYR A   1       7.699   7.130 -10.449  0.00  0.00    -0.287 OA
ATOM     15  CE1 TYR A   1       6.262   5.629  -9.328  0.00  0.00    +0.042 A 
ATOM     16  CD1 TYR A   1       4.983   5.190  -9.052  0.00  0.00    -0.001 A 
ENDBRANCH   9  10
ENDBRANCH   1   9
TORSDOF 4
ENDMDL
MODEL 6
REMARK VINA RESULT:      -6.0      4.796      8.100
REMARK  Name = 
REMARK  4 active torsions:
REMARK  status: ('A' for Active; 'I' for Inactive)
REMARK    1  A    between atoms: N_4  and  CA_5
REMARK    2  A    between atoms: CA_5  and  CB_6
REMARK    3  A    between atoms: CA_5  and  C_14
REMARK    4  A    between atoms: CB_6  and  CG_7
REMARK                            x       y       z     vdW  Elec       q    Type
REMARK                         _______ _______ _______ _____ _____    ______ ____
ROOT
ATOM      1  CA  TYR A   1       2.309   5.548 -10.084  0.00  0.00    +0.202 C 
ENDROOT
BRANCH   1   4
ATOM      2  C   UNK A   0      -0.419   7.522 -11.558  0.00  0.00    +0.096 C 
ATOM      3  C   UNK A   0       0.145   6.493 -10.971  0.00  0.00    +0.242 C 
ATOM      4  N   TYR A   1       1.057   6.530  -9.861  0.00  0.00    -0.195 NA
ATOM      5  O   UNK A   0      -0.299   5.327 -11.203  0.00  0.00    -0.273 OA
ENDBRANCH   1   4
BRANCH   1   6
ATOM      6  C   TYR A   1       2.059   4.771  -8.660  0.00  0.00    +0.385 C 
ATOM      7  OXT TYR A   1       2.653   3.538  -8.581  0.00  0.00    -0.244 OA
ATOM      8  O   TYR A   1       1.318   5.320  -7.858  0.00  0.00    -0.244 OA
ENDBRANCH   1   6
BRANCH   1   9
ATOM      9  CB  TYR A   1       3.358   6.652  -9.383  0.00  0.00    +0.060 C 
BRANCH   9  10
ATOM     10  CG  TYR A   1       4.645   6.390 -10.100  0.00  0.00    -0.020 A 
ATOM     11  CD2 TYR A   1       5.089   7.298 -11.035  0.00  0.00    -0.001 A 
ATOM     12  CE2 TYR A   1       6.445   7.568 -11.168  0.00  0.00    +0.042 A 
ATOM     13  CZ  TYR A   1       7.335   6.639 -10.703  0.00  0.00    +0.196 A 
ATOM     14  OH  TYR A   1       8.614   6.519 -11.231  0.00  0.00    -0.287 OA
ATOM     15  CE1 TYR A   1       6.892   5.643  -9.872  0.00  0.00    +0.042 A 
ATOM     16  CD1 TYR A   1       5.622   5.756  -9.343  0.00  0.00    -0.001 A 
ENDBRANCH   9  10
ENDBRANCH   1   9
TORSDOF 4
ENDMDL
MODEL 7
REMARK VINA RESULT:      -6.0      1.848      3.385
REMARK  Name = 
REMARK  4 active torsions:
REMARK  status: ('A' for Active; 'I' for Inactive)
REMARK    1  A    between atoms: N_4  and  CA_5
REMARK    2  A    between atoms: CA_5  and  CB_6
REMARK    3  A    between atoms: CA_5  and  C_14
REMARK    4  A    between atoms: CB_6  and  CG_7
REMARK                            x       y       z     vdW  Elec       q    Type
REMARK                         _______ _______ _______ _____ _____    ______ ____
ROOT
ATOM      1  CA  TYR A   1       2.711   6.216  -6.034  0.00  0.00    +0.202 C 
ENDROOT
BRANCH   1   4
ATOM      2  C   UNK A   0       1.358   6.861  -9.391  0.00  0.00    +0.096 C 
ATOM      3  C   UNK A   0       2.024   7.115  -8.289  0.00  0.00    +0.242 C 
ATOM      4  N   TYR A   1       2.949   6.240  -7.624  0.00  0.00    -0.195 NA
ATOM      5  O   UNK A   0       2.080   8.308  -7.860  0.00  0.00    -0.273 OA
ENDBRANCH   1   4
BRANCH   1   6
ATOM      6  C   TYR A   1       4.072   5.342  -5.760  0.00  0.00    +0.385 C 
ATOM      7  OXT TYR A   1       4.954   5.332  -6.809  0.00  0.00    -0.244 OA
ATOM      8  O   TYR A   1       4.129   4.732  -4.702  0.00  0.00    -0.244 OA
ENDBRANCH   1   6
BRANCH   1   9
ATOM      9  CB  TYR A   1       1.761   4.840  -6.152  0.00  0.00    +0.060 C 
BRANCH   9  10
ATOM     10  CG  TYR A   1       0.433   5.309  -5.646  0.00  0.00    -0.020 A 
ATOM     11  CD2 TYR A   1       0.378   6.419  -4.833  0.00  0.00    -0.001 A 
ATOM     12  CE2 TYR A   1      -0.676   7.317  -4.934  0.00  0.00    +0.042 A 
ATOM     13  CZ  TYR A   1      -1.841   6.880  -5.502  0.00  0.00    +0.196 A 
ATOM     14  OH  TYR A   1      -3.070   7.447  -5.187  0.00  0.00    -0.287 OA
ATOM     15  CE1 TYR A   1      -1.844   5.706  -6.209  0.00  0.00    +0.042 A 
ATOM     16  CD1 TYR A   1      -0.627   5.137  -6.527  0.00  0.00    -0.001 A 
ENDBRANCH   9  10
ENDBRANCH   1   9
TORSDOF 4
ENDMDL
MODEL 8
REMARK VINA RESULT:      -6.0      3.472      6.736
REMARK  Name = 
REMARK  4 active torsions:
REMARK  status: ('A' for Active; 'I' for Inactive)
REMARK    1  A    between atoms: N_4  and  CA_5
REMARK    2  A    between atoms: CA_5  and  CB_6
REMARK    3  A    between atoms: CA_5  and  C_14
REMARK    4  A    between atoms: CB_6  and  CG_7
REMARK                            x       y       z     vdW  Elec       q    Type
REMARK                         _______ _______ _______ _____ _____    ______ ____
ROOT
ATOM      1  CA  TYR A   1       3.573   6.580  -7.225  0.00  0.00    +0.202 C 
ENDROOT
BRANCH   1   4
ATOM      2  C   UNK A   0       4.345   4.753  -4.130  0.00  0.00    +0.096 C 
ATOM      3  C   UNK A   0       3.903   5.744  -4.867  0.00  0.00    +0.242 C 
ATOM      4  N   TYR A   1       3.058   5.642  -6.026  0.00  0.00    -0.195 NA
ATOM      5  O   UNK A   0       3.997   6.932  -4.432  0.00  0.00    -0.273 OA
ENDBRANCH   1   4
BRANCH   1   6
ATOM      6  C   TYR A   1       2.103   7.283  -7.417  0.00  0.00    +0.385 C 
ATOM      7  OXT TYR A   1       1.046   6.472  -7.094  0.00  0.00    -0.244 OA
ATOM      8  O   TYR A   1       2.091   8.408  -7.895  0.00  0.00    -0.244 OA
ENDBRANCH   1   6
BRANCH   1   9
ATOM      9  CB  TYR A   1       3.237   5.393  -8.359  0.00  0.00    +0.060 C 
BRANCH   9  10
ATOM     10  CG  TYR A   1       4.387   5.505  -9.310  0.00  0.00    -0.020 A 
ATOM     11  CD2 TYR A   1       4.290   6.363 -10.382  0.00  0.00    -0.001 A 
ATOM     12  CE2 TYR A   1       5.399   7.077 -10.817  0.00  0.00    +0.042 A 
ATOM     13  CZ  TYR A   1       6.639   6.608 -10.482  0.00  0.00    +0.196 A 
ATOM     14  OH  TYR A   1       7.761   6.877 -11.256  0.00  0.00    -0.287 OA
ATOM     15  CE1 TYR A   1       6.754   5.654  -9.504  0.00  0.00    +0.042 A 
ATOM     16  CD1 TYR A   1       5.643   5.382  -8.730  0.00  0.00    -0.001 A 
ENDBRANCH   9  10
ENDBRANCH   1   9
TORSDOF 4
ENDMDL
MODEL 9
REMARK VINA RESULT:      -6.0      2.375      3.917
REMARK  Name = 
REMARK  4 active torsions:
REMARK  status: ('A' for Active; 'I' for Inactive)
REMARK    1  A    between atoms: N_4  and  CA_5
REMARK    2  A    between atoms: CA_5  and  CB_6
REMARK    3  A    between atoms: CA_5  and  C_14
REMARK    4  A    between atoms: CB_6  and  CG_7
REMARK                            x       y       z     vdW  Elec       q    Type
REMARK                         _______ _______ _______ _____ _____    ______ ____
ROOT
ATOM      1  CA  TYR A   1       0.807   6.345  -8.317  0.00  0.00    +0.202 C 
ENDROOT
BRANCH   1   4
ATOM      2  C   UNK A   0       0.039   4.745 -11.537  0.00  0.00    +0.096 C 
ATOM      3  C   UNK A   0       0.433   5.700 -10.728  0.00  0.00    +0.242 C 
ATOM      4  N   TYR A   1       1.339   5.568  -9.620  0.00  0.00    -0.195 NA
ATOM      5  O   UNK A   0       0.217   6.910 -11.045  0.00  0.00    -0.273 OA
ENDBRANCH   1   4
BRANCH   1   6
ATOM      6  C   TYR A   1       2.252   7.080  -8.063  0.00  0.00    +0.385 C 
ATOM      7  OXT TYR A   1       2.164   8.429  -7.837  0.00  0.00    -0.244 OA
ATOM      8  O   TYR A   1       3.249   6.383  -8.177  0.00  0.00    -0.244 OA
ENDBRANCH   1   6
BRANCH   1   9
ATOM      9  CB  TYR A   1       1.205   5.052  -7.328  0.00  0.00    +0.060 C 
BRANCH   9  10
ATOM     10  CG  TYR A   1       0.056   4.999  -6.371  0.00  0.00    -0.020 A 
ATOM     11  CD2 TYR A   1       0.276   5.282  -5.041  0.00  0.00    -0.001 A 
ATOM     12  CE2 TYR A   1      -0.676   5.967  -4.298  0.00  0.00    +0.042 A 
ATOM     13  CZ  TYR A   1      -1.968   5.963  -4.748  0.00  0.00    +0.196 A 
ATOM     14  OH  TYR A   1      -3.046   6.115  -3.885  0.00  0.00    -0.287 OA
ATOM     15  CE1 TYR A   1      -2.231   5.560  -6.031  0.00  0.00    +0.042 A 
ATOM     16  CD1 TYR A   1      -1.164   5.406  -6.894  0.00  0.00    -0.001 A 
ENDBRANCH   9  10
ENDBRANCH   1   9
TORSDOF 4
ENDMDL
