MODEL 1
REMARK VINA RESULT:      -9.1      0.000      0.000
REMARK  Name = 
REMARK  12 active torsions:
REMARK  status: ('A' for Active; 'I' for Inactive)
REMARK    1  A    between atoms: C_2  and  C_4
REMARK    2  A    between atoms: C_4  and  N_5
REMARK    3  A    between atoms: N_5  and  C_6
REMARK    4  A    between atoms: N_5  and  S_29
REMARK    5  A    between atoms: C_6  and  C_7
REMARK    6  A    between atoms: C_7  and  C_9
REMARK    7  A    between atoms: C_9  and  C_10
REMARK    8  A    between atoms: C_9  and  N_17
REMARK    9  A    between atoms: C_10  and  C_11
REMARK   10  A    between atoms: C_18  and  O_20
REMARK   11  A    between atoms: O_20  and  C_21
REMARK   12  A    between atoms: S_29  and  C_32
REMARK                            x       y       z     vdW  Elec       q    Type
REMARK                         _______ _______ _______ _____ _____    ______ ____
ROOT
ATOM      1  C   UNL     1       1.831   5.635  -8.932  0.00  0.00    +0.135 C 
ENDROOT
BRANCH   1   2
ATOM      2  N   UNL     1       2.988   4.612  -9.100  0.00  0.00    -0.167 NA
ATOM      3  C   UNL     1       4.080   5.250  -9.657  0.00  0.00    +0.421 C 
ATOM      4  O   UNL     1       4.786   5.396  -8.625  0.00  0.00    -0.225 OA
BRANCH   3   5
ATOM      5  O   UNL     1       4.964   5.179 -10.641  0.00  0.00    -0.435 OA
BRANCH   5   6
ATOM      6  C   UNL     1       4.857   6.100 -11.855  0.00  0.00    +0.205 C 
ATOM      7  C   UNL     1       5.986   5.307 -12.837  0.00  0.00    +0.102 C 
ATOM      8  C   UNL     1       6.258   6.857 -13.502  0.00  0.00    +0.239 C 
ATOM      9  O   UNL     1       7.626   6.394 -13.982  0.00  0.00    -0.330 OA
ATOM     10  C   UNL     1       8.238   5.924 -12.881  0.00  0.00    +0.145 C 
ATOM     11  O   UNL     1       6.818   7.410 -12.203  0.00  0.00    -0.327 OA
ATOM     12  C   UNL     1       7.278   5.353 -11.899  0.00  0.00    +0.041 C 
ATOM     13  C   UNL     1       5.949   7.155 -11.259  0.00  0.00    +0.188 C 
ENDBRANCH   5   6
ENDBRANCH   3   5
ENDBRANCH   1   2
BRANCH   1  14
ATOM     14  C   UNL     1       1.313   5.138  -7.366  0.00  0.00    +0.190 C 
ATOM     15  O   UNL     1      -0.060   5.761  -7.422  0.00  0.00    -0.220 OA
BRANCH  14  16
ATOM     16  C   UNL     1       1.961   6.479  -6.684  0.00  0.00    +0.130 C 
BRANCH  16  17
ATOM     17  N   UNL     1       2.176   6.254  -5.329  0.00  0.00    -0.153 NA
BRANCH  17  18
ATOM     18  S   UNL     1       3.664   5.645  -4.832  0.00  0.00    +0.063 S 
ATOM     19  O   UNL     1       4.711   6.183  -5.783  0.00  0.00    -0.153 OA
ATOM     20  O   UNL     1       3.576   4.138  -4.960  0.00  0.00    -0.153 OA
BRANCH  18  21
ATOM     21  C   UNL     1       4.056   6.048  -3.190  0.00  0.00    +0.122 A 
ATOM     22  C   UNL     1       4.530   7.261  -2.764  0.00  0.00    +0.021 A 
ATOM     23  C   UNL     1       4.388   7.551  -1.411  0.00  0.00    +0.019 A 
ATOM     24  C   UNL     1       3.885   6.608  -0.522  0.00  0.00    +0.089 A 
ATOM     25  N   UNL     1       3.249   6.964   0.698  0.00  0.00    -0.128 NA
ATOM     26  C   UNL     1       4.001   5.286  -0.913  0.00  0.00    +0.019 A 
ATOM     27  C   UNL     1       4.099   5.020  -2.255  0.00  0.00    +0.021 A 
ENDBRANCH  18  21
ENDBRANCH  17  18
BRANCH  17  28
ATOM     28  C   UNL     1       1.296   6.761  -4.365  0.00  0.00    +0.096 C 
BRANCH  28  30
ATOM     29  C   UNL     1       0.182   5.138  -3.925  0.00  0.00    +0.001 C 
ATOM     30  C   UNL     1       0.549   5.683  -3.601  0.00  0.00    +0.018 C 
ATOM     31  C   UNL     1       0.527   5.994  -2.120  0.00  0.00    +0.001 C 
ENDBRANCH  28  30
ENDBRANCH  17  28
ENDBRANCH  16  17
ENDBRANCH  14  16
ENDBRANCH   1  14
BRANCH   1  32
ATOM     32  C   UNL     1       0.750   4.763  -9.788  0.00  0.00    +0.051 C 
BRANCH  32  33
ATOM     33  C   UNL     1       0.366   5.476 -10.989  0.00  0.00    -0.020 A 
ATOM     34  C   UNL     1      -0.365   6.652 -10.860  0.00  0.00    -0.004 A 
ATOM     35  C   UNL     1      -0.383   7.632 -11.811  0.00  0.00    -0.000 A 
ATOM     36  C   UNL     1       0.267   7.421 -13.001  0.00  0.00    -0.000 A 
ATOM     37  C   UNL     1       1.278   6.471 -12.994  0.00  0.00    -0.000 A 
ATOM     38  C   UNL     1       1.202   5.439 -12.088  0.00  0.00    -0.004 A 
ENDBRANCH  32  33
ENDBRANCH   1  32
TORSDOF 12
ENDMDL
MODEL 2
REMARK VINA RESULT:      -8.9      3.047      5.260
REMARK  Name = 
REMARK  12 active torsions:
REMARK  status: ('A' for Active; 'I' for Inactive)
REMARK    1  A    between atoms: C_2  and  C_4
REMARK    2  A    between atoms: C_4  and  N_5
REMARK    3  A    between atoms: N_5  and  C_6
REMARK    4  A    between atoms: N_5  and  S_29
REMARK    5  A    between atoms: C_6  and  C_7
REMARK    6  A    between atoms: C_7  and  C_9
REMARK    7  A    between atoms: C_9  and  C_10
REMARK    8  A    between atoms: C_9  and  N_17
REMARK    9  A    between atoms: C_10  and  C_11
REMARK   10  A    between atoms: C_18  and  O_20
REMARK   11  A    between atoms: O_20  and  C_21
REMARK   12  A    between atoms: S_29  and  C_32
REMARK                            x       y       z     vdW  Elec       q    Type
REMARK                         _______ _______ _______ _____ _____    ______ ____
ROOT
ATOM      1  C   UNL     1       1.737   5.828  -6.099  0.00  0.00    +0.135 C 
ENDROOT
BRANCH   1   2
ATOM      2  N   UNL     1       0.562   6.465  -6.889  0.00  0.00    -0.167 NA
ATOM      3  C   UNL     1       0.113   5.567  -7.838  0.00  0.00    +0.421 C 
ATOM      4  O   UNL     1      -0.924   5.151  -7.259  0.00  0.00    -0.225 OA
BRANCH   3   5
ATOM      5  O   UNL     1      -0.166   5.433  -9.126  0.00  0.00    -0.435 OA
BRANCH   5   6
ATOM      6  C   UNL     1       0.928   5.069 -10.128  0.00  0.00    +0.205 C 
ATOM      7  C   UNL     1       1.167   6.618 -10.769  0.00  0.00    +0.102 C 
ATOM      8  C   UNL     1       1.599   5.786 -12.198  0.00  0.00    +0.239 C 
ATOM      9  O   UNL     1       1.287   7.039 -13.004  0.00  0.00    -0.330 OA
ATOM     10  C   UNL     1       0.026   7.362 -12.667  0.00  0.00    +0.145 C 
ATOM     11  O   UNL     1       0.203   5.222 -12.393  0.00  0.00    -0.327 OA
ATOM     12  C   UNL     1      -0.309   6.960 -11.275  0.00  0.00    +0.041 C 
ATOM     13  C   UNL     1      -0.146   4.637 -11.276  0.00  0.00    +0.188 C 
ENDBRANCH   5   6
ENDBRANCH   3   5
ENDBRANCH   1   2
BRANCH   1  14
ATOM     14  C   UNL     1       1.481   6.650  -4.606  0.00  0.00    +0.190 C 
ATOM     15  O   UNL     1       2.647   6.047  -3.864  0.00  0.00    -0.220 OA
BRANCH  14  16
ATOM     16  C   UNL     1       0.464   5.476  -4.089  0.00  0.00    +0.130 C 
BRANCH  16  17
ATOM     17  N   UNL     1      -0.484   6.026  -3.232  0.00  0.00    -0.153 NA
BRANCH  17  18
ATOM     18  S   UNL     1      -0.640   5.394  -1.680  0.00  0.00    +0.063 S 
ATOM     19  O   UNL     1       0.301   4.213  -1.578  0.00  0.00    -0.153 OA
ATOM     20  O   UNL     1      -2.074   4.924  -1.550  0.00  0.00    -0.153 OA
BRANCH  18  21
ATOM     21  C   UNL     1      -0.312   6.555  -0.432  0.00  0.00    +0.122 A 
ATOM     22  C   UNL     1       0.915   6.784   0.134  0.00  0.00    +0.021 A 
ATOM     23  C   UNL     1       1.088   7.999   0.787  0.00  0.00    +0.019 A 
ATOM     24  C   UNL     1       0.031   8.888   0.946  0.00  0.00    +0.089 A 
ATOM     25  N   UNL     1       0.220  10.287   1.116  0.00  0.00    -0.128 NA
ATOM     26  C   UNL     1      -1.237   8.337   0.886  0.00  0.00    +0.019 A 
ATOM     27  C   UNL     1      -1.392   7.157   0.203  0.00  0.00    +0.021 A 
ENDBRANCH  18  21
ENDBRANCH  17  18
BRANCH  17  28
ATOM     28  C   UNL     1      -1.112   7.240  -3.535  0.00  0.00    +0.096 C 
BRANCH  28  30
ATOM     29  C   UNL     1      -2.364   7.669  -5.057  0.00  0.00    +0.001 C 
ATOM     30  C   UNL     1      -2.174   7.119  -4.612  0.00  0.00    +0.018 C 
ATOM     31  C   UNL     1      -2.888   5.787  -4.513  0.00  0.00    +0.001 C 
ENDBRANCH  28  30
ENDBRANCH  17  28
ENDBRANCH  16  17
ENDBRANCH  14  16
ENDBRANCH   1  14
BRANCH   1  32
ATOM     32  C   UNL     1       2.870   6.839  -6.695  0.00  0.00    +0.051 C 
BRANCH  32  33
ATOM     33  C   UNL     1       3.582   6.209  -7.787  0.00  0.00    -0.020 A 
ATOM     34  C   UNL     1       3.695   6.894  -8.992  0.00  0.00    -0.004 A 
ATOM     35  C   UNL     1       4.688   6.657  -9.899  0.00  0.00    -0.000 A 
ATOM     36  C   UNL     1       5.568   5.628  -9.674  0.00  0.00    -0.000 A 
ATOM     37  C   UNL     1       5.707   5.210  -8.358  0.00  0.00    -0.000 A 
ATOM     38  C   UNL     1       4.643   5.371  -7.503  0.00  0.00    -0.004 A 
ENDBRANCH  32  33
ENDBRANCH   1  32
TORSDOF 12
ENDMDL
MODEL 3
REMARK VINA RESULT:      -8.9      2.645      9.951
REMARK  Name = 
REMARK  12 active torsions:
REMARK  status: ('A' for Active; 'I' for Inactive)
REMARK    1  A    between atoms: C_2  and  C_4
REMARK    2  A    between atoms: C_4  and  N_5
REMARK    3  A    between atoms: N_5  and  C_6
REMARK    4  A    between atoms: N_5  and  S_29
REMARK    5  A    between atoms: C_6  and  C_7
REMARK    6  A    between atoms: C_7  and  C_9
REMARK    7  A    between atoms: C_9  and  C_10
REMARK    8  A    between atoms: C_9  and  N_17
REMARK    9  A    between atoms: C_10  and  C_11
REMARK   10  A    between atoms: C_18  and  O_20
REMARK   11  A    between atoms: O_20  and  C_21
REMARK   12  A    between atoms: S_29  and  C_32
REMARK                            x       y       z     vdW  Elec       q    Type
REMARK                         _______ _______ _______ _____ _____    ______ ____
ROOT
ATOM      1  C   UNL     1       3.086   5.597  -6.039  0.00  0.00    +0.135 C 
ENDROOT
BRANCH   1   2
ATOM      2  N   UNL     1       2.079   4.470  -5.681  0.00  0.00    -0.167 NA
ATOM      3  C   UNL     1       0.880   5.038  -5.296  0.00  0.00    +0.421 C 
ATOM      4  O   UNL     1       0.216   4.857  -6.350  0.00  0.00    -0.225 OA
BRANCH   3   5
ATOM      5  O   UNL     1      -0.035   5.042  -4.339  0.00  0.00    -0.435 OA
BRANCH   5   6
ATOM      6  C   UNL     1      -0.095   6.179  -3.320  0.00  0.00    +0.205 C 
ATOM      7  C   UNL     1      -1.374   5.576  -2.388  0.00  0.00    +0.102 C 
ATOM      8  C   UNL     1      -1.713   7.222  -2.078  0.00  0.00    +0.239 C 
ATOM      9  O   UNL     1      -3.147   6.845  -1.733  0.00  0.00    -0.330 OA
ATOM     10  C   UNL     1      -3.595   6.168  -2.804  0.00  0.00    +0.145 C 
ATOM     11  O   UNL     1      -2.060   7.511  -3.529  0.00  0.00    -0.327 OA
ATOM     12  C   UNL     1      -2.509   5.430  -3.503  0.00  0.00    +0.041 C 
ATOM     13  C   UNL     1      -1.064   7.090  -4.264  0.00  0.00    +0.188 C 
ENDBRANCH   5   6
ENDBRANCH   3   5
ENDBRANCH   1   2
BRANCH   1  14
ATOM     14  C   UNL     1       3.507   5.035  -7.613  0.00  0.00    +0.190 C 
ATOM     15  O   UNL     1       4.913   5.579  -7.630  0.00  0.00    -0.220 OA
BRANCH  14  16
ATOM     16  C   UNL     1       2.907   6.395  -8.300  0.00  0.00    +0.130 C 
BRANCH  16  17
ATOM     17  N   UNL     1       2.693   6.175  -9.657  0.00  0.00    -0.153 NA
BRANCH  17  18
ATOM     18  S   UNL     1       1.212   5.550 -10.156  0.00  0.00    +0.063 S 
ATOM     19  O   UNL     1       0.158   6.073  -9.204  0.00  0.00    -0.153 OA
ATOM     20  O   UNL     1       1.318   4.044 -10.032  0.00  0.00    -0.153 OA
BRANCH  18  21
ATOM     21  C   UNL     1       0.816   5.952 -11.797  0.00  0.00    +0.122 A 
ATOM     22  C   UNL     1       0.338   7.165 -12.222  0.00  0.00    +0.021 A 
ATOM     23  C   UNL     1       0.477   7.454 -13.575  0.00  0.00    +0.019 A 
ATOM     24  C   UNL     1       0.981   6.513 -14.465  0.00  0.00    +0.089 A 
ATOM     25  N   UNL     1       1.614   6.871 -15.687  0.00  0.00    -0.128 NA
ATOM     26  C   UNL     1       0.869   5.190 -14.074  0.00  0.00    +0.019 A 
ATOM     27  C   UNL     1       0.773   4.924 -12.732  0.00  0.00    +0.021 A 
ENDBRANCH  18  21
ENDBRANCH  17  18
BRANCH  17  28
ATOM     28  C   UNL     1       3.565   6.699 -10.618  0.00  0.00    +0.096 C 
BRANCH  28  30
ATOM     29  C   UNL     1       4.840   5.176 -10.970  0.00  0.00    +0.001 C 
ATOM     30  C   UNL     1       4.396   5.641 -11.321  0.00  0.00    +0.018 C 
ATOM     31  C   UNL     1       4.313   5.805 -12.824  0.00  0.00    +0.001 C 
ENDBRANCH  28  30
ENDBRANCH  17  28
ENDBRANCH  16  17
ENDBRANCH  14  16
ENDBRANCH   1  14
BRANCH   1  32
ATOM     32  C   UNL     1       4.340   4.922  -5.242  0.00  0.00    +0.051 C 
BRANCH  32  33
ATOM     33  C   UNL     1       4.696   5.727  -4.092  0.00  0.00    -0.020 A 
ATOM     34  C   UNL     1       4.819   7.103  -4.254  0.00  0.00    -0.004 A 
ATOM     35  C   UNL     1       4.680   7.994  -3.228  0.00  0.00    -0.000 A 
ATOM     36  C   UNL     1       4.511   7.521  -1.951  0.00  0.00    -0.000 A 
ATOM     37  C   UNL     1       4.017   6.231  -1.828  0.00  0.00    -0.000 A 
ATOM     38  C   UNL     1       4.270   5.333  -2.839  0.00  0.00    -0.004 A 
ENDBRANCH  32  33
ENDBRANCH   1  32
TORSDOF 12
ENDMDL
MODEL 4
REMARK VINA RESULT:      -8.8      1.363      2.248
REMARK  Name = 
REMARK  12 active torsions:
REMARK  status: ('A' for Active; 'I' for Inactive)
REMARK    1  A    between atoms: C_2  and  C_4
REMARK    2  A    between atoms: C_4  and  N_5
REMARK    3  A    between atoms: N_5  and  C_6
REMARK    4  A    between atoms: N_5  and  S_29
REMARK    5  A    between atoms: C_6  and  C_7
REMARK    6  A    between atoms: C_7  and  C_9
REMARK    7  A    between atoms: C_9  and  C_10
REMARK    8  A    between atoms: C_9  and  N_17
REMARK    9  A    between atoms: C_10  and  C_11
REMARK   10  A    between atoms: C_18  and  O_20
REMARK   11  A    between atoms: O_20  and  C_21
REMARK   12  A    between atoms: S_29  and  C_32
REMARK                            x       y       z     vdW  Elec       q    Type
REMARK                         _______ _______ _______ _____ _____    ______ ____
ROOT
ATOM      1  C   UNL     1       1.464   5.521  -9.434  0.00  0.00    +0.135 C 
ENDROOT
BRANCH   1   2
ATOM      2  N   UNL     1       2.669   4.543  -9.494  0.00  0.00    -0.167 NA
ATOM      3  C   UNL     1       3.780   5.221  -9.959  0.00  0.00    +0.421 C 
ATOM      4  O   UNL     1       4.388   5.396  -8.871  0.00  0.00    -0.225 OA
BRANCH   3   5
ATOM      5  O   UNL     1       4.748   5.181 -10.862  0.00  0.00    -0.435 OA
BRANCH   5   6
ATOM      6  C   UNL     1       4.721   6.107 -12.077  0.00  0.00    +0.205 C 
ATOM      7  C   UNL     1       5.897   5.305 -12.994  0.00  0.00    +0.102 C 
ATOM      8  C   UNL     1       6.223   6.855 -13.637  0.00  0.00    +0.239 C 
ATOM      9  O   UNL     1       7.612   6.379 -14.038  0.00  0.00    -0.330 OA
ATOM     10  C   UNL     1       8.154   5.899 -12.905  0.00  0.00    +0.145 C 
ATOM     11  O   UNL     1       6.712   7.398 -12.306  0.00  0.00    -0.327 OA
ATOM     12  C   UNL     1       7.133   5.335 -11.983  0.00  0.00    +0.041 C 
ATOM     13  C   UNL     1       5.787   7.149 -11.415  0.00  0.00    +0.188 C 
ENDBRANCH   5   6
ENDBRANCH   3   5
ENDBRANCH   1   2
BRANCH   1  14
ATOM     14  C   UNL     1       0.792   4.963  -7.948  0.00  0.00    +0.190 C 
ATOM     15  O   UNL     1      -0.514   5.711  -8.047  0.00  0.00    -0.220 OA
BRANCH  14  16
ATOM     16  C   UNL     1       1.501   6.187  -7.124  0.00  0.00    +0.130 C 
BRANCH  16  17
ATOM     17  N   UNL     1       1.813   5.761  -5.837  0.00  0.00    -0.153 NA
BRANCH  17  18
ATOM     18  S   UNL     1       0.723   6.069  -4.592  0.00  0.00    +0.063 S 
ATOM     19  O   UNL     1      -0.381   5.038  -4.694  0.00  0.00    -0.153 OA
ATOM     20  O   UNL     1       0.161   7.453  -4.845  0.00  0.00    -0.153 OA
BRANCH  18  21
ATOM     21  C   UNL     1       1.454   6.038  -3.018  0.00  0.00    +0.122 A 
ATOM     22  C   UNL     1       1.132   5.162  -2.013  0.00  0.00    +0.021 A 
ATOM     23  C   UNL     1       2.073   4.994  -1.004  0.00  0.00    +0.019 A 
ATOM     24  C   UNL     1       3.234   5.758  -0.966  0.00  0.00    +0.089 A 
ATOM     25  N   UNL     1       4.423   5.321  -0.321  0.00  0.00    -0.128 NA
ATOM     26  C   UNL     1       3.184   6.968  -1.636  0.00  0.00    +0.019 A 
ATOM     27  C   UNL     1       2.275   7.099  -2.656  0.00  0.00    +0.021 A 
ENDBRANCH  18  21
ENDBRANCH  17  18
BRANCH  17  28
ATOM     28  C   UNL     1       2.867   4.869  -5.609  0.00  0.00    +0.096 C 
BRANCH  28  30
ATOM     29  C   UNL     1       4.437   6.134  -5.572  0.00  0.00    +0.001 C 
ATOM     30  C   UNL     1       4.165   5.552  -5.220  0.00  0.00    +0.018 C 
ATOM     31  C   UNL     1       4.882   4.766  -4.143  0.00  0.00    +0.001 C 
ENDBRANCH  28  30
ENDBRANCH  17  28
ENDBRANCH  16  17
ENDBRANCH  14  16
ENDBRANCH   1  14
BRANCH   1  32
ATOM     32  C   UNL     1       0.518   4.637 -10.427  0.00  0.00    +0.051 C 
BRANCH  32  33
ATOM     33  C   UNL     1       0.229   5.378 -11.638  0.00  0.00    -0.020 A 
ATOM     34  C   UNL     1      -0.042   6.739 -11.536  0.00  0.00    -0.004 A 
ATOM     35  C   UNL     1       0.134   7.617 -12.568  0.00  0.00    -0.000 A 
ATOM     36  C   UNL     1       0.502   7.136 -13.800  0.00  0.00    -0.000 A 
ATOM     37  C   UNL     1       1.127   5.898 -13.820  0.00  0.00    -0.000 A 
ATOM     38  C   UNL     1       0.840   5.002 -12.818  0.00  0.00    -0.004 A 
ENDBRANCH  32  33
ENDBRANCH   1  32
TORSDOF 12
ENDMDL
MODEL 5
REMARK VINA RESULT:      -8.8      2.638      9.355
REMARK  Name = 
REMARK  12 active torsions:
REMARK  status: ('A' for Active; 'I' for Inactive)
REMARK    1  A    between atoms: C_2  and  C_4
REMARK    2  A    between atoms: C_4  and  N_5
REMARK    3  A    between atoms: N_5  and  C_6
REMARK    4  A    between atoms: N_5  and  S_29
REMARK    5  A    between atoms: C_6  and  C_7
REMARK    6  A    between atoms: C_7  and  C_9
REMARK    7  A    between atoms: C_9  and  C_10
REMARK    8  A    between atoms: C_9  and  N_17
REMARK    9  A    between atoms: C_10  and  C_11
REMARK   10  A    between atoms: C_18  and  O_20
REMARK   11  A    between atoms: O_20  and  C_21
REMARK   12  A    between atoms: S_29  and  C_32
REMARK                            x       y       z     vdW  Elec       q    Type
REMARK                         _______ _______ _______ _____ _____    ______ ____
ROOT
ATOM      1  C   UNL     1       3.944   6.281  -7.928  0.00  0.00    +0.135 C 
ENDROOT
BRANCH   1   2
ATOM      2  N   UNL     1       2.433   6.000  -8.152  0.00  0.00    -0.167 NA
ATOM      3  C   UNL     1       1.689   6.926  -7.446  0.00  0.00    +0.421 C 
ATOM      4  O   UNL     1       1.359   7.691  -8.389  0.00  0.00    -0.225 OA
BRANCH   3   5
ATOM      5  O   UNL     1       0.702   7.052  -6.573  0.00  0.00    -0.435 OA
BRANCH   5   6
ATOM      6  C   UNL     1       0.256   5.864  -5.722  0.00  0.00    +0.205 C 
ATOM      7  C   UNL     1      -1.358   6.334  -5.511  0.00  0.00    +0.102 C 
ATOM      8  C   UNL     1      -1.241   5.495  -4.027  0.00  0.00    +0.239 C 
ATOM      9  O   UNL     1      -2.411   6.309  -3.493  0.00  0.00    -0.330 OA
ATOM     10  C   UNL     1      -2.050   7.592  -3.669  0.00  0.00    +0.145 C 
ATOM     11  O   UNL     1      -0.214   6.463  -3.463  0.00  0.00    -0.327 OA
ATOM     12  C   UNL     1      -1.162   7.774  -4.848  0.00  0.00    +0.041 C 
ATOM     13  C   UNL     1       0.757   6.558  -4.334  0.00  0.00    +0.188 C 
ENDBRANCH   5   6
ENDBRANCH   3   5
ENDBRANCH   1   2
BRANCH   1  14
ATOM     14  C   UNL     1       4.537   5.479  -9.333  0.00  0.00    +0.190 C 
ATOM     15  O   UNL     1       6.001   5.551  -8.979  0.00  0.00    -0.220 OA
BRANCH  14  16
ATOM     16  C   UNL     1       4.604   6.892 -10.158  0.00  0.00    +0.130 C 
BRANCH  16  17
ATOM     17  N   UNL     1       5.203   6.680 -11.395  0.00  0.00    -0.153 NA
BRANCH  17  18
ATOM     18  S   UNL     1       4.350   5.840 -12.578  0.00  0.00    +0.063 S 
ATOM     19  O   UNL     1       4.749   4.384 -12.472  0.00  0.00    -0.153 OA
ATOM     20  O   UNL     1       4.799   6.402 -13.911  0.00  0.00    -0.153 OA
BRANCH  18  21
ATOM     21  C   UNL     1       2.630   6.021 -12.441  0.00  0.00    +0.122 A 
ATOM     22  C   UNL     1       1.832   5.354 -11.548  0.00  0.00    +0.021 A 
ATOM     23  C   UNL     1       0.585   5.910 -11.284  0.00  0.00    +0.019 A 
ATOM     24  C   UNL     1       0.135   7.029 -11.974  0.00  0.00    +0.089 A 
ATOM     25  N   UNL     1      -0.832   7.925 -11.441  0.00  0.00    -0.128 NA
ATOM     26  C   UNL     1       0.716   7.252 -13.210  0.00  0.00    +0.019 A 
ATOM     27  C   UNL     1       1.964   6.728 -13.436  0.00  0.00    +0.021 A 
ENDBRANCH  18  21
ENDBRANCH  17  18
BRANCH  17  28
ATOM     28  C   UNL     1       6.368   7.366 -11.758  0.00  0.00    +0.096 C 
BRANCH  28  30
ATOM     29  C   UNL     1       8.020   6.385 -11.143  0.00  0.00    +0.001 C 
ATOM     30  C   UNL     1       7.611   6.496 -11.741  0.00  0.00    +0.018 C 
ATOM     31  C   UNL     1       7.972   6.048 -13.141  0.00  0.00    +0.001 C 
ENDBRANCH  28  30
ENDBRANCH  17  28
ENDBRANCH  16  17
ENDBRANCH  14  16
ENDBRANCH   1  14
BRANCH   1  32
ATOM     32  C   UNL     1       4.162   5.046  -6.884  0.00  0.00    +0.051 C 
BRANCH  32  33
ATOM     33  C   UNL     1       4.605   5.546  -5.598  0.00  0.00    -0.020 A 
ATOM     34  C   UNL     1       4.624   6.921  -5.390  0.00  0.00    -0.004 A 
ATOM     35  C   UNL     1       4.556   7.492  -4.151  0.00  0.00    -0.000 A 
ATOM     36  C   UNL     1       4.569   6.685  -3.041  0.00  0.00    -0.000 A 
ATOM     37  C   UNL     1       4.172   5.370  -3.228  0.00  0.00    -0.000 A 
ATOM     38  C   UNL     1       4.355   4.798  -4.464  0.00  0.00    -0.004 A 
ENDBRANCH  32  33
ENDBRANCH   1  32
TORSDOF 12
ENDMDL
MODEL 6
REMARK VINA RESULT:      -8.7      2.463      4.353
REMARK  Name = 
REMARK  12 active torsions:
REMARK  status: ('A' for Active; 'I' for Inactive)
REMARK    1  A    between atoms: C_2  and  C_4
REMARK    2  A    between atoms: C_4  and  N_5
REMARK    3  A    between atoms: N_5  and  C_6
REMARK    4  A    between atoms: N_5  and  S_29
REMARK    5  A    between atoms: C_6  and  C_7
REMARK    6  A    between atoms: C_7  and  C_9
REMARK    7  A    between atoms: C_9  and  C_10
REMARK    8  A    between atoms: C_9  and  N_17
REMARK    9  A    between atoms: C_10  and  C_11
REMARK   10  A    between atoms: C_18  and  O_20
REMARK   11  A    between atoms: O_20  and  C_21
REMARK   12  A    between atoms: S_29  and  C_32
REMARK                            x       y       z     vdW  Elec       q    Type
REMARK                         _______ _______ _______ _____ _____    ______ ____
ROOT
ATOM      1  C   UNL     1       2.168   6.206  -7.832  0.00  0.00    +0.135 C 
ENDROOT
BRANCH   1   2
ATOM      2  N   UNL     1       0.836   6.442  -8.595  0.00  0.00    -0.167 NA
ATOM      3  C   UNL     1       0.832   5.680  -9.748  0.00  0.00    +0.421 C 
ATOM      4  O   UNL     1       0.081   4.742  -9.375  0.00  0.00    -0.225 OA
BRANCH   3   5
ATOM      5  O   UNL     1       0.646   5.737 -11.058  0.00  0.00    -0.435 OA
BRANCH   5   6
ATOM      6  C   UNL     1       1.702   5.196 -12.020  0.00  0.00    +0.205 C 
ATOM      7  C   UNL     1       1.980   6.631 -12.875  0.00  0.00    +0.102 C 
ATOM      8  C   UNL     1       2.347   5.593 -14.182  0.00  0.00    +0.239 C 
ATOM      9  O   UNL     1       2.060   6.734 -15.149  0.00  0.00    -0.330 OA
ATOM     10  C   UNL     1       0.820   7.148 -14.835  0.00  0.00    +0.145 C 
ATOM     11  O   UNL     1       0.927   5.062 -14.270  0.00  0.00    -0.327 OA
ATOM     12  C   UNL     1       0.505   6.957 -13.395  0.00  0.00    +0.041 C 
ATOM     13  C   UNL     1       0.585   4.651 -13.076  0.00  0.00    +0.188 C 
ENDBRANCH   5   6
ENDBRANCH   3   5
ENDBRANCH   1   2
BRANCH   1  14
ATOM     14  C   UNL     1       1.877   7.290  -6.524  0.00  0.00    +0.190 C 
ATOM     15  O   UNL     1       3.294   7.339  -6.010  0.00  0.00    -0.220 OA
BRANCH  14  16
ATOM     16  C   UNL     1       1.493   6.047  -5.529  0.00  0.00    +0.130 C 
BRANCH  16  17
ATOM     17  N   UNL     1       0.445   6.425  -4.697  0.00  0.00    -0.153 NA
BRANCH  17  18
ATOM     18  S   UNL     1       0.503   5.995  -3.070  0.00  0.00    +0.063 S 
ATOM     19  O   UNL     1      -0.008   4.574  -2.962  0.00  0.00    -0.153 OA
ATOM     20  O   UNL     1      -0.434   6.937  -2.343  0.00  0.00    -0.153 OA
BRANCH  18  21
ATOM     21  C   UNL     1       2.090   6.135  -2.381  0.00  0.00    +0.122 A 
ATOM     22  C   UNL     1       2.861   7.268  -2.394  0.00  0.00    +0.021 A 
ATOM     23  C   UNL     1       3.886   7.340  -1.456  0.00  0.00    +0.019 A 
ATOM     24  C   UNL     1       4.174   6.267  -0.621  0.00  0.00    +0.089 A 
ATOM     25  N   UNL     1       4.807   6.423   0.643  0.00  0.00    -0.128 NA
ATOM     26  C   UNL     1       3.768   5.023  -1.072  0.00  0.00    +0.019 A 
ATOM     27  C   UNL     1       2.729   4.973  -1.966  0.00  0.00    +0.021 A 
ENDBRANCH  18  21
ENDBRANCH  17  18
BRANCH  17  28
ATOM     28  C   UNL     1      -0.506   7.363  -5.115  0.00  0.00    +0.096 C 
BRANCH  28  30
ATOM     29  C   UNL     1      -2.486   6.984  -5.078  0.00  0.00    +0.001 C 
ATOM     30  C   UNL     1      -1.868   6.758  -5.399  0.00  0.00    +0.018 C 
ATOM     31  C   UNL     1      -1.738   5.534  -6.281  0.00  0.00    +0.001 C 
ENDBRANCH  28  30
ENDBRANCH  17  28
ENDBRANCH  16  17
ENDBRANCH  14  16
ENDBRANCH   1  14
BRANCH   1  32
ATOM     32  C   UNL     1       3.039   7.232  -8.754  0.00  0.00    +0.051 C 
BRANCH  32  33
ATOM     33  C   UNL     1       4.124   6.526  -9.404  0.00  0.00    -0.020 A 
ATOM     34  C   UNL     1       4.795   7.153 -10.449  0.00  0.00    -0.004 A 
ATOM     35  C   UNL     1       6.072   6.836 -10.817  0.00  0.00    -0.000 A 
ATOM     36  C   UNL     1       6.703   5.783 -10.203  0.00  0.00    -0.000 A 
ATOM     37  C   UNL     1       6.223   5.417  -8.954  0.00  0.00    -0.000 A 
ATOM     38  C   UNL     1       4.902   5.659  -8.661  0.00  0.00    -0.004 A 
ENDBRANCH  32  33
ENDBRANCH   1  32
TORSDOF 12
ENDMDL
MODEL 7
REMARK VINA RESULT:      -8.7      2.646      8.864
REMARK  Name = 
REMARK  12 active torsions:
REMARK  status: ('A' for Active; 'I' for Inactive)
REMARK    1  A    between atoms: C_2  and  C_4
REMARK    2  A    between atoms: C_4  and  N_5
REMARK    3  A    between atoms: N_5  and  C_6
REMARK    4  A    between atoms: N_5  and  S_29
REMARK    5  A    between atoms: C_6  and  C_7
REMARK    6  A    between atoms: C_7  and  C_9
REMARK    7  A    between atoms: C_9  and  C_10
REMARK    8  A    between atoms: C_9  and  N_17
REMARK    9  A    between atoms: C_10  and  C_11
REMARK   10  A    between atoms: C_18  and  O_20
REMARK   11  A    between atoms: O_20  and  C_21
REMARK   12  A    between atoms: S_29  and  C_32
REMARK                            x       y       z     vdW  Elec       q    Type
REMARK                         _______ _______ _______ _____ _____    ______ ____
ROOT
ATOM      1  C   UNL     1       0.015   6.088  -5.435  0.00  0.00    +0.135 C 
ENDROOT
BRANCH   1   2
ATOM      2  N   UNL     1       1.428   6.656  -5.132  0.00  0.00    -0.167 NA
ATOM      3  C   UNL     1       1.772   6.345  -3.830  0.00  0.00    +0.421 C 
ATOM      4  O   UNL     1       2.555   5.384  -4.045  0.00  0.00    -0.225 OA
BRANCH   3   5
ATOM      5  O   UNL     1       2.210   6.866  -2.694  0.00  0.00    -0.435 OA
BRANCH   5   6
ATOM      6  C   UNL     1       3.593   6.506  -2.152  0.00  0.00    +0.205 C 
ATOM      7  C   UNL     1       3.121   6.124  -0.572  0.00  0.00    +0.102 C 
ATOM      8  C   UNL     1       4.689   6.655  -0.146  0.00  0.00    +0.239 C 
ATOM      9  O   UNL     1       4.202   6.900   1.276  0.00  0.00    -0.330 OA
ATOM     10  C   UNL     1       3.138   7.710   1.143  0.00  0.00    +0.145 C 
ATOM     11  O   UNL     1       4.410   8.087  -0.568  0.00  0.00    -0.327 OA
ATOM     12  C   UNL     1       2.412   7.488  -0.136  0.00  0.00    +0.041 C 
ATOM     13  C   UNL     1       3.949   8.056  -1.791  0.00  0.00    +0.188 C 
ENDBRANCH   5   6
ENDBRANCH   3   5
ENDBRANCH   1   2
BRANCH   1  14
ATOM     14  C   UNL     1       0.033   6.329  -7.142  0.00  0.00    +0.190 C 
ATOM     15  O   UNL     1      -1.108   5.400  -7.469  0.00  0.00    -0.220 OA
BRANCH  14  16
ATOM     16  C   UNL     1       1.140   5.139  -7.337  0.00  0.00    +0.130 C 
BRANCH  16  17
ATOM     17  N   UNL     1       1.908   5.398  -8.467  0.00  0.00    -0.153 NA
BRANCH  17  18
ATOM     18  S   UNL     1       3.201   6.469  -8.344  0.00  0.00    +0.063 S 
ATOM     19  O   UNL     1       3.790   6.306  -6.959  0.00  0.00    -0.153 OA
ATOM     20  O   UNL     1       2.622   7.860  -8.499  0.00  0.00    -0.153 OA
BRANCH  18  21
ATOM     21  C   UNL     1       4.412   6.224  -9.563  0.00  0.00    +0.122 A 
ATOM     22  C   UNL     1       4.270   6.529 -10.892  0.00  0.00    +0.021 A 
ATOM     23  C   UNL     1       5.439   6.671 -11.631  0.00  0.00    +0.019 A 
ATOM     24  C   UNL     1       6.683   6.411 -11.067  0.00  0.00    +0.089 A 
ATOM     25  N   UNL     1       7.885   7.000 -11.549  0.00  0.00    -0.128 NA
ATOM     26  C   UNL     1       6.686   5.569  -9.969  0.00  0.00    +0.019 A 
ATOM     27  C   UNL     1       5.534   5.475  -9.230  0.00  0.00    +0.021 A 
ENDBRANCH  18  21
ENDBRANCH  17  18
BRANCH  17  28
ATOM     28  C   UNL     1       1.794   4.603  -9.614  0.00  0.00    +0.096 C 
BRANCH  28  30
ATOM     29  C   UNL     1       0.111   4.418 -10.710  0.00  0.00    +0.001 C 
ATOM     30  C   UNL     1       0.573   4.926 -10.455  0.00  0.00    +0.018 C 
ATOM     31  C   UNL     1       0.551   6.393 -10.828  0.00  0.00    +0.001 C 
ENDBRANCH  28  30
ENDBRANCH  17  28
ENDBRANCH  16  17
ENDBRANCH  14  16
ENDBRANCH   1  14
BRANCH   1  32
ATOM     32  C   UNL     1      -0.775   7.462  -5.046  0.00  0.00    +0.051 C 
BRANCH  32  33
ATOM     33  C   UNL     1      -1.913   7.166  -4.201  0.00  0.00    -0.020 A 
ATOM     34  C   UNL     1      -2.536   5.929  -4.333  0.00  0.00    -0.004 A 
ATOM     35  C   UNL     1      -3.269   5.349  -3.337  0.00  0.00    -0.000 A 
ATOM     36  C   UNL     1      -3.496   6.050  -2.179  0.00  0.00    -0.000 A 
ATOM     37  C   UNL     1      -2.601   7.069  -1.887  0.00  0.00    -0.000 A 
ATOM     38  C   UNL     1      -1.962   7.699  -2.928  0.00  0.00    -0.004 A 
ENDBRANCH  32  33
ENDBRANCH   1  32
TORSDOF 12
ENDMDL
MODEL 8
REMARK VINA RESULT:      -8.6      2.904      8.086
REMARK  Name = 
REMARK  12 active torsions:
REMARK  status: ('A' for Active; 'I' for Inactive)
REMARK    1  A    between atoms: C_2  and  C_4
REMARK    2  A    between atoms: C_4  and  N_5
REMARK    3  A    between atoms: N_5  and  C_6
REMARK    4  A    between atoms: N_5  and  S_29
REMARK    5  A    between atoms: C_6  and  C_7
REMARK    6  A    between atoms: C_7  and  C_9
REMARK    7  A    between atoms: C_9  and  C_10
REMARK    8  A    between atoms: C_9  and  N_17
REMARK    9  A    between atoms: C_10  and  C_11
REMARK   10  A    between atoms: C_18  and  O_20
REMARK   11  A    between atoms: O_20  and  C_21
REMARK   12  A    between atoms: S_29  and  C_32
REMARK                            x       y       z     vdW  Elec       q    Type
REMARK                         _______ _______ _______ _____ _____    ______ ____
ROOT
ATOM      1  C   UNL     1       2.130   5.909  -9.143  0.00  0.00    +0.135 C 
ENDROOT
BRANCH   1   2
ATOM      2  N   UNL     1       3.589   6.253  -8.739  0.00  0.00    -0.167 NA
ATOM      3  C   UNL     1       4.000   5.388  -7.743  0.00  0.00    +0.421 C 
ATOM      4  O   UNL     1       4.711   4.606  -8.425  0.00  0.00    -0.225 OA
BRANCH   3   5
ATOM      5  O   UNL     1       4.540   5.339  -6.535  0.00  0.00    -0.435 OA
BRANCH   5   6
ATOM      6  C   UNL     1       3.668   5.138  -5.296  0.00  0.00    +0.205 C 
ATOM      7  C   UNL     1       3.479   6.770  -4.889  0.00  0.00    +0.102 C 
ATOM      8  C   UNL     1       3.358   6.191  -3.286  0.00  0.00    +0.239 C 
ATOM      9  O   UNL     1       3.754   7.569  -2.774  0.00  0.00    -0.330 OA
ATOM     10  C   UNL     1       4.914   7.848  -3.394  0.00  0.00    +0.145 C 
ATOM     11  O   UNL     1       4.792   5.690  -3.268  0.00  0.00    -0.327 OA
ATOM     12  C   UNL     1       5.005   7.217  -4.738  0.00  0.00    +0.041 C 
ATOM     13  C   UNL     1       4.956   4.927  -4.318  0.00  0.00    +0.188 C 
ENDBRANCH   5   6
ENDBRANCH   3   5
ENDBRANCH   1   2
BRANCH   1  14
ATOM     14  C   UNL     1       2.038   6.910 -10.543  0.00  0.00    +0.190 C 
ATOM     15  O   UNL     1       0.558   6.752 -10.783  0.00  0.00    -0.220 OA
BRANCH  14  16
ATOM     16  C   UNL     1       2.396   5.645 -11.518  0.00  0.00    +0.130 C 
BRANCH  16  17
ATOM     17  N   UNL     1       2.730   6.114 -12.784  0.00  0.00    -0.153 NA
BRANCH  17  18
ATOM     18  S   UNL     1       4.201   5.653 -13.460  0.00  0.00    +0.063 S 
ATOM     19  O   UNL     1       4.320   6.350 -14.798  0.00  0.00    -0.153 OA
ATOM     20  O   UNL     1       4.130   4.154 -13.663  0.00  0.00    -0.153 OA
BRANCH  18  21
ATOM     21  C   UNL     1       5.564   6.020 -12.449  0.00  0.00    +0.122 A 
ATOM     22  C   UNL     1       5.693   7.140 -11.670  0.00  0.00    +0.021 A 
ATOM     23  C   UNL     1       6.613   7.077 -10.629  0.00  0.00    +0.019 A 
ATOM     24  C   UNL     1       7.433   5.967 -10.459  0.00  0.00    +0.089 A 
ATOM     25  N   UNL     1       7.990   5.607  -9.201  0.00  0.00    -0.128 NA
ATOM     26  C   UNL     1       7.648   5.195 -11.587  0.00  0.00    +0.019 A 
ATOM     27  C   UNL     1       6.708   5.242 -12.585  0.00  0.00    +0.021 A 
ENDBRANCH  18  21
ENDBRANCH  17  18
BRANCH  17  28
ATOM     28  C   UNL     1       1.774   6.731 -13.600  0.00  0.00    +0.096 C 
BRANCH  28  30
ATOM     29  C   UNL     1       0.880   5.029 -14.209  0.00  0.00    +0.001 C 
ATOM     30  C   UNL     1       0.892   5.748 -14.347  0.00  0.00    +0.018 C 
ATOM     31  C   UNL     1       0.195   6.428 -15.507  0.00  0.00    +0.001 C 
ENDBRANCH  28  30
ENDBRANCH  17  28
ENDBRANCH  16  17
ENDBRANCH  14  16
ENDBRANCH   1  14
BRANCH   1  32
ATOM     32  C   UNL     1       1.446   6.961  -8.098  0.00  0.00    +0.051 C 
BRANCH  32  33
ATOM     33  C   UNL     1       0.591   6.257  -7.164  0.00  0.00    -0.020 A 
ATOM     34  C   UNL     1       0.291   6.864  -5.949  0.00  0.00    -0.004 A 
ATOM     35  C   UNL     1      -0.821   6.562  -5.215  0.00  0.00    -0.000 A 
ATOM     36  C   UNL     1      -1.640   5.543  -5.631  0.00  0.00    -0.000 A 
ATOM     37  C   UNL     1      -1.577   5.207  -6.975  0.00  0.00    -0.000 A 
ATOM     38  C   UNL     1      -0.402   5.430  -7.653  0.00  0.00    -0.004 A 
ENDBRANCH  32  33
ENDBRANCH   1  32
TORSDOF 12
ENDMDL
MODEL 9
REMARK VINA RESULT:      -8.5      2.547      9.933
REMARK  Name = 
REMARK  12 active torsions:
REMARK  status: ('A' for Active; 'I' for Inactive)
REMARK    1  A    between atoms: C_2  and  C_4
REMARK    2  A    between atoms: C_4  and  N_5
REMARK    3  A    between atoms: N_5  and  C_6
REMARK    4  A    between atoms: N_5  and  S_29
REMARK    5  A    between atoms: C_6  and  C_7
REMARK    6  A    between atoms: C_7  and  C_9
REMARK    7  A    between atoms: C_9  and  C_10
REMARK    8  A    between atoms: C_9  and  N_17
REMARK    9  A    between atoms: C_10  and  C_11
REMARK   10  A    between atoms: C_18  and  O_20
REMARK   11  A    between atoms: O_20  and  C_21
REMARK   12  A    between atoms: S_29  and  C_32
REMARK                            x       y       z     vdW  Elec       q    Type
REMARK                         _______ _______ _______ _____ _____    ______ ____
ROOT
ATOM      1  C   UNL     1       3.118   5.774  -5.631  0.00  0.00    +0.135 C 
ENDROOT
BRANCH   1   2
ATOM      2  N   UNL     1       2.167   4.597  -5.283  0.00  0.00    -0.167 NA
ATOM      3  C   UNL     1       0.903   5.095  -5.029  0.00  0.00    +0.421 C 
ATOM      4  O   UNL     1       0.342   4.806  -6.118  0.00  0.00    -0.225 OA
BRANCH   3   5
ATOM      5  O   UNL     1      -0.086   5.084  -4.149  0.00  0.00    -0.435 OA
BRANCH   5   6
ATOM      6  C   UNL     1      -0.233   6.209  -3.126  0.00  0.00    +0.205 C 
ATOM      7  C   UNL     1      -1.576   5.587  -2.302  0.00  0.00    +0.102 C 
ATOM      8  C   UNL     1      -1.950   7.228  -2.002  0.00  0.00    +0.239 C 
ATOM      9  O   UNL     1      -3.404   6.838  -1.773  0.00  0.00    -0.330 OA
ATOM     10  C   UNL     1      -3.762   6.169  -2.883  0.00  0.00    +0.145 C 
ATOM     11  O   UNL     1      -2.186   7.531  -3.472  0.00  0.00    -0.327 OA
ATOM     12  C   UNL     1      -2.620   5.446  -3.503  0.00  0.00    +0.041 C 
ATOM     13  C   UNL     1      -1.132   7.124  -4.132  0.00  0.00    +0.188 C 
ENDBRANCH   5   6
ENDBRANCH   3   5
ENDBRANCH   1   2
BRANCH   1  14
ATOM     14  C   UNL     1       3.800   5.101  -7.063  0.00  0.00    +0.190 C 
ATOM     15  O   UNL     1       5.062   5.926  -7.069  0.00  0.00    -0.220 OA
BRANCH  14  16
ATOM     16  C   UNL     1       3.010   6.190  -7.997  0.00  0.00    +0.130 C 
BRANCH  16  17
ATOM     17  N   UNL     1       2.800   5.652  -9.262  0.00  0.00    -0.153 NA
BRANCH  17  18
ATOM     18  S   UNL     1       3.881   6.028 -10.495  0.00  0.00    +0.063 S 
ATOM     19  O   UNL     1       5.055   5.080 -10.370  0.00  0.00    -0.153 OA
ATOM     20  O   UNL     1       4.339   7.450 -10.247  0.00  0.00    -0.153 OA
BRANCH  18  21
ATOM     21  C   UNL     1       3.176   5.933 -12.078  0.00  0.00    +0.122 A 
ATOM     22  C   UNL     1       3.685   5.215 -13.129  0.00  0.00    +0.021 A 
ATOM     23  C   UNL     1       2.805   4.904 -14.160  0.00  0.00    +0.019 A 
ATOM     24  C   UNL     1       1.503   5.391 -14.167  0.00  0.00    +0.089 A 
ATOM     25  N   UNL     1       0.441   4.741 -14.854  0.00  0.00    -0.128 NA
ATOM     26  C   UNL     1       1.282   6.538 -13.425  0.00  0.00    +0.019 A 
ATOM     27  C   UNL     1       2.138   6.804 -12.387  0.00  0.00    +0.021 A 
ENDBRANCH  18  21
ENDBRANCH  17  18
BRANCH  17  28
ATOM     28  C   UNL     1       1.880   4.616  -9.461  0.00  0.00    +0.096 C 
BRANCH  28  30
ATOM     29  C   UNL     1       0.132   5.622  -9.476  0.00  0.00    +0.001 C 
ATOM     30  C   UNL     1       0.495   5.103  -9.844  0.00  0.00    +0.018 C 
ATOM     31  C   UNL     1      -0.081   4.257 -10.960  0.00  0.00    +0.001 C 
ENDBRANCH  28  30
ENDBRANCH  17  28
ENDBRANCH  16  17
ENDBRANCH  14  16
ENDBRANCH   1  14
BRANCH   1  32
ATOM     32  C   UNL     1       4.299   5.306  -4.606  0.00  0.00    +0.051 C 
BRANCH  32  33
ATOM     33  C   UNL     1       4.018   5.776  -3.266  0.00  0.00    -0.020 A 
ATOM     34  C   UNL     1       3.957   4.846  -2.233  0.00  0.00    -0.004 A 
ATOM     35  C   UNL     1       4.169   5.167  -0.922  0.00  0.00    -0.000 A 
ATOM     36  C   UNL     1       4.355   6.482  -0.577  0.00  0.00    -0.000 A 
ATOM     37  C   UNL     1       4.790   7.331  -1.585  0.00  0.00    -0.000 A 
ATOM     38  C   UNL     1       4.463   7.027  -2.885  0.00  0.00    -0.004 A 
ENDBRANCH  32  33
ENDBRANCH   1  32
TORSDOF 12
ENDMDL
