MODEL 1
REMARK VINA RESULT:      -7.6      0.000      0.000
REMARK  Name = 
REMARK  3 active torsions:
REMARK  status: ('A' for Active; 'I' for Inactive)
REMARK    1  A    between atoms: N_5  and  C_6
REMARK    2  A    between atoms: C_6  and  C_7
REMARK    3  A    between atoms: C_6  and  C_13
REMARK                            x       y       z     vdW  Elec       q    Type
REMARK                         _______ _______ _______ _____ _____    ______ ____
ROOT
ATOM      1  C   UNL     1       1.394   5.376  -7.003  0.00  0.00    +0.103 C 
ENDROOT
BRANCH   1   6
ATOM      2  C   UNL     1       2.051   5.757 -12.464  0.00  0.00    +0.090 C 
ATOM      3  N   UNL     1       1.786   5.523 -11.068  0.00  0.00    -0.269 NA
ATOM      4  C   UNL     1       1.132   6.685 -10.468  0.00  0.00    +0.090 C 
ATOM      5  C   UNL     1       0.606   6.196  -9.128  0.00  0.00    +0.090 C 
ATOM      6  N   UNL     1       1.747   5.885  -8.301  0.00  0.00    -0.264 NA
ATOM      7  C   UNL     1       2.680   4.981  -8.923  0.00  0.00    +0.090 C 
ATOM      8  C   UNL     1       3.030   5.353 -10.335  0.00  0.00    +0.090 C 
ENDBRANCH   1   6
BRANCH   1   9
ATOM      9  C   UNL     1       0.104   5.939  -6.508  0.00  0.00    -0.004 A 
ATOM     10  C   UNL     1      -1.023   5.133  -6.591  0.00  0.00    -0.003 A 
ATOM     11  C   UNL     1      -2.239   5.621  -6.132  0.00  0.00    -0.000 A 
ATOM     12  C   UNL     1      -2.307   6.809  -5.415  0.00  0.00    -0.000 A 
ATOM     13  C   UNL     1      -1.085   7.307  -4.987  0.00  0.00    -0.000 A 
ATOM     14  C   UNL     1       0.121   6.819  -5.433  0.00  0.00    -0.003 A 
ENDBRANCH   1   9
BRANCH   1  15
ATOM     15  C   UNL     1       2.501   5.644  -6.036  0.00  0.00    -0.004 A 
ATOM     16  C   UNL     1       3.000   4.606  -5.258  0.00  0.00    -0.003 A 
ATOM     17  C   UNL     1       4.078   4.900  -4.437  0.00  0.00    -0.000 A 
ATOM     18  C   UNL     1       4.427   6.222  -4.213  0.00  0.00    -0.000 A 
ATOM     19  C   UNL     1       4.002   7.202  -5.089  0.00  0.00    -0.000 A 
ATOM     20  C   UNL     1       3.290   6.776  -6.204  0.00  0.00    -0.003 A 
ENDBRANCH   1  15
TORSDOF 3
ENDMDL
MODEL 2
REMARK VINA RESULT:      -7.6      2.537      6.213
REMARK  Name = 
REMARK  3 active torsions:
REMARK  status: ('A' for Active; 'I' for Inactive)
REMARK    1  A    between atoms: N_5  and  C_6
REMARK    2  A    between atoms: C_6  and  C_7
REMARK    3  A    between atoms: C_6  and  C_13
REMARK                            x       y       z     vdW  Elec       q    Type
REMARK                         _______ _______ _______ _____ _____    ______ ____
ROOT
ATOM      1  C   UNL     1       1.352   5.900  -5.071  0.00  0.00    +0.103 C 
ENDROOT
BRANCH   1   6
ATOM      2  C   UNL     1       4.634   7.028  -0.787  0.00  0.00    +0.090 C 
ATOM      3  N   UNL     1       3.893   6.624  -1.954  0.00  0.00    -0.269 NA
ATOM      4  C   UNL     1       3.644   7.769  -2.826  0.00  0.00    +0.090 C 
ATOM      5  C   UNL     1       3.178   7.171  -4.144  0.00  0.00    +0.090 C 
ATOM      6  N   UNL     1       1.902   6.541  -3.907  0.00  0.00    -0.264 NA
ATOM      7  C   UNL     1       1.917   5.602  -2.816  0.00  0.00    +0.090 C 
ATOM      8  C   UNL     1       2.579   6.128  -1.576  0.00  0.00    +0.090 C 
ENDBRANCH   1   6
BRANCH   1   9
ATOM      9  C   UNL     1       2.124   6.219  -6.308  0.00  0.00    -0.004 A 
ATOM     10  C   UNL     1       2.688   5.160  -7.006  0.00  0.00    -0.003 A 
ATOM     11  C   UNL     1       3.405   5.419  -8.165  0.00  0.00    -0.000 A 
ATOM     12  C   UNL     1       3.397   6.683  -8.743  0.00  0.00    -0.000 A 
ATOM     13  C   UNL     1       2.444   7.553  -8.235  0.00  0.00    -0.000 A 
ATOM     14  C   UNL     1       1.725   7.294  -7.092  0.00  0.00    -0.003 A 
ENDBRANCH   1   9
BRANCH   1  15
ATOM     15  C   UNL     1      -0.086   6.275  -5.226  0.00  0.00    -0.004 A 
ATOM     16  C   UNL     1      -0.933   5.458  -5.965  0.00  0.00    -0.003 A 
ATOM     17  C   UNL     1      -2.272   5.819  -6.007  0.00  0.00    -0.000 A 
ATOM     18  C   UNL     1      -2.657   7.076  -5.570  0.00  0.00    -0.000 A 
ATOM     19  C   UNL     1      -1.824   7.797  -4.734  0.00  0.00    -0.000 A 
ATOM     20  C   UNL     1      -0.655   7.167  -4.324  0.00  0.00    -0.003 A 
ENDBRANCH   1  15
TORSDOF 3
ENDMDL
MODEL 3
REMARK VINA RESULT:      -7.4      2.430      6.435
REMARK  Name = 
REMARK  3 active torsions:
REMARK  status: ('A' for Active; 'I' for Inactive)
REMARK    1  A    between atoms: N_5  and  C_6
REMARK    2  A    between atoms: C_6  and  C_7
REMARK    3  A    between atoms: C_6  and  C_13
REMARK                            x       y       z     vdW  Elec       q    Type
REMARK                         _______ _______ _______ _____ _____    ______ ____
ROOT
ATOM      1  C   UNL     1       3.004   5.223  -8.573  0.00  0.00    +0.103 C 
ENDROOT
BRANCH   1   6
ATOM      2  C   UNL     1       2.984   6.060  -3.124  0.00  0.00    +0.090 C 
ATOM      3  N   UNL     1       3.130   5.755  -4.524  0.00  0.00    -0.269 NA
ATOM      4  C   UNL     1       3.213   6.984  -5.310  0.00  0.00    +0.090 C 
ATOM      5  C   UNL     1       3.701   6.544  -6.682  0.00  0.00    +0.090 C 
ATOM      6  N   UNL     1       2.662   5.738  -7.275  0.00  0.00    -0.264 NA
ATOM      7  C   UNL     1       2.228   4.650  -6.437  0.00  0.00    +0.090 C 
ATOM      8  C   UNL     1       1.955   5.054  -5.017  0.00  0.00    +0.090 C 
ENDBRANCH   1   6
BRANCH   1   9
ATOM      9  C   UNL     1       4.251   5.840  -9.114  0.00  0.00    -0.004 A 
ATOM     10  C   UNL     1       5.448   5.173  -8.888  0.00  0.00    -0.003 A 
ATOM     11  C   UNL     1       6.627   5.713  -9.383  0.00  0.00    -0.000 A 
ATOM     12  C   UNL     1       6.605   6.788 -10.263  0.00  0.00    -0.000 A 
ATOM     13  C   UNL     1       5.358   7.092 -10.788  0.00  0.00    -0.000 A 
ATOM     14  C   UNL     1       4.190   6.551 -10.305  0.00  0.00    -0.003 A 
ENDBRANCH   1   9
BRANCH   1  15
ATOM     15  C   UNL     1       1.860   5.419  -9.514  0.00  0.00    -0.004 A 
ATOM     16  C   UNL     1       1.286   4.316 -10.136  0.00  0.00    -0.003 A 
ATOM     17  C   UNL     1       0.179   4.554 -10.937  0.00  0.00    -0.000 A 
ATOM     18  C   UNL     1      -0.135   5.853 -11.303  0.00  0.00    -0.000 A 
ATOM     19  C   UNL     1       0.368   6.912 -10.572  0.00  0.00    -0.000 A 
ATOM     20  C   UNL     1       1.120   6.594  -9.448  0.00  0.00    -0.003 A 
ENDBRANCH   1  15
TORSDOF 3
ENDMDL
MODEL 4
REMARK VINA RESULT:      -7.4      1.265      4.352
REMARK  Name = 
REMARK  3 active torsions:
REMARK  status: ('A' for Active; 'I' for Inactive)
REMARK    1  A    between atoms: N_5  and  C_6
REMARK    2  A    between atoms: C_6  and  C_7
REMARK    3  A    between atoms: C_6  and  C_13
REMARK                            x       y       z     vdW  Elec       q    Type
REMARK                         _______ _______ _______ _____ _____    ______ ____
ROOT
ATOM      1  C   UNL     1       2.241   6.630  -6.793  0.00  0.00    +0.103 C 
ENDROOT
BRANCH   1   6
ATOM      2  C   UNL     1       4.831   5.308 -11.477  0.00  0.00    +0.090 C 
ATOM      3  N   UNL     1       4.292   5.738 -10.213  0.00  0.00    -0.269 NA
ATOM      4  C   UNL     1       3.936   4.585  -9.388  0.00  0.00    +0.090 C 
ATOM      5  C   UNL     1       3.715   5.148  -7.993  0.00  0.00    +0.090 C 
ATOM      6  N   UNL     1       2.551   5.999  -8.048  0.00  0.00    -0.264 NA
ATOM      7  C   UNL     1       2.621   7.005  -9.075  0.00  0.00    +0.090 C 
ATOM      8  C   UNL     1       3.054   6.475 -10.411  0.00  0.00    +0.090 C 
ENDBRANCH   1   6
BRANCH   1   9
ATOM      9  C   UNL     1       3.169   6.206  -5.704  0.00  0.00    -0.004 A 
ATOM     10  C   UNL     1       3.950   7.187  -5.107  0.00  0.00    -0.003 A 
ATOM     11  C   UNL     1       4.819   6.830  -4.085  0.00  0.00    -0.000 A 
ATOM     12  C   UNL     1       4.773   5.561  -3.519  0.00  0.00    -0.000 A 
ATOM     13  C   UNL     1       3.663   4.805  -3.863  0.00  0.00    -0.000 A 
ATOM     14  C   UNL     1       2.796   5.161  -4.869  0.00  0.00    -0.003 A 
ENDBRANCH   1   9
BRANCH   1  15
ATOM     15  C   UNL     1       0.820   6.352  -6.423  0.00  0.00    -0.004 A 
ATOM     16  C   UNL     1       0.203   7.121  -5.443  0.00  0.00    -0.003 A 
ATOM     17  C   UNL     1      -1.138   6.865  -5.199  0.00  0.00    -0.000 A 
ATOM     18  C   UNL     1      -1.722   5.719  -5.712  0.00  0.00    -0.000 A 
ATOM     19  C   UNL     1      -1.126   5.060  -6.771  0.00  0.00    -0.000 A 
ATOM     20  C   UNL     1       0.014   5.646  -7.309  0.00  0.00    -0.003 A 
ENDBRANCH   1  15
TORSDOF 3
ENDMDL
MODEL 5
REMARK VINA RESULT:      -7.4      2.282      5.244
REMARK  Name = 
REMARK  3 active torsions:
REMARK  status: ('A' for Active; 'I' for Inactive)
REMARK    1  A    between atoms: N_5  and  C_6
REMARK    2  A    between atoms: C_6  and  C_7
REMARK    3  A    between atoms: C_6  and  C_13
REMARK                            x       y       z     vdW  Elec       q    Type
REMARK                         _______ _______ _______ _____ _____    ______ ____
ROOT
ATOM      1  C   UNL     1       1.806   6.815  -5.718  0.00  0.00    +0.103 C 
ENDROOT
BRANCH   1   6
ATOM      2  C   UNL     1       3.898   6.163  -0.659  0.00  0.00    +0.090 C 
ATOM      3  N   UNL     1       3.254   6.451  -1.915  0.00  0.00    -0.269 NA
ATOM      4  C   UNL     1       2.612   5.251  -2.448  0.00  0.00    +0.090 C 
ATOM      5  C   UNL     1       1.701   5.749  -3.559  0.00  0.00    +0.090 C 
ATOM      6  N   UNL     1       2.542   6.275  -4.607  0.00  0.00    -0.264 NA
ATOM      7  C   UNL     1       3.488   7.259  -4.147  0.00  0.00    +0.090 C 
ATOM      8  C   UNL     1       4.235   6.847  -2.912  0.00  0.00    +0.090 C 
ENDBRANCH   1   6
BRANCH   1   9
ATOM      9  C   UNL     1       0.366   6.422  -5.686  0.00  0.00    -0.004 A 
ATOM     10  C   UNL     1      -0.535   7.328  -5.143  0.00  0.00    -0.003 A 
ATOM     11  C   UNL     1      -1.883   6.998  -5.104  0.00  0.00    -0.000 A 
ATOM     12  C   UNL     1      -2.366   5.881  -5.773  0.00  0.00    -0.000 A 
ATOM     13  C   UNL     1      -1.473   5.298  -6.660  0.00  0.00    -0.000 A 
ATOM     14  C   UNL     1      -0.140   5.629  -6.707  0.00  0.00    -0.003 A 
ENDBRANCH   1   9
BRANCH   1  15
ATOM     15  C   UNL     1       2.445   6.396  -7.002  0.00  0.00    -0.004 A 
ATOM     16  C   UNL     1       2.657   7.337  -8.003  0.00  0.00    -0.003 A 
ATOM     17  C   UNL     1       3.324   6.904  -9.139  0.00  0.00    -0.000 A 
ATOM     18  C   UNL     1       3.500   5.547  -9.355  0.00  0.00    -0.000 A 
ATOM     19  C   UNL     1       3.397   4.664  -8.296  0.00  0.00    -0.000 A 
ATOM     20  C   UNL     1       3.185   5.219  -7.039  0.00  0.00    -0.003 A 
ENDBRANCH   1  15
TORSDOF 3
ENDMDL
MODEL 6
REMARK VINA RESULT:      -7.3      2.624      5.705
REMARK  Name = 
REMARK  3 active torsions:
REMARK  status: ('A' for Active; 'I' for Inactive)
REMARK    1  A    between atoms: N_5  and  C_6
REMARK    2  A    between atoms: C_6  and  C_7
REMARK    3  A    between atoms: C_6  and  C_13
REMARK                            x       y       z     vdW  Elec       q    Type
REMARK                         _______ _______ _______ _____ _____    ______ ____
ROOT
ATOM      1  C   UNL     1       3.438   6.582 -10.145  0.00  0.00    +0.103 C 
ENDROOT
BRANCH   1   6
ATOM      2  C   UNL     1       0.697   6.017 -14.895  0.00  0.00    +0.090 C 
ATOM      3  N   UNL     1       1.456   6.316 -13.709  0.00  0.00    -0.269 NA
ATOM      4  C   UNL     1       2.519   5.330 -13.518  0.00  0.00    +0.090 C 
ATOM      5  C   UNL     1       3.436   5.934 -12.466  0.00  0.00    +0.090 C 
ATOM      6  N   UNL     1       2.697   5.996 -11.229  0.00  0.00    -0.264 NA
ATOM      7  C   UNL     1       1.429   6.670 -11.349  0.00  0.00    +0.090 C 
ATOM      8  C   UNL     1       0.615   6.218 -12.526  0.00  0.00    +0.090 C 
ENDBRANCH   1   6
BRANCH   1   9
ATOM      9  C   UNL     1       4.913   6.520 -10.372  0.00  0.00    -0.004 A 
ATOM     10  C   UNL     1       5.534   7.655 -10.875  0.00  0.00    -0.003 A 
ATOM     11  C   UNL     1       6.905   7.635 -11.090  0.00  0.00    -0.000 A 
ATOM     12  C   UNL     1       7.686   6.584 -10.627  0.00  0.00    -0.000 A 
ATOM     13  C   UNL     1       7.050   5.727  -9.742  0.00  0.00    -0.000 A 
ATOM     14  C   UNL     1       5.693   5.750  -9.519  0.00  0.00    -0.003 A 
ENDBRANCH   1   9
BRANCH   1  15
ATOM     15  C   UNL     1       3.067   5.918  -8.859  0.00  0.00    -0.004 A 
ATOM     16  C   UNL     1       2.866   6.690  -7.721  0.00  0.00    -0.003 A 
ATOM     17  C   UNL     1       2.448   6.024  -6.578  0.00  0.00    -0.000 A 
ATOM     18  C   UNL     1       2.512   4.641  -6.529  0.00  0.00    -0.000 A 
ATOM     19  C   UNL     1       2.588   3.915  -7.703  0.00  0.00    -0.000 A 
ATOM     20  C   UNL     1       2.526   4.637  -8.888  0.00  0.00    -0.003 A 
ENDBRANCH   1  15
TORSDOF 3
ENDMDL
MODEL 7
REMARK VINA RESULT:      -7.1      2.348      7.032
REMARK  Name = 
REMARK  3 active torsions:
REMARK  status: ('A' for Active; 'I' for Inactive)
REMARK    1  A    between atoms: N_5  and  C_6
REMARK    2  A    between atoms: C_6  and  C_7
REMARK    3  A    between atoms: C_6  and  C_13
REMARK                            x       y       z     vdW  Elec       q    Type
REMARK                         _______ _______ _______ _____ _____    ______ ____
ROOT
ATOM      1  C   UNL     1       3.466   5.625 -10.452  0.00  0.00    +0.103 C 
ENDROOT
BRANCH   1   6
ATOM      2  C   UNL     1       1.578   6.601  -5.364  0.00  0.00    +0.090 C 
ATOM      3  N   UNL     1       2.220   6.322  -6.623  0.00  0.00    -0.269 NA
ATOM      4  C   UNL     1       2.075   7.454  -7.535  0.00  0.00    +0.090 C 
ATOM      5  C   UNL     1       3.061   7.186  -8.661  0.00  0.00    +0.090 C 
ATOM      6  N   UNL     1       2.602   6.017  -9.370  0.00  0.00    -0.264 NA
ATOM      7  C   UNL     1       2.372   4.879  -8.517  0.00  0.00    +0.090 C 
ATOM      8  C   UNL     1       1.575   5.200  -7.286  0.00  0.00    +0.090 C 
ENDBRANCH   1   6
BRANCH   1   9
ATOM      9  C   UNL     1       4.807   6.274 -10.366  0.00  0.00    -0.004 A 
ATOM     10  C   UNL     1       5.873   5.492  -9.941  0.00  0.00    -0.003 A 
ATOM     11  C   UNL     1       7.137   6.061  -9.857  0.00  0.00    -0.000 A 
ATOM     12  C   UNL     1       7.387   7.324 -10.378  0.00  0.00    -0.000 A 
ATOM     13  C   UNL     1       6.383   7.836 -11.186  0.00  0.00    -0.000 A 
ATOM     14  C   UNL     1       5.134   7.269 -11.278  0.00  0.00    -0.003 A 
ENDBRANCH   1   9
BRANCH   1  15
ATOM     15  C   UNL     1       2.809   5.925 -11.759  0.00  0.00    -0.004 A 
ATOM     16  C   UNL     1       3.344   5.406 -12.932  0.00  0.00    -0.003 A 
ATOM     17  C   UNL     1       2.645   5.656 -14.104  0.00  0.00    -0.000 A 
ATOM     18  C   UNL     1       1.639   6.608 -14.112  0.00  0.00    -0.000 A 
ATOM     19  C   UNL     1       1.056   7.000 -12.922  0.00  0.00    -0.000 A 
ATOM     20  C   UNL     1       1.484   6.346 -11.772  0.00  0.00    -0.003 A 
ENDBRANCH   1  15
TORSDOF 3
ENDMDL
MODEL 8
REMARK VINA RESULT:      -7.1      2.171      2.780
REMARK  Name = 
REMARK  3 active torsions:
REMARK  status: ('A' for Active; 'I' for Inactive)
REMARK    1  A    between atoms: N_5  and  C_6
REMARK    2  A    between atoms: C_6  and  C_7
REMARK    3  A    between atoms: C_6  and  C_13
REMARK                            x       y       z     vdW  Elec       q    Type
REMARK                         _______ _______ _______ _____ _____    ______ ____
ROOT
ATOM      1  C   UNL     1       0.835   5.418  -4.868  0.00  0.00    +0.103 C 
ENDROOT
BRANCH   1   6
ATOM      2  C   UNL     1       3.706   6.324  -9.487  0.00  0.00    +0.090 C 
ATOM      3  N   UNL     1       2.823   6.068  -8.379  0.00  0.00    -0.269 NA
ATOM      4  C   UNL     1       2.827   7.196  -7.449  0.00  0.00    +0.090 C 
ATOM      5  C   UNL     1       1.633   6.963  -6.537  0.00  0.00    +0.090 C 
ATOM      6  N   UNL     1       1.905   5.779  -5.759  0.00  0.00    -0.264 NA
ATOM      7  C   UNL     1       2.258   4.633  -6.558  0.00  0.00    +0.090 C 
ATOM      8  C   UNL     1       3.288   4.925  -7.609  0.00  0.00    +0.090 C 
ENDBRANCH   1   6
BRANCH   1   9
ATOM      9  C   UNL     1      -0.425   6.158  -5.170  0.00  0.00    -0.004 A 
ATOM     10  C   UNL     1      -1.445   5.459  -5.801  0.00  0.00    -0.003 A 
ATOM     11  C   UNL     1      -2.635   6.113  -6.090  0.00  0.00    -0.000 A 
ATOM     12  C   UNL     1      -2.894   7.381  -5.585  0.00  0.00    -0.000 A 
ATOM     13  C   UNL     1      -2.020   7.809  -4.597  0.00  0.00    -0.000 A 
ATOM     14  C   UNL     1      -0.845   7.157  -4.302  0.00  0.00    -0.003 A 
ENDBRANCH   1   9
BRANCH   1  15
ATOM     15  C   UNL     1       1.259   5.640  -3.452  0.00  0.00    -0.004 A 
ATOM     16  C   UNL     1       0.595   4.978  -2.425  0.00  0.00    -0.003 A 
ATOM     17  C   UNL     1       1.084   5.165  -1.141  0.00  0.00    -0.000 A 
ATOM     18  C   UNL     1       1.997   6.178  -0.896  0.00  0.00    -0.000 A 
ATOM     19  C   UNL     1       2.720   6.718  -1.942  0.00  0.00    -0.000 A 
ATOM     20  C   UNL     1       2.528   6.146  -3.195  0.00  0.00    -0.003 A 
ENDBRANCH   1  15
TORSDOF 3
ENDMDL
MODEL 9
REMARK VINA RESULT:      -7.0      1.663      2.178
REMARK  Name = 
REMARK  3 active torsions:
REMARK  status: ('A' for Active; 'I' for Inactive)
REMARK    1  A    between atoms: N_5  and  C_6
REMARK    2  A    between atoms: C_6  and  C_7
REMARK    3  A    between atoms: C_6  and  C_13
REMARK                            x       y       z     vdW  Elec       q    Type
REMARK                         _______ _______ _______ _____ _____    ______ ____
ROOT
ATOM      1  C   UNL     1       1.602   4.981  -5.584  0.00  0.00    +0.103 C 
ENDROOT
BRANCH   1   6
ATOM      2  C   UNL     1       4.371   5.247 -10.344  0.00  0.00    +0.090 C 
ATOM      3  N   UNL     1       3.792   5.133  -9.030  0.00  0.00    -0.269 NA
ATOM      4  C   UNL     1       2.708   4.153  -9.030  0.00  0.00    +0.090 C 
ATOM      5  C   UNL     1       2.422   3.877  -7.563  0.00  0.00    +0.090 C 
ATOM      6  N   UNL     1       1.890   5.089  -6.988  0.00  0.00    -0.264 NA
ATOM      7  C   UNL     1       2.721   6.245  -7.211  0.00  0.00    +0.090 C 
ATOM      8  C   UNL     1       3.182   6.392  -8.631  0.00  0.00    +0.090 C 
ENDBRANCH   1   6
BRANCH   1   9
ATOM      9  C   UNL     1       0.258   5.532  -5.239  0.00  0.00    -0.004 A 
ATOM     10  C   UNL     1      -0.699   5.566  -6.244  0.00  0.00    -0.003 A 
ATOM     11  C   UNL     1      -1.963   6.064  -5.957  0.00  0.00    -0.000 A 
ATOM     12  C   UNL     1      -2.343   6.338  -4.649  0.00  0.00    -0.000 A 
ATOM     13  C   UNL     1      -1.488   5.845  -3.675  0.00  0.00    -0.000 A 
ATOM     14  C   UNL     1      -0.240   5.342  -3.957  0.00  0.00    -0.003 A 
ENDBRANCH   1   9
BRANCH   1  15
ATOM     15  C   UNL     1       2.675   5.656  -4.793  0.00  0.00    -0.004 A 
ATOM     16  C   UNL     1       2.437   6.910  -4.242  0.00  0.00    -0.003 A 
ATOM     17  C   UNL     1       3.443   7.449  -3.454  0.00  0.00    -0.000 A 
ATOM     18  C   UNL     1       4.706   6.879  -3.470  0.00  0.00    -0.000 A 
ATOM     19  C   UNL     1       4.867   5.581  -3.916  0.00  0.00    -0.000 A 
ATOM     20  C   UNL     1       3.711   4.893  -4.266  0.00  0.00    -0.003 A 
ENDBRANCH   1  15
TORSDOF 3
ENDMDL
