MODEL 1
REMARK VINA RESULT:      -7.0      0.000      0.000
REMARK  Name = 
REMARK  7 active torsions:
REMARK  status: ('A' for Active; 'I' for Inactive)
REMARK    1  A    between atoms: C_2  and  C_3
REMARK    2  A    between atoms: C_3  and  C_4
REMARK    3  A    between atoms: C_3  and  C_6
REMARK    4  A    between atoms: C_6  and  N_7
REMARK    5  A    between atoms: C_6  and  C_11
REMARK    6  A    between atoms: C_12  and  N_13
REMARK    7  A    between atoms: C_18  and  C_19
REMARK                            x       y       z     vdW  Elec       q    Type
REMARK                         _______ _______ _______ _____ _____    ______ ____
ROOT
ATOM      1  C   UNL     1       1.257   6.322  -5.343  0.00  0.00    +0.091 C 
ATOM      2  C   UNL     1       1.295   5.204  -6.616  0.00  0.00    +0.168 C 
ATOM      3  O   UNL     1       1.018   3.965  -5.751  0.00  0.00    -0.222 OA
ATOM      4  C   UNL     1       2.995   4.869  -6.498  0.00  0.00    +0.137 C 
ATOM      5  C   UNL     1       3.390   6.373  -5.998  0.00  0.00    +0.057 C 
ATOM      6  C   UNL     1       2.668   5.739  -4.629  0.00  0.00    +0.186 C 
ENDROOT
BRANCH   6   7
ATOM      7  N   UNL     1       2.822   7.105  -3.817  0.00  0.00    -0.090 NA
ATOM      8  C   UNL     1       3.584   7.124  -2.664  0.00  0.00    +0.534 C 
ATOM      9  N   UNL     1       3.855   8.442  -2.153  0.00  0.00    +0.135 NA
ATOM     10  N   UNL     1       4.447   6.185  -2.473  0.00  0.00    +0.135 NA
ENDBRANCH   6   7
BRANCH   4  11
ATOM     11  C   UNL     1       3.264   5.214  -8.054  0.00  0.00    +0.367 C 
ATOM     12  O   UNL     1       3.527   4.156  -8.882  0.00  0.00    -0.246 OA
ATOM     13  O   UNL     1       3.794   6.356  -8.216  0.00  0.00    -0.246 OA
ENDBRANCH   4  11
BRANCH   1  14
ATOM     14  C   UNL     1       0.115   5.527  -4.368  0.00  0.00    +0.101 C 
BRANCH  14  15
ATOM     15  N   UNL     1       0.220   6.515  -3.118  0.00  0.00    -0.207 NA
ATOM     16  C   UNL     1       0.180   5.751  -1.908  0.00  0.00    +0.242 C 
ATOM     17  O   UNL     1       0.130   4.492  -1.891  0.00  0.00    -0.273 OA
ATOM     18  C   UNL     1       0.304   6.397  -0.564  0.00  0.00    +0.096 C 
ENDBRANCH  14  15
BRANCH  14  19
ATOM     19  C   UNL     1      -1.119   6.437  -5.025  0.00  0.00    +0.020 C 
BRANCH  19  21
ATOM     20  C   UNL     1      -2.682   5.740  -6.691  0.00  0.00    +0.000 C 
ATOM     21  C   UNL     1      -2.185   5.423  -5.362  0.00  0.00    +0.002 C 
ENDBRANCH  19  21
BRANCH  19  22
ATOM     22  C   UNL     1      -1.478   7.316  -3.865  0.00  0.00    +0.002 C 
ATOM     23  C   UNL     1      -2.031   8.599  -4.416  0.00  0.00    +0.000 C 
ENDBRANCH  19  22
ENDBRANCH  14  19
ENDBRANCH   1  14
TORSDOF 7
ENDMDL
MODEL 2
REMARK VINA RESULT:      -7.0      2.298      5.174
REMARK  Name = 
REMARK  7 active torsions:
REMARK  status: ('A' for Active; 'I' for Inactive)
REMARK    1  A    between atoms: C_2  and  C_3
REMARK    2  A    between atoms: C_3  and  C_4
REMARK    3  A    between atoms: C_3  and  C_6
REMARK    4  A    between atoms: C_6  and  N_7
REMARK    5  A    between atoms: C_6  and  C_11
REMARK    6  A    between atoms: C_12  and  N_13
REMARK    7  A    between atoms: C_18  and  C_19
REMARK                            x       y       z     vdW  Elec       q    Type
REMARK                         _______ _______ _______ _____ _____    ______ ____
ROOT
ATOM      1  C   UNL     1       0.444   5.218  -3.993  0.00  0.00    +0.091 C 
ATOM      2  C   UNL     1      -1.049   5.972  -4.263  0.00  0.00    +0.168 C 
ATOM      3  O   UNL     1      -0.470   7.325  -4.703  0.00  0.00    -0.222 OA
ATOM      4  C   UNL     1      -1.215   6.602  -2.653  0.00  0.00    +0.137 C 
ATOM      5  C   UNL     1      -0.429   5.357  -1.945  0.00  0.00    +0.057 C 
ATOM      6  C   UNL     1       0.830   6.186  -2.669  0.00  0.00    +0.186 C 
ENDROOT
BRANCH   6   7
ATOM      7  N   UNL     1       1.913   5.111  -2.199  0.00  0.00    -0.090 NA
ATOM      8  C   UNL     1       2.816   5.449  -1.208  0.00  0.00    +0.534 C 
ATOM      9  N   UNL     1       3.577   4.341  -0.695  0.00  0.00    +0.135 NA
ATOM     10  N   UNL     1       2.543   6.439  -0.429  0.00  0.00    +0.135 NA
ENDBRANCH   6   7
BRANCH   4  11
ATOM     11  C   UNL     1      -2.669   5.928  -2.441  0.00  0.00    +0.367 C 
ATOM     12  O   UNL     1      -3.741   6.778  -2.401  0.00  0.00    -0.246 OA
ATOM     13  O   UNL     1      -2.617   4.862  -1.754  0.00  0.00    -0.246 OA
ENDBRANCH   4  11
BRANCH   1  14
ATOM     14  C   UNL     1       1.336   6.032  -5.189  0.00  0.00    +0.101 C 
BRANCH  14  15
ATOM     15  N   UNL     1       2.741   5.344  -4.871  0.00  0.00    -0.207 NA
ATOM     16  C   UNL     1       3.763   6.346  -4.849  0.00  0.00    +0.242 C 
ATOM     17  O   UNL     1       3.526   7.574  -5.004  0.00  0.00    -0.273 OA
ATOM     18  C   UNL     1       5.187   6.012  -4.532  0.00  0.00    +0.096 C 
ENDBRANCH  14  15
BRANCH  14  19
ATOM     19  C   UNL     1       0.972   4.847  -6.305  0.00  0.00    +0.020 C 
BRANCH  19  21
ATOM     20  C   UNL     1      -0.844   5.375  -7.765  0.00  0.00    +0.000 C 
ATOM     21  C   UNL     1       0.573   5.617  -7.541  0.00  0.00    +0.002 C 
ENDBRANCH  19  21
BRANCH  19  22
ATOM     22  C   UNL     1       2.296   4.156  -6.435  0.00  0.00    +0.002 C 
ATOM     23  C   UNL     1       2.541   3.908  -7.896  0.00  0.00    +0.000 C 
ENDBRANCH  19  22
ENDBRANCH  14  19
ENDBRANCH   1  14
TORSDOF 7
ENDMDL
MODEL 3
REMARK VINA RESULT:      -6.9      4.962      8.680
REMARK  Name = 
REMARK  7 active torsions:
REMARK  status: ('A' for Active; 'I' for Inactive)
REMARK    1  A    between atoms: C_2  and  C_3
REMARK    2  A    between atoms: C_3  and  C_4
REMARK    3  A    between atoms: C_3  and  C_6
REMARK    4  A    between atoms: C_6  and  N_7
REMARK    5  A    between atoms: C_6  and  C_11
REMARK    6  A    between atoms: C_12  and  N_13
REMARK    7  A    between atoms: C_18  and  C_19
REMARK                            x       y       z     vdW  Elec       q    Type
REMARK                         _______ _______ _______ _____ _____    ______ ____
ROOT
ATOM      1  C   UNL     1       3.307   6.104  -9.803  0.00  0.00    +0.091 C 
ATOM      2  C   UNL     1       3.593   5.175  -8.415  0.00  0.00    +0.168 C 
ATOM      3  O   UNL     1       4.013   3.899  -9.159  0.00  0.00    -0.222 OA
ATOM      4  C   UNL     1       1.980   4.541  -8.301  0.00  0.00    +0.137 C 
ATOM      5  C   UNL     1       1.271   5.876  -8.920  0.00  0.00    +0.057 C 
ATOM      6  C   UNL     1       1.969   5.199 -10.282  0.00  0.00    +0.186 C 
ENDROOT
BRANCH   6   7
ATOM      7  N   UNL     1       1.492   6.400 -11.220  0.00  0.00    -0.090 NA
ATOM      8  C   UNL     1       0.936   6.115 -12.453  0.00  0.00    +0.534 C 
ATOM      9  N   UNL     1       0.324   7.243 -13.104  0.00  0.00    +0.135 NA
ATOM     10  N   UNL     1       0.464   4.934 -12.664  0.00  0.00    +0.135 NA
ENDBRANCH   6   7
BRANCH   4  11
ATOM     11  C   UNL     1       1.796   5.037  -6.773  0.00  0.00    +0.367 C 
ATOM     12  O   UNL     1       1.916   4.083  -5.798  0.00  0.00    -0.246 OA
ATOM     13  O   UNL     1       0.999   6.020  -6.672  0.00  0.00    -0.246 OA
ENDBRANCH   4  11
BRANCH   1  14
ATOM     14  C   UNL     1       4.483   5.395 -10.804  0.00  0.00    +0.101 C 
BRANCH  14  15
ATOM     15  N   UNL     1       4.237   6.336 -12.071  0.00  0.00    -0.207 NA
ATOM     16  C   UNL     1       4.479   5.589 -13.268  0.00  0.00    +0.242 C 
ATOM     17  O   UNL     1       4.779   4.365 -13.266  0.00  0.00    -0.273 OA
ATOM     18  C   UNL     1       4.287   6.190 -14.624  0.00  0.00    +0.096 C 
ENDBRANCH  14  15
BRANCH  14  19
ATOM     19  C   UNL     1       5.648   6.435 -10.218  0.00  0.00    +0.020 C 
BRANCH  19  21
ATOM     20  C   UNL     1       7.551   5.399  -9.213  0.00  0.00    +0.000 C 
ATOM     21  C   UNL     1       6.949   5.722 -10.497  0.00  0.00    +0.002 C 
ENDBRANCH  19  21
BRANCH  19  22
ATOM     22  C   UNL     1       5.428   7.636 -11.088  0.00  0.00    +0.002 C 
ATOM     23  C   UNL     1       6.753   8.320 -11.269  0.00  0.00    +0.000 C 
ENDBRANCH  19  22
ENDBRANCH  14  19
ENDBRANCH   1  14
TORSDOF 7
ENDMDL
MODEL 4
REMARK VINA RESULT:      -6.3      5.585      8.264
REMARK  Name = 
REMARK  7 active torsions:
REMARK  status: ('A' for Active; 'I' for Inactive)
REMARK    1  A    between atoms: C_2  and  C_3
REMARK    2  A    between atoms: C_3  and  C_4
REMARK    3  A    between atoms: C_3  and  C_6
REMARK    4  A    between atoms: C_6  and  N_7
REMARK    5  A    between atoms: C_6  and  C_11
REMARK    6  A    between atoms: C_12  and  N_13
REMARK    7  A    between atoms: C_18  and  C_19
REMARK                            x       y       z     vdW  Elec       q    Type
REMARK                         _______ _______ _______ _____ _____    ______ ____
ROOT
ATOM      1  C   UNL     1       4.202   5.156 -11.158  0.00  0.00    +0.091 C 
ATOM      2  C   UNL     1       5.673   5.910 -10.783  0.00  0.00    +0.168 C 
ATOM      3  O   UNL     1       5.077   7.301 -10.516  0.00  0.00    -0.222 OA
ATOM      4  C   UNL     1       6.028   6.408 -12.408  0.00  0.00    +0.137 C 
ATOM      5  C   UNL     1       5.299   5.121 -13.101  0.00  0.00    +0.057 C 
ATOM      6  C   UNL     1       3.985   6.020 -12.588  0.00  0.00    +0.186 C 
ENDROOT
BRANCH   6   7
ATOM      7  N   UNL     1       2.938   4.925 -13.092  0.00  0.00    -0.090 NA
ATOM      8  C   UNL     1       2.003   5.272 -14.049  0.00  0.00    +0.534 C 
ATOM      9  N   UNL     1       1.278   4.159 -14.603  0.00  0.00    +0.135 NA
ATOM     10  N   UNL     1       2.222   6.309 -14.784  0.00  0.00    +0.135 NA
ENDBRANCH   6   7
BRANCH   4  11
ATOM     11  C   UNL     1       7.482   5.701 -12.404  0.00  0.00    +0.367 C 
ATOM     12  O   UNL     1       8.558   6.509 -12.150  0.00  0.00    -0.246 OA
ATOM     13  O   UNL     1       7.544   4.709 -13.193  0.00  0.00    -0.246 OA
ENDBRANCH   4  11
BRANCH   1  14
ATOM     14  C   UNL     1       3.202   6.073 -10.136  0.00  0.00    +0.101 C 
BRANCH  14  15
ATOM     15  N   UNL     1       1.873   5.218 -10.364  0.00  0.00    -0.207 NA
ATOM     16  C   UNL     1       0.795   6.101 -10.693  0.00  0.00    +0.242 C 
ATOM     17  O   UNL     1       0.941   7.345 -10.827  0.00  0.00    -0.273 OA
ATOM     18  C   UNL     1      -0.575   5.588 -11.008  0.00  0.00    +0.096 C 
ENDBRANCH  14  15
BRANCH  14  19
ATOM     19  C   UNL     1       3.625   5.128  -8.829  0.00  0.00    +0.020 C 
BRANCH  19  21
ATOM     20  C   UNL     1       2.856   7.213  -7.953  0.00  0.00    +0.000 C 
ATOM     21  C   UNL     1       3.772   6.113  -7.695  0.00  0.00    +0.002 C 
ENDBRANCH  19  21
BRANCH  19  22
ATOM     22  C   UNL     1       2.415   4.251  -8.704  0.00  0.00    +0.002 C 
ATOM     23  C   UNL     1       2.315   3.810  -7.271  0.00  0.00    +0.000 C 
ENDBRANCH  19  22
ENDBRANCH  14  19
ENDBRANCH   1  14
TORSDOF 7
ENDMDL
MODEL 5
REMARK VINA RESULT:      -6.3      2.491      5.771
REMARK  Name = 
REMARK  7 active torsions:
REMARK  status: ('A' for Active; 'I' for Inactive)
REMARK    1  A    between atoms: C_2  and  C_3
REMARK    2  A    between atoms: C_3  and  C_4
REMARK    3  A    between atoms: C_3  and  C_6
REMARK    4  A    between atoms: C_6  and  N_7
REMARK    5  A    between atoms: C_6  and  C_11
REMARK    6  A    between atoms: C_12  and  N_13
REMARK    7  A    between atoms: C_18  and  C_19
REMARK                            x       y       z     vdW  Elec       q    Type
REMARK                         _______ _______ _______ _____ _____    ______ ____
ROOT
ATOM      1  C   UNL     1       1.895   6.692  -3.349  0.00  0.00    +0.091 C 
ATOM      2  C   UNL     1       3.253   6.248  -2.439  0.00  0.00    +0.168 C 
ATOM      3  O   UNL     1       3.370   4.825  -3.007  0.00  0.00    -0.222 OA
ATOM      4  C   UNL     1       2.356   5.606  -1.097  0.00  0.00    +0.137 C 
ATOM      5  C   UNL     1       1.112   6.652  -1.260  0.00  0.00    +0.057 C 
ATOM      6  C   UNL     1       0.862   5.623  -2.555  0.00  0.00    +0.186 C 
ENDROOT
BRANCH   6   7
ATOM      7  N   UNL     1      -0.398   6.454  -3.075  0.00  0.00    -0.090 NA
ATOM      8  C   UNL     1      -1.661   5.901  -2.973  0.00  0.00    +0.534 C 
ATOM      9  N   UNL     1      -2.735   6.821  -3.240  0.00  0.00    +0.135 NA
ATOM     10  N   UNL     1      -1.852   4.935  -2.141  0.00  0.00    +0.135 NA
ENDBRANCH   6   7
BRANCH   4  11
ATOM     11  C   UNL     1       3.123   6.538  -0.021  0.00  0.00    +0.367 C 
ATOM     12  O   UNL     1       4.352   6.109   0.399  0.00  0.00    -0.246 OA
ATOM     13  O   UNL     1       2.322   7.165   0.738  0.00  0.00    -0.246 OA
ENDBRANCH   4  11
BRANCH   1  14
ATOM     14  C   UNL     1       2.228   5.765  -4.733  0.00  0.00    +0.101 C 
BRANCH  14  15
ATOM     15  N   UNL     1       0.908   6.158  -5.541  0.00  0.00    -0.207 NA
ATOM     16  C   UNL     1       0.365   4.985  -6.157  0.00  0.00    +0.242 C 
ATOM     17  O   UNL     1       0.858   3.836  -6.004  0.00  0.00    -0.273 OA
ATOM     18  C   UNL     1      -0.904   5.028  -6.949  0.00  0.00    +0.096 C 
ENDBRANCH  14  15
BRANCH  14  19
ATOM     19  C   UNL     1       3.063   7.036  -5.417  0.00  0.00    +0.020 C 
BRANCH  19  21
ATOM     20  C   UNL     1       5.334   7.262  -4.710  0.00  0.00    +0.000 C 
ATOM     21  C   UNL     1       4.464   6.502  -5.595  0.00  0.00    +0.002 C 
ENDBRANCH  19  21
BRANCH  19  22
ATOM     22  C   UNL     1       2.323   7.207  -6.709  0.00  0.00    +0.002 C 
ATOM     23  C   UNL     1       3.236   6.777  -7.821  0.00  0.00    +0.000 C 
ENDBRANCH  19  22
ENDBRANCH  14  19
ENDBRANCH   1  14
TORSDOF 7
ENDMDL
MODEL 6
REMARK VINA RESULT:      -6.1      2.636      6.004
REMARK  Name = 
REMARK  7 active torsions:
REMARK  status: ('A' for Active; 'I' for Inactive)
REMARK    1  A    between atoms: C_2  and  C_3
REMARK    2  A    between atoms: C_3  and  C_4
REMARK    3  A    between atoms: C_3  and  C_6
REMARK    4  A    between atoms: C_6  and  N_7
REMARK    5  A    between atoms: C_6  and  C_11
REMARK    6  A    between atoms: C_12  and  N_13
REMARK    7  A    between atoms: C_18  and  C_19
REMARK                            x       y       z     vdW  Elec       q    Type
REMARK                         _______ _______ _______ _____ _____    ______ ____
ROOT
ATOM      1  C   UNL     1       1.272   6.637  -4.760  0.00  0.00    +0.091 C 
ATOM      2  C   UNL     1       0.353   6.359  -3.364  0.00  0.00    +0.168 C 
ATOM      3  O   UNL     1       0.416   4.826  -3.431  0.00  0.00    -0.222 OA
ATOM      4  C   UNL     1      -1.180   6.302  -4.178  0.00  0.00    +0.137 C 
ATOM      5  C   UNL     1      -0.754   7.375  -5.334  0.00  0.00    +0.057 C 
ATOM      6  C   UNL     1       0.102   6.015  -5.801  0.00  0.00    +0.186 C 
ENDROOT
BRANCH   6   7
ATOM      7  N   UNL     1       0.789   6.771  -7.027  0.00  0.00    -0.090 NA
ATOM      8  C   UNL     1       0.670   6.246  -8.300  0.00  0.00    +0.534 C 
ATOM      9  N   UNL     1       1.112   7.125  -9.350  0.00  0.00    +0.135 NA
ATOM     10  N   UNL     1      -0.280   5.407  -8.539  0.00  0.00    +0.135 NA
ENDBRANCH   6   7
BRANCH   4  11
ATOM     11  C   UNL     1      -1.830   7.438  -3.230  0.00  0.00    +0.367 C 
ATOM     12  O   UNL     1      -2.665   7.006  -2.235  0.00  0.00    -0.246 OA
ATOM     13  O   UNL     1      -2.004   8.539  -3.837  0.00  0.00    -0.246 OA
ENDBRANCH   4  11
BRANCH   1  14
ATOM     14  C   UNL     1       2.282   5.275  -4.648  0.00  0.00    +0.101 C 
BRANCH  14  15
ATOM     15  N   UNL     1       3.161   5.592  -5.943  0.00  0.00    -0.207 NA
ATOM     16  C   UNL     1       3.086   4.484  -6.847  0.00  0.00    +0.242 C 
ATOM     17  O   UNL     1       2.374   3.467  -6.631  0.00  0.00    -0.273 OA
ATOM     18  C   UNL     1       3.774   4.504  -8.176  0.00  0.00    +0.096 C 
ENDBRANCH  14  15
BRANCH  14  19
ATOM     19  C   UNL     1       3.350   6.113  -3.679  0.00  0.00    +0.020 C 
BRANCH  19  21
ATOM     20  C   UNL     1       3.627   5.455  -1.400  0.00  0.00    +0.000 C 
ATOM     21  C   UNL     1       3.924   5.057  -2.767  0.00  0.00    +0.002 C 
ENDBRANCH  19  21
BRANCH  19  22
ATOM     22  C   UNL     1       4.329   6.618  -4.697  0.00  0.00    +0.002 C 
ATOM     23  C   UNL     1       5.075   7.768  -4.083  0.00  0.00    +0.000 C 
ENDBRANCH  19  22
ENDBRANCH  14  19
ENDBRANCH   1  14
TORSDOF 7
ENDMDL
MODEL 7
REMARK VINA RESULT:      -6.1      2.414      5.589
REMARK  Name = 
REMARK  7 active torsions:
REMARK  status: ('A' for Active; 'I' for Inactive)
REMARK    1  A    between atoms: C_2  and  C_3
REMARK    2  A    between atoms: C_3  and  C_4
REMARK    3  A    between atoms: C_3  and  C_6
REMARK    4  A    between atoms: C_6  and  N_7
REMARK    5  A    between atoms: C_6  and  C_11
REMARK    6  A    between atoms: C_12  and  N_13
REMARK    7  A    between atoms: C_18  and  C_19
REMARK                            x       y       z     vdW  Elec       q    Type
REMARK                         _______ _______ _______ _____ _____    ______ ____
ROOT
ATOM      1  C   UNL     1       0.774   6.743  -3.670  0.00  0.00    +0.091 C 
ATOM      2  C   UNL     1      -0.437   5.933  -2.804  0.00  0.00    +0.168 C 
ATOM      3  O   UNL     1       0.202   4.540  -2.898  0.00  0.00    -0.222 OA
ATOM      4  C   UNL     1      -1.408   5.547  -4.191  0.00  0.00    +0.137 C 
ATOM      5  C   UNL     1      -0.999   6.896  -5.017  0.00  0.00    +0.057 C 
ATOM      6  C   UNL     1       0.403   5.990  -5.130  0.00  0.00    +0.186 C 
ENDROOT
BRANCH   6   7
ATOM      7  N   UNL     1       1.177   7.140  -5.921  0.00  0.00    -0.090 NA
ATOM      8  C   UNL     1       1.580   6.912  -7.224  0.00  0.00    +0.534 C 
ATOM      9  N   UNL     1       2.045   8.085  -7.916  0.00  0.00    +0.135 NA
ATOM     10  N   UNL     1       1.011   5.969  -7.895  0.00  0.00    +0.135 NA
ENDBRANCH   6   7
BRANCH   4  11
ATOM     11  C   UNL     1      -2.737   6.221  -3.563  0.00  0.00    +0.367 C 
ATOM     12  O   UNL     1      -3.668   5.368  -3.035  0.00  0.00    -0.246 OA
ATOM     13  O   UNL     1      -3.054   7.305  -4.142  0.00  0.00    -0.246 OA
ENDBRANCH   4  11
BRANCH   1  14
ATOM     14  C   UNL     1       2.087   5.776  -3.194  0.00  0.00    +0.101 C 
BRANCH  14  15
ATOM     15  N   UNL     1       3.189   6.511  -4.086  0.00  0.00    -0.207 NA
ATOM     16  C   UNL     1       3.896   5.536  -4.861  0.00  0.00    +0.242 C 
ATOM     17  O   UNL     1       3.612   4.309  -4.847  0.00  0.00    -0.273 OA
ATOM     18  C   UNL     1       4.965   5.927  -5.832  0.00  0.00    +0.096 C 
ENDBRANCH  14  15
BRANCH  14  19
ATOM     19  C   UNL     1       2.404   6.790  -1.909  0.00  0.00    +0.020 C 
BRANCH  19  21
ATOM     20  C   UNL     1       3.666   4.884  -1.213  0.00  0.00    +0.000 C 
ATOM     21  C   UNL     1       2.678   5.851  -0.759  0.00  0.00    +0.002 C 
ENDBRANCH  19  21
BRANCH  19  22
ATOM     22  C   UNL     1       3.627   7.504  -2.400  0.00  0.00    +0.002 C 
ATOM     23  C   UNL     1       3.861   8.683  -1.499  0.00  0.00    +0.000 C 
ENDBRANCH  19  22
ENDBRANCH  14  19
ENDBRANCH   1  14
TORSDOF 7
ENDMDL
MODEL 8
REMARK VINA RESULT:      -5.9      4.872      7.287
REMARK  Name = 
REMARK  7 active torsions:
REMARK  status: ('A' for Active; 'I' for Inactive)
REMARK    1  A    between atoms: C_2  and  C_3
REMARK    2  A    between atoms: C_3  and  C_4
REMARK    3  A    between atoms: C_3  and  C_6
REMARK    4  A    between atoms: C_6  and  N_7
REMARK    5  A    between atoms: C_6  and  C_11
REMARK    6  A    between atoms: C_12  and  N_13
REMARK    7  A    between atoms: C_18  and  C_19
REMARK                            x       y       z     vdW  Elec       q    Type
REMARK                         _______ _______ _______ _____ _____    ______ ____
ROOT
ATOM      1  C   UNL     1       3.831   6.503 -11.597  0.00  0.00    +0.091 C 
ATOM      2  C   UNL     1       4.939   5.826 -12.686  0.00  0.00    +0.168 C 
ATOM      3  O   UNL     1       4.368   4.401 -12.631  0.00  0.00    -0.222 OA
ATOM      4  C   UNL     1       6.105   5.372 -11.481  0.00  0.00    +0.137 C 
ATOM      5  C   UNL     1       5.765   6.628 -10.492  0.00  0.00    +0.057 C 
ATOM      6  C   UNL     1       4.425   5.650 -10.272  0.00  0.00    +0.186 C 
ENDROOT
BRANCH   6   7
ATOM      7  N   UNL     1       3.727   6.693  -9.286  0.00  0.00    -0.090 NA
ATOM      8  C   UNL     1       3.424   6.305  -7.994  0.00  0.00    +0.534 C 
ATOM      9  N   UNL     1       3.027   7.383  -7.128  0.00  0.00    +0.135 NA
ATOM     10  N   UNL     1       4.034   5.285  -7.492  0.00  0.00    +0.135 NA
ENDBRANCH   6   7
BRANCH   4  11
ATOM     11  C   UNL     1       7.309   6.158 -12.220  0.00  0.00    +0.367 C 
ATOM     12  O   UNL     1       8.234   5.390 -12.874  0.00  0.00    -0.246 OA
ATOM     13  O   UNL     1       7.613   7.244 -11.637  0.00  0.00    -0.246 OA
ENDBRANCH   4  11
BRANCH   1  14
ATOM     14  C   UNL     1       2.499   5.518 -11.976  0.00  0.00    +0.101 C 
BRANCH  14  15
ATOM     15  N   UNL     1       1.459   6.230 -10.997  0.00  0.00    -0.207 NA
ATOM     16  C   UNL     1       0.820   5.238 -10.185  0.00  0.00    +0.242 C 
ATOM     17  O   UNL     1       1.114   4.014 -10.236  0.00  0.00    -0.273 OA
ATOM     18  C   UNL     1      -0.179   5.605  -9.133  0.00  0.00    +0.096 C 
ENDBRANCH  14  15
BRANCH  14  19
ATOM     19  C   UNL     1       2.068   6.534 -13.226  0.00  0.00    +0.020 C 
BRANCH  19  21
ATOM     20  C   UNL     1       0.986   4.508 -13.883  0.00  0.00    +0.000 C 
ATOM     21  C   UNL     1       1.804   5.601 -14.383  0.00  0.00    +0.002 C 
ENDBRANCH  19  21
BRANCH  19  22
ATOM     22  C   UNL     1       0.824   7.162 -12.671  0.00  0.00    +0.002 C 
ATOM     23  C   UNL     1       0.379   8.225 -13.634  0.00  0.00    +0.000 C 
ENDBRANCH  19  22
ENDBRANCH  14  19
ENDBRANCH   1  14
TORSDOF 7
ENDMDL
MODEL 9
REMARK VINA RESULT:      -5.9      7.890     10.330
REMARK  Name = 
REMARK  7 active torsions:
REMARK  status: ('A' for Active; 'I' for Inactive)
REMARK    1  A    between atoms: C_2  and  C_3
REMARK    2  A    between atoms: C_3  and  C_4
REMARK    3  A    between atoms: C_3  and  C_6
REMARK    4  A    between atoms: C_6  and  N_7
REMARK    5  A    between atoms: C_6  and  C_11
REMARK    6  A    between atoms: C_12  and  N_13
REMARK    7  A    between atoms: C_18  and  C_19
REMARK                            x       y       z     vdW  Elec       q    Type
REMARK                         _______ _______ _______ _____ _____    ______ ____
ROOT
ATOM      1  C   UNL     1       3.777   5.562 -13.629  0.00  0.00    +0.091 C 
ATOM      2  C   UNL     1       4.483   5.495 -12.090  0.00  0.00    +0.168 C 
ATOM      3  O   UNL     1       3.875   6.809 -11.577  0.00  0.00    -0.222 OA
ATOM      4  C   UNL     1       5.921   6.365 -12.525  0.00  0.00    +0.137 C 
ATOM      5  C   UNL     1       5.953   5.807 -14.060  0.00  0.00    +0.057 C 
ATOM      6  C   UNL     1       4.683   6.895 -14.120  0.00  0.00    +0.186 C 
ENDROOT
BRANCH   6   7
ATOM      7  N   UNL     1       4.359   6.554 -15.645  0.00  0.00    -0.090 NA
ATOM      8  C   UNL     1       4.556   7.523 -16.612  0.00  0.00    +0.534 C 
ATOM      9  N   UNL     1       4.468   7.039 -17.964  0.00  0.00    +0.135 NA
ATOM     10  N   UNL     1       5.335   8.516 -16.347  0.00  0.00    +0.135 NA
ENDBRANCH   6   7
BRANCH   4  11
ATOM     11  C   UNL     1       6.901   5.200 -11.981  0.00  0.00    +0.367 C 
ATOM     12  O   UNL     1       7.455   5.390 -10.744  0.00  0.00    -0.246 OA
ATOM     13  O   UNL     1       7.512   4.600 -12.918  0.00  0.00    -0.246 OA
ENDBRANCH   4  11
BRANCH   1  14
ATOM     14  C   UNL     1       2.341   6.359 -13.193  0.00  0.00    +0.101 C 
BRANCH  14  15
ATOM     15  N   UNL     1       1.717   6.429 -14.661  0.00  0.00    -0.207 NA
ATOM     16  C   UNL     1       0.895   7.597 -14.768  0.00  0.00    +0.242 C 
ATOM     17  O   UNL     1       0.767   8.436 -13.838  0.00  0.00    -0.273 OA
ATOM     18  C   UNL     1       0.207   7.960 -16.046  0.00  0.00    +0.096 C 
ENDBRANCH  14  15
BRANCH  14  19
ATOM     19  C   UNL     1       1.586   4.900 -12.907  0.00  0.00    +0.020 C 
BRANCH  19  21
ATOM     20  C   UNL     1       1.078   4.777 -10.576  0.00  0.00    +0.000 C 
ATOM     21  C   UNL     1       0.551   5.222 -11.856  0.00  0.00    +0.002 C 
ENDBRANCH  19  21
BRANCH  19  22
ATOM     22  C   UNL     1       0.997   4.610 -14.255  0.00  0.00    +0.002 C 
ATOM     23  C   UNL     1       0.627   3.155 -14.290  0.00  0.00    +0.000 C 
ENDBRANCH  19  22
ENDBRANCH  14  19
ENDBRANCH   1  14
TORSDOF 7
ENDMDL
