MODEL 1
REMARK VINA RESULT:      -9.0      0.000      0.000
REMARK  Name = 
REMARK  10 active torsions:
REMARK  status: ('A' for Active; 'I' for Inactive)
REMARK    1  A    between atoms: C_2  and  O_3
REMARK    2  A    between atoms: O_3  and  C_4
REMARK    3  A    between atoms: C_4  and  C_6
REMARK    4  A    between atoms: C_6  and  C_7
REMARK    5  A    between atoms: N_15  and  C_16
REMARK    6  A    between atoms: C_16  and  C_17
REMARK    7  A    between atoms: C_17  and  C_18
REMARK    8  A    between atoms: C_18  and  C_19
REMARK    9  A    between atoms: C_18  and  C_21
REMARK   10  A    between atoms: C_18  and  C_27
REMARK                            x       y       z     vdW  Elec       q    Type
REMARK                         _______ _______ _______ _____ _____    ______ ____
ROOT
ATOM      1  C   UNL     1       0.534   5.690  -5.003  0.00  0.00    +0.111 C 
ATOM      2  C   UNL     1       1.256   4.513  -5.593  0.00  0.00    +0.032 C 
ATOM      3  C   UNL     1       2.740   4.554  -5.384  0.00  0.00    +0.073 C 
ATOM      4  N   UNL     1       3.356   5.800  -5.656  0.00  0.00    -0.273 NA
ATOM      5  C   UNL     1       2.695   6.966  -5.212  0.00  0.00    +0.073 C 
ATOM      6  C   UNL     1       1.210   6.983  -5.343  0.00  0.00    +0.032 C 
ENDROOT
BRANCH   1   7
ATOM      7  C   UNL     1       0.334   5.511  -3.534  0.00  0.00    -0.013 A 
ATOM      8  C   UNL     1       1.343   5.699  -2.623  0.00  0.00    -0.004 A 
ATOM      9  C   UNL     1       0.967   6.101  -1.348  0.00  0.00    -0.000 A 
ATOM     10  C   UNL     1      -0.363   6.147  -0.964  0.00  0.00    -0.000 A 
ATOM     11  C   UNL     1      -1.244   5.432  -1.757  0.00  0.00    -0.000 A 
ATOM     12  C   UNL     1      -0.931   5.207  -3.091  0.00  0.00    -0.004 A 
ENDBRANCH   1   7
BRANCH   1  13
ATOM     13  C   UNL     1      -0.839   5.748  -5.598  0.00  0.00    +0.320 C 
ATOM     14  O   UNL     1      -1.115   4.860  -6.459  0.00  0.00    -0.250 OA
BRANCH  13  15
ATOM     15  O   UNL     1      -1.345   7.023  -5.833  0.00  0.00    -0.448 OA
BRANCH  15  17
ATOM     16  C   UNL     1      -2.034   8.535  -4.176  0.00  0.00    +0.051 C 
ATOM     17  C   UNL     1      -2.496   7.464  -5.158  0.00  0.00    +0.209 C 
ENDBRANCH  15  17
ENDBRANCH  13  15
ENDBRANCH   1  13
BRANCH   4  18
ATOM     18  C   UNL     1       4.101   5.895  -6.865  0.00  0.00    +0.074 C 
BRANCH  18  19
ATOM     19  C   UNL     1       3.394   6.614  -7.981  0.00  0.00    +0.040 C 
BRANCH  19  20
ATOM     20  C   UNL     1       3.524   5.921  -9.313  0.00  0.00    +0.118 C 
BRANCH  20  21
ATOM     21  C   UNL     1       2.431   6.341 -10.244  0.00  0.00    -0.006 A 
ATOM     22  C   UNL     1       1.233   6.839  -9.770  0.00  0.00    -0.003 A 
ATOM     23  C   UNL     1       0.083   6.623 -10.483  0.00  0.00    -0.000 A 
ATOM     24  C   UNL     1       0.058   5.838 -11.617  0.00  0.00    -0.000 A 
ATOM     25  C   UNL     1       1.254   5.453 -12.176  0.00  0.00    -0.000 A 
ATOM     26  C   UNL     1       2.426   5.736 -11.491  0.00  0.00    -0.003 A 
ENDBRANCH  20  21
BRANCH  20  27
ATOM     27  C   UNL     1       4.808   6.270  -9.992  0.00  0.00    -0.006 A 
ATOM     28  C   UNL     1       5.931   5.458  -9.901  0.00  0.00    -0.003 A 
ATOM     29  C   UNL     1       7.199   5.987 -10.117  0.00  0.00    -0.000 A 
ATOM     30  C   UNL     1       7.323   7.271 -10.603  0.00  0.00    -0.000 A 
ATOM     31  C   UNL     1       6.192   7.828 -11.180  0.00  0.00    -0.000 A 
ATOM     32  C   UNL     1       4.944   7.422 -10.728  0.00  0.00    -0.003 A 
ENDBRANCH  20  27
BRANCH  20  33
ATOM     33  C   UNL     1       3.461   4.465  -9.099  0.00  0.00    +0.079 C 
ATOM     34  N   UNL     1       3.216   3.359  -8.812  0.00  0.00    -0.195 NA
ENDBRANCH  20  33
ENDBRANCH  19  20
ENDBRANCH  18  19
ENDBRANCH   4  18
TORSDOF 10
ENDMDL
MODEL 2
REMARK VINA RESULT:      -8.9      1.100      3.484
REMARK  Name = 
REMARK  10 active torsions:
REMARK  status: ('A' for Active; 'I' for Inactive)
REMARK    1  A    between atoms: C_2  and  O_3
REMARK    2  A    between atoms: O_3  and  C_4
REMARK    3  A    between atoms: C_4  and  C_6
REMARK    4  A    between atoms: C_6  and  C_7
REMARK    5  A    between atoms: N_15  and  C_16
REMARK    6  A    between atoms: C_16  and  C_17
REMARK    7  A    between atoms: C_17  and  C_18
REMARK    8  A    between atoms: C_18  and  C_19
REMARK    9  A    between atoms: C_18  and  C_21
REMARK   10  A    between atoms: C_18  and  C_27
REMARK                            x       y       z     vdW  Elec       q    Type
REMARK                         _______ _______ _______ _____ _____    ______ ____
ROOT
ATOM      1  C   UNL     1       1.241   5.963  -4.678  0.00  0.00    +0.111 C 
ATOM      2  C   UNL     1       1.660   4.709  -5.391  0.00  0.00    +0.032 C 
ATOM      3  C   UNL     1       3.142   4.488  -5.395  0.00  0.00    +0.073 C 
ATOM      4  N   UNL     1       3.923   5.623  -5.722  0.00  0.00    -0.273 NA
ATOM      5  C   UNL     1       3.544   6.862  -5.162  0.00  0.00    +0.073 C 
ATOM      6  C   UNL     1       2.080   7.137  -5.080  0.00  0.00    +0.032 C 
ENDROOT
BRANCH   1   7
ATOM      7  C   UNL     1       1.214   5.751  -3.200  0.00  0.00    -0.013 A 
ATOM      8  C   UNL     1       2.173   6.264  -2.363  0.00  0.00    -0.004 A 
ATOM      9  C   UNL     1       1.781   6.544  -1.060  0.00  0.00    -0.000 A 
ATOM     10  C   UNL     1       0.537   6.171  -0.580  0.00  0.00    -0.000 A 
ATOM     11  C   UNL     1      -0.125   5.200  -1.314  0.00  0.00    -0.000 A 
ATOM     12  C   UNL     1       0.147   5.066  -2.669  0.00  0.00    -0.004 A 
ENDBRANCH   1   7
BRANCH   1  13
ATOM     13  C   UNL     1      -0.168   6.281  -5.070  0.00  0.00    +0.320 C 
ATOM     14  O   UNL     1      -0.634   5.640  -6.059  0.00  0.00    -0.250 OA
BRANCH  13  15
ATOM     15  O   UNL     1      -0.540   7.618  -4.963  0.00  0.00    -0.448 OA
BRANCH  15  17
ATOM     16  C   UNL     1      -2.137   7.741  -3.248  0.00  0.00    +0.051 C 
ATOM     17  C   UNL     1      -1.884   7.962  -4.735  0.00  0.00    +0.209 C 
ENDBRANCH  15  17
ENDBRANCH  13  15
ENDBRANCH   1  13
BRANCH   4  18
ATOM     18  C   UNL     1       4.502   5.647  -7.022  0.00  0.00    +0.074 C 
BRANCH  18  19
ATOM     19  C   UNL     1       3.656   5.022  -8.097  0.00  0.00    +0.040 C 
BRANCH  19  20
ATOM     20  C   UNL     1       3.415   5.933  -9.272  0.00  0.00    +0.118 C 
BRANCH  20  21
ATOM     21  C   UNL     1       4.651   6.070 -10.105  0.00  0.00    -0.006 A 
ATOM     22  C   UNL     1       5.795   5.352  -9.819  0.00  0.00    -0.003 A 
ATOM     23  C   UNL     1       7.021   5.891 -10.109  0.00  0.00    -0.000 A 
ATOM     24  C   UNL     1       7.163   7.175 -10.591  0.00  0.00    -0.000 A 
ATOM     25  C   UNL     1       6.040   7.848 -11.009  0.00  0.00    -0.000 A 
ATOM     26  C   UNL     1       4.800   7.271 -10.782  0.00  0.00    -0.003 A 
ENDBRANCH  20  21
BRANCH  20  27
ATOM     27  C   UNL     1       2.358   5.395 -10.179  0.00  0.00    -0.006 A 
ATOM     28  C   UNL     1       2.339   5.683 -11.537  0.00  0.00    -0.003 A 
ATOM     29  C   UNL     1       1.155   5.588 -12.259  0.00  0.00    -0.000 A 
ATOM     30  C   UNL     1       0.043   5.029 -11.665  0.00  0.00    -0.000 A 
ATOM     31  C   UNL     1       0.263   4.278 -10.521  0.00  0.00    -0.000 A 
ATOM     32  C   UNL     1       1.341   4.600  -9.708  0.00  0.00    -0.003 A 
ENDBRANCH  20  27
BRANCH  20  33
ATOM     33  C   UNL     1       3.006   7.257  -8.770  0.00  0.00    +0.079 C 
ATOM     34  N   UNL     1       2.525   8.185  -8.249  0.00  0.00    -0.195 NA
ENDBRANCH  20  33
ENDBRANCH  19  20
ENDBRANCH  18  19
ENDBRANCH   4  18
TORSDOF 10
ENDMDL
MODEL 3
REMARK VINA RESULT:      -8.7      2.347      8.006
REMARK  Name = 
REMARK  10 active torsions:
REMARK  status: ('A' for Active; 'I' for Inactive)
REMARK    1  A    between atoms: C_2  and  O_3
REMARK    2  A    between atoms: O_3  and  C_4
REMARK    3  A    between atoms: C_4  and  C_6
REMARK    4  A    between atoms: C_6  and  C_7
REMARK    5  A    between atoms: N_15  and  C_16
REMARK    6  A    between atoms: C_16  and  C_17
REMARK    7  A    between atoms: C_17  and  C_18
REMARK    8  A    between atoms: C_18  and  C_19
REMARK    9  A    between atoms: C_18  and  C_21
REMARK   10  A    between atoms: C_18  and  C_27
REMARK                            x       y       z     vdW  Elec       q    Type
REMARK                         _______ _______ _______ _____ _____    ______ ____
ROOT
ATOM      1  C   UNL     1       3.690   5.914 -10.142  0.00  0.00    +0.111 C 
ATOM      2  C   UNL     1       2.729   6.903  -9.548  0.00  0.00    +0.032 C 
ATOM      3  C   UNL     1       2.631   6.821  -8.054  0.00  0.00    +0.073 C 
ATOM      4  N   UNL     1       2.508   5.513  -7.526  0.00  0.00    -0.273 NA
ATOM      5  C   UNL     1       3.316   4.501  -8.090  0.00  0.00    +0.073 C 
ATOM      6  C   UNL     1       3.501   4.542  -9.569  0.00  0.00    +0.032 C 
ENDROOT
BRANCH   1   7
ATOM      7  C   UNL     1       5.097   6.400 -10.022  0.00  0.00    -0.013 A 
ATOM      8  C   UNL     1       6.051   5.730  -9.297  0.00  0.00    -0.004 A 
ATOM      9  C   UNL     1       7.369   5.879  -9.710  0.00  0.00    -0.000 A 
ATOM     10  C   UNL     1       7.723   6.786 -10.695  0.00  0.00    -0.000 A 
ATOM     11  C   UNL     1       6.792   7.775 -10.965  0.00  0.00    -0.000 A 
ATOM     12  C   UNL     1       5.448   7.530 -10.721  0.00  0.00    -0.004 A 
ENDBRANCH   1   7
BRANCH   1  13
ATOM     13  C   UNL     1       3.418   5.813 -11.610  0.00  0.00    +0.320 C 
ATOM     14  O   UNL     1       2.199   5.733 -11.950  0.00  0.00    -0.250 OA
BRANCH  13  15
ATOM     15  O   UNL     1       4.321   5.050 -12.344  0.00  0.00    -0.448 OA
BRANCH  15  17
ATOM     16  C   UNL     1       6.154   5.432 -13.760  0.00  0.00    +0.051 C 
ATOM     17  C   UNL     1       4.632   5.402 -13.670  0.00  0.00    +0.209 C 
ENDBRANCH  15  17
ENDBRANCH  13  15
ENDBRANCH   1  13
BRANCH   4  18
ATOM     18  C   UNL     1       1.220   5.131  -7.057  0.00  0.00    +0.074 C 
BRANCH  18  19
ATOM     19  C   UNL     1       1.199   4.590  -5.654  0.00  0.00    +0.040 C 
BRANCH  19  20
ATOM     20  C   UNL     1       1.206   5.666  -4.600  0.00  0.00    +0.118 C 
BRANCH  20  21
ATOM     21  C   UNL     1       0.486   5.213  -3.368  0.00  0.00    -0.006 A 
ATOM     22  C   UNL     1      -0.888   5.300  -3.265  0.00  0.00    -0.003 A 
ATOM     23  C   UNL     1      -1.461   5.506  -2.037  0.00  0.00    -0.000 A 
ATOM     24  C   UNL     1      -0.708   5.730  -0.904  0.00  0.00    -0.000 A 
ATOM     25  C   UNL     1       0.648   5.510  -0.962  0.00  0.00    -0.000 A 
ATOM     26  C   UNL     1       1.221   5.229  -2.193  0.00  0.00    -0.003 A 
ENDBRANCH  20  21
BRANCH  20  27
ATOM     27  C   UNL     1       2.595   6.007  -4.171  0.00  0.00    -0.006 A 
ATOM     28  C   UNL     1       2.941   7.285  -3.751  0.00  0.00    -0.003 A 
ATOM     29  C   UNL     1       4.264   7.708  -3.807  0.00  0.00    -0.000 A 
ATOM     30  C   UNL     1       5.254   6.796  -4.103  0.00  0.00    -0.000 A 
ATOM     31  C   UNL     1       4.922   5.456  -3.978  0.00  0.00    -0.000 A 
ATOM     32  C   UNL     1       3.603   5.074  -4.186  0.00  0.00    -0.003 A 
ENDBRANCH  20  27
BRANCH  20  33
ATOM     33  C   UNL     1       0.550   6.868  -5.144  0.00  0.00    +0.079 C 
ATOM     34  N   UNL     1      -0.112   7.798  -5.392  0.00  0.00    -0.195 NA
ENDBRANCH  20  33
ENDBRANCH  19  20
ENDBRANCH  18  19
ENDBRANCH   4  18
TORSDOF 10
ENDMDL
MODEL 4
REMARK VINA RESULT:      -8.6      2.084      2.804
REMARK  Name = 
REMARK  10 active torsions:
REMARK  status: ('A' for Active; 'I' for Inactive)
REMARK    1  A    between atoms: C_2  and  O_3
REMARK    2  A    between atoms: O_3  and  C_4
REMARK    3  A    between atoms: C_4  and  C_6
REMARK    4  A    between atoms: C_6  and  C_7
REMARK    5  A    between atoms: N_15  and  C_16
REMARK    6  A    between atoms: C_16  and  C_17
REMARK    7  A    between atoms: C_17  and  C_18
REMARK    8  A    between atoms: C_18  and  C_19
REMARK    9  A    between atoms: C_18  and  C_21
REMARK   10  A    between atoms: C_18  and  C_27
REMARK                            x       y       z     vdW  Elec       q    Type
REMARK                         _______ _______ _______ _____ _____    ______ ____
ROOT
ATOM      1  C   UNL     1       2.941   6.370  -2.964  0.00  0.00    +0.111 C 
ATOM      2  C   UNL     1       3.590   5.073  -3.352  0.00  0.00    +0.032 C 
ATOM      3  C   UNL     1       4.758   5.240  -4.277  0.00  0.00    +0.073 C 
ATOM      4  N   UNL     1       4.550   6.125  -5.362  0.00  0.00    -0.273 NA
ATOM      5  C   UNL     1       3.867   7.333  -5.100  0.00  0.00    +0.073 C 
ATOM      6  C   UNL     1       2.719   7.257  -4.151  0.00  0.00    +0.032 C 
ENDROOT
BRANCH   1   7
ATOM      7  C   UNL     1       3.709   7.044  -1.874  0.00  0.00    -0.013 A 
ATOM      8  C   UNL     1       3.686   8.404  -1.688  0.00  0.00    -0.004 A 
ATOM      9  C   UNL     1       3.890   8.860  -0.392  0.00  0.00    -0.000 A 
ATOM     10  C   UNL     1       4.265   8.003   0.630  0.00  0.00    -0.000 A 
ATOM     11  C   UNL     1       4.782   6.782   0.231  0.00  0.00    -0.000 A 
ATOM     12  C   UNL     1       4.409   6.251  -0.997  0.00  0.00    -0.004 A 
ENDBRANCH   1   7
BRANCH   1  13
ATOM     13  C   UNL     1       1.593   6.070  -2.387  0.00  0.00    +0.320 C 
ATOM     14  O   UNL     1       1.490   4.989  -1.734  0.00  0.00    -0.250 OA
BRANCH  13  15
ATOM     15  O   UNL     1       0.503   6.428  -3.175  0.00  0.00    -0.448 OA
BRANCH  15  17
ATOM     16  C   UNL     1      -0.331   5.478  -5.153  0.00  0.00    +0.051 C 
ATOM     17  C   UNL     1      -0.395   5.445  -3.630  0.00  0.00    +0.209 C 
ENDBRANCH  15  17
ENDBRANCH  13  15
ENDBRANCH   1  13
BRANCH   4  18
ATOM     18  C   UNL     1       4.356   5.533  -6.642  0.00  0.00    +0.074 C 
BRANCH  18  19
ATOM     19  C   UNL     1       3.724   6.440  -7.662  0.00  0.00    +0.040 C 
BRANCH  19  20
ATOM     20  C   UNL     1       3.717   5.860  -9.052  0.00  0.00    +0.118 C 
BRANCH  20  21
ATOM     21  C   UNL     1       2.564   6.388  -9.847  0.00  0.00    -0.006 A 
ATOM     22  C   UNL     1       1.401   6.808  -9.235  0.00  0.00    -0.003 A 
ATOM     23  C   UNL     1       0.206   6.677  -9.894  0.00  0.00    -0.000 A 
ATOM     24  C   UNL     1       0.107   6.047 -11.117  0.00  0.00    -0.000 A 
ATOM     25  C   UNL     1       1.264   5.750 -11.799  0.00  0.00    -0.000 A 
ATOM     26  C   UNL     1       2.478   5.951 -11.160  0.00  0.00    -0.003 A 
ENDBRANCH  20  21
BRANCH  20  27
ATOM     27  C   UNL     1       4.950   6.228  -9.809  0.00  0.00    -0.006 A 
ATOM     28  C   UNL     1       6.121   5.486  -9.713  0.00  0.00    -0.003 A 
ATOM     29  C   UNL     1       7.347   6.065 -10.020  0.00  0.00    -0.000 A 
ATOM     30  C   UNL     1       7.378   7.317 -10.597  0.00  0.00    -0.000 A 
ATOM     31  C   UNL     1       6.195   7.771 -11.160  0.00  0.00    -0.000 A 
ATOM     32  C   UNL     1       4.991   7.332 -10.627  0.00  0.00    -0.003 A 
ENDBRANCH  20  27
BRANCH  20  33
ATOM     33  C   UNL     1       3.620   4.392  -8.954  0.00  0.00    +0.079 C 
ATOM     34  N   UNL     1       3.315   3.267  -8.895  0.00  0.00    -0.195 NA
ENDBRANCH  20  33
ENDBRANCH  19  20
ENDBRANCH  18  19
ENDBRANCH   4  18
TORSDOF 10
ENDMDL
MODEL 5
REMARK VINA RESULT:      -8.6      2.473      8.480
REMARK  Name = 
REMARK  10 active torsions:
REMARK  status: ('A' for Active; 'I' for Inactive)
REMARK    1  A    between atoms: C_2  and  O_3
REMARK    2  A    between atoms: O_3  and  C_4
REMARK    3  A    between atoms: C_4  and  C_6
REMARK    4  A    between atoms: C_6  and  C_7
REMARK    5  A    between atoms: N_15  and  C_16
REMARK    6  A    between atoms: C_16  and  C_17
REMARK    7  A    between atoms: C_17  and  C_18
REMARK    8  A    between atoms: C_18  and  C_19
REMARK    9  A    between atoms: C_18  and  C_21
REMARK   10  A    between atoms: C_18  and  C_27
REMARK                            x       y       z     vdW  Elec       q    Type
REMARK                         _______ _______ _______ _____ _____    ______ ____
ROOT
ATOM      1  C   UNL     1       3.978   6.176 -10.348  0.00  0.00    +0.111 C 
ATOM      2  C   UNL     1       3.160   7.381  -9.981  0.00  0.00    +0.032 C 
ATOM      3  C   UNL     1       2.994   7.566  -8.503  0.00  0.00    +0.073 C 
ATOM      4  N   UNL     1       2.651   6.397  -7.781  0.00  0.00    -0.273 NA
ATOM      5  C   UNL     1       3.314   5.198  -8.124  0.00  0.00    +0.073 C 
ATOM      6  C   UNL     1       3.558   4.963  -9.576  0.00  0.00    +0.032 C 
ENDROOT
BRANCH   1   7
ATOM      7  C   UNL     1       5.438   6.466 -10.219  0.00  0.00    -0.013 A 
ATOM      8  C   UNL     1       6.297   5.642  -9.534  0.00  0.00    -0.004 A 
ATOM      9  C   UNL     1       7.621   5.633  -9.953  0.00  0.00    -0.000 A 
ATOM     10  C   UNL     1       8.090   6.530 -10.899  0.00  0.00    -0.000 A 
ATOM     11  C   UNL     1       7.298   7.645 -11.115  0.00  0.00    -0.000 A 
ATOM     12  C   UNL     1       5.933   7.570 -10.870  0.00  0.00    -0.004 A 
ENDBRANCH   1   7
BRANCH   1  13
ATOM     13  C   UNL     1       3.750   5.872 -11.795  0.00  0.00    +0.320 C 
ATOM     14  O   UNL     1       2.547   5.674 -12.143  0.00  0.00    -0.250 OA
BRANCH  13  15
ATOM     15  O   UNL     1       4.714   5.078 -12.409  0.00  0.00    -0.448 OA
BRANCH  15  17
ATOM     16  C   UNL     1       6.488   5.474 -13.894  0.00  0.00    +0.051 C 
ATOM     17  C   UNL     1       4.987   5.229 -13.780  0.00  0.00    +0.209 C 
ENDBRANCH  15  17
ENDBRANCH  13  15
ENDBRANCH   1  13
BRANCH   4  18
ATOM     18  C   UNL     1       1.302   6.291  -7.339  0.00  0.00    +0.074 C 
BRANCH  18  19
ATOM     19  C   UNL     1       1.024   6.947  -6.014  0.00  0.00    +0.040 C 
BRANCH  19  20
ATOM     20  C   UNL     1       1.048   5.984  -4.856  0.00  0.00    +0.118 C 
BRANCH  20  21
ATOM     21  C   UNL     1       2.315   6.124  -4.070  0.00  0.00    -0.006 A 
ATOM     22  C   UNL     1       2.758   7.356  -3.634  0.00  0.00    -0.003 A 
ATOM     23  C   UNL     1       4.104   7.585  -3.513  0.00  0.00    -0.000 A 
ATOM     24  C   UNL     1       5.045   6.656  -3.906  0.00  0.00    -0.000 A 
ATOM     25  C   UNL     1       4.625   5.383  -4.209  0.00  0.00    -0.000 A 
ATOM     26  C   UNL     1       3.262   5.130  -4.261  0.00  0.00    -0.003 A 
ENDBRANCH  20  21
BRANCH  20  27
ATOM     27  C   UNL     1      -0.068   6.245  -3.899  0.00  0.00    -0.006 A 
ATOM     28  C   UNL     1      -0.224   5.507  -2.733  0.00  0.00    -0.003 A 
ATOM     29  C   UNL     1      -1.466   5.427  -2.114  0.00  0.00    -0.000 A 
ATOM     30  C   UNL     1      -2.496   6.232  -2.555  0.00  0.00    -0.000 A 
ATOM     31  C   UNL     1      -2.142   7.316  -3.343  0.00  0.00    -0.000 A 
ATOM     32  C   UNL     1      -1.005   7.222  -4.135  0.00  0.00    -0.003 A 
ENDBRANCH  20  27
BRANCH  20  33
ATOM     33  C   UNL     1       0.937   4.610  -5.377  0.00  0.00    +0.079 C 
ATOM     34  N   UNL     1       0.868   3.624  -5.999  0.00  0.00    -0.195 NA
ENDBRANCH  20  33
ENDBRANCH  19  20
ENDBRANCH  18  19
ENDBRANCH   4  18
TORSDOF 10
ENDMDL
MODEL 6
REMARK VINA RESULT:      -8.5      2.173      4.264
REMARK  Name = 
REMARK  10 active torsions:
REMARK  status: ('A' for Active; 'I' for Inactive)
REMARK    1  A    between atoms: C_2  and  O_3
REMARK    2  A    between atoms: O_3  and  C_4
REMARK    3  A    between atoms: C_4  and  C_6
REMARK    4  A    between atoms: C_6  and  C_7
REMARK    5  A    between atoms: N_15  and  C_16
REMARK    6  A    between atoms: C_16  and  C_17
REMARK    7  A    between atoms: C_17  and  C_18
REMARK    8  A    between atoms: C_18  and  C_19
REMARK    9  A    between atoms: C_18  and  C_21
REMARK   10  A    between atoms: C_18  and  C_27
REMARK                            x       y       z     vdW  Elec       q    Type
REMARK                         _______ _______ _______ _____ _____    ______ ____
ROOT
ATOM      1  C   UNL     1       0.349   5.842  -3.851  0.00  0.00    +0.111 C 
ATOM      2  C   UNL     1       0.631   7.097  -4.625  0.00  0.00    +0.032 C 
ATOM      3  C   UNL     1      -0.143   7.200  -5.904  0.00  0.00    +0.073 C 
ATOM      4  N   UNL     1      -0.160   6.027  -6.698  0.00  0.00    -0.273 NA
ATOM      5  C   UNL     1      -0.334   4.792  -6.036  0.00  0.00    +0.073 C 
ATOM      6  C   UNL     1       0.369   4.630  -4.731  0.00  0.00    +0.032 C 
ENDROOT
BRANCH   1   7
ATOM      7  C   UNL     1      -0.919   5.970  -3.073  0.00  0.00    -0.013 A 
ATOM      8  C   UNL     1      -1.107   6.942  -2.122  0.00  0.00    -0.004 A 
ATOM      9  C   UNL     1      -2.413   7.364  -1.909  0.00  0.00    -0.000 A 
ATOM     10  C   UNL     1      -3.489   6.723  -2.500  0.00  0.00    -0.000 A 
ATOM     11  C   UNL     1      -3.238   5.452  -2.988  0.00  0.00    -0.000 A 
ATOM     12  C   UNL     1      -1.949   5.113  -3.378  0.00  0.00    -0.004 A 
ENDBRANCH   1   7
BRANCH   1  13
ATOM     13  C   UNL     1       1.433   5.660  -2.835  0.00  0.00    +0.320 C 
ATOM     14  O   UNL     1       1.205   4.817  -1.916  0.00  0.00    -0.250 OA
BRANCH  13  15
ATOM     15  O   UNL     1       2.119   6.813  -2.465  0.00  0.00    -0.448 OA
BRANCH  15  17
ATOM     16  C   UNL     1       3.667   7.993  -1.154  0.00  0.00    +0.051 C 
ATOM     17  C   UNL     1       2.501   7.011  -1.127  0.00  0.00    +0.209 C 
ENDBRANCH  15  17
ENDBRANCH  13  15
ENDBRANCH   1  13
BRANCH   4  18
ATOM     18  C   UNL     1       0.657   6.032  -7.863  0.00  0.00    +0.074 C 
BRANCH  18  19
ATOM     19  C   UNL     1       1.939   6.805  -7.726  0.00  0.00    +0.040 C 
BRANCH  19  20
ATOM     20  C   UNL     1       3.151   5.926  -7.562  0.00  0.00    +0.118 C 
BRANCH  20  21
ATOM     21  C   UNL     1       4.261   6.370  -8.463  0.00  0.00    -0.006 A 
ATOM     22  C   UNL     1       4.004   6.987  -9.670  0.00  0.00    -0.003 A 
ATOM     23  C   UNL     1       4.875   6.817 -10.714  0.00  0.00    -0.000 A 
ATOM     24  C   UNL     1       5.958   5.967 -10.635  0.00  0.00    -0.000 A 
ATOM     25  C   UNL     1       6.306   5.458  -9.407  0.00  0.00    -0.000 A 
ATOM     26  C   UNL     1       5.462   5.690  -8.331  0.00  0.00    -0.003 A 
ENDBRANCH  20  21
BRANCH  20  27
ATOM     27  C   UNL     1       3.692   5.987  -6.171  0.00  0.00    -0.006 A 
ATOM     28  C   UNL     1       3.968   7.194  -5.542  0.00  0.00    -0.003 A 
ATOM     29  C   UNL     1       4.874   7.246  -4.489  0.00  0.00    -0.000 A 
ATOM     30  C   UNL     1       5.353   6.070  -3.950  0.00  0.00    -0.000 A 
ATOM     31  C   UNL     1       4.644   4.916  -4.246  0.00  0.00    -0.000 A 
ATOM     32  C   UNL     1       3.957   4.847  -5.451  0.00  0.00    -0.003 A 
ENDBRANCH  20  27
BRANCH  20  33
ATOM     33  C   UNL     1       2.777   4.537  -7.884  0.00  0.00    +0.079 C 
ATOM     34  N   UNL     1       2.543   3.495  -8.356  0.00  0.00    -0.195 NA
ENDBRANCH  20  33
ENDBRANCH  19  20
ENDBRANCH  18  19
ENDBRANCH   4  18
TORSDOF 10
ENDMDL
MODEL 7
REMARK VINA RESULT:      -8.5      2.824      4.821
REMARK  Name = 
REMARK  10 active torsions:
REMARK  status: ('A' for Active; 'I' for Inactive)
REMARK    1  A    between atoms: C_2  and  O_3
REMARK    2  A    between atoms: O_3  and  C_4
REMARK    3  A    between atoms: C_4  and  C_6
REMARK    4  A    between atoms: C_6  and  C_7
REMARK    5  A    between atoms: N_15  and  C_16
REMARK    6  A    between atoms: C_16  and  C_17
REMARK    7  A    between atoms: C_17  and  C_18
REMARK    8  A    between atoms: C_18  and  C_19
REMARK    9  A    between atoms: C_18  and  C_21
REMARK   10  A    between atoms: C_18  and  C_27
REMARK                            x       y       z     vdW  Elec       q    Type
REMARK                         _______ _______ _______ _____ _____    ______ ____
ROOT
ATOM      1  C   UNL     1       2.940   6.331  -2.035  0.00  0.00    +0.111 C 
ATOM      2  C   UNL     1       3.706   5.200  -2.658  0.00  0.00    +0.032 C 
ATOM      3  C   UNL     1       4.577   5.623  -3.802  0.00  0.00    +0.073 C 
ATOM      4  N   UNL     1       3.965   6.487  -4.742  0.00  0.00    -0.273 NA
ATOM      5  C   UNL     1       3.154   7.529  -4.241  0.00  0.00    +0.073 C 
ATOM      6  C   UNL     1       2.291   7.198  -3.071  0.00  0.00    +0.032 C 
ENDROOT
BRANCH   1   7
ATOM      7  C   UNL     1       3.803   7.104  -1.093  0.00  0.00    -0.013 A 
ATOM      8  C   UNL     1       3.700   8.465  -0.945  0.00  0.00    -0.004 A 
ATOM      9  C   UNL     1       4.056   8.987   0.292  0.00  0.00    -0.000 A 
ATOM     10  C   UNL     1       4.644   8.202   1.270  0.00  0.00    -0.000 A 
ATOM     11  C   UNL     1       5.192   7.008   0.834  0.00  0.00    -0.000 A 
ATOM     12  C   UNL     1       4.686   6.402  -0.308  0.00  0.00    -0.004 A 
ENDBRANCH   1   7
BRANCH   1  13
ATOM     13  C   UNL     1       1.839   5.755  -1.200  0.00  0.00    +0.320 C 
ATOM     14  O   UNL     1       1.927   4.518  -0.933  0.00  0.00    -0.250 OA
BRANCH  13  15
ATOM     15  O   UNL     1       0.563   6.248  -1.453  0.00  0.00    -0.448 OA
BRANCH  15  17
ATOM     16  C   UNL     1      -1.586   7.080  -1.009  0.00  0.00    +0.051 C 
ATOM     17  C   UNL     1      -0.247   6.691  -0.392  0.00  0.00    +0.209 C 
ENDBRANCH  15  17
ENDBRANCH  13  15
ENDBRANCH   1  13
BRANCH   4  18
ATOM     18  C   UNL     1       3.591   5.913  -5.989  0.00  0.00    +0.074 C 
BRANCH  18  19
ATOM     19  C   UNL     1       2.493   6.645  -6.711  0.00  0.00    +0.040 C 
BRANCH  19  20
ATOM     20  C   UNL     1       1.378   5.743  -7.173  0.00  0.00    +0.118 C 
BRANCH  20  21
ATOM     21  C   UNL     1       0.055   6.223  -6.663  0.00  0.00    -0.006 A 
ATOM     22  C   UNL     1      -0.045   6.948  -5.493  0.00  0.00    -0.003 A 
ATOM     23  C   UNL     1      -1.173   6.836  -4.723  0.00  0.00    -0.000 A 
ATOM     24  C   UNL     1      -2.181   5.944  -5.024  0.00  0.00    -0.000 A 
ATOM     25  C   UNL     1      -2.163   5.320  -6.249  0.00  0.00    -0.000 A 
ATOM     26  C   UNL     1      -1.053   5.491  -7.062  0.00  0.00    -0.003 A 
ENDBRANCH  20  21
BRANCH  20  27
ATOM     27  C   UNL     1       1.269   5.721  -8.662  0.00  0.00    -0.006 A 
ATOM     28  C   UNL     1       1.170   6.888  -9.409  0.00  0.00    -0.003 A 
ATOM     29  C   UNL     1       0.613   6.861 -10.682  0.00  0.00    -0.000 A 
ATOM     30  C   UNL     1       0.333   5.648 -11.273  0.00  0.00    -0.000 A 
ATOM     31  C   UNL     1       0.943   4.532 -10.720  0.00  0.00    -0.000 A 
ATOM     32  C   UNL     1       1.246   4.541  -9.365  0.00  0.00    -0.003 A 
ENDBRANCH  20  27
BRANCH  20  33
ATOM     33  C   UNL     1       1.636   4.379  -6.678  0.00  0.00    +0.079 C 
ATOM     34  N   UNL     1       1.711   3.365  -6.104  0.00  0.00    -0.195 NA
ENDBRANCH  20  33
ENDBRANCH  19  20
ENDBRANCH  18  19
ENDBRANCH   4  18
TORSDOF 10
ENDMDL
MODEL 8
REMARK VINA RESULT:      -8.4      1.892      3.948
REMARK  Name = 
REMARK  10 active torsions:
REMARK  status: ('A' for Active; 'I' for Inactive)
REMARK    1  A    between atoms: C_2  and  O_3
REMARK    2  A    between atoms: O_3  and  C_4
REMARK    3  A    between atoms: C_4  and  C_6
REMARK    4  A    between atoms: C_6  and  C_7
REMARK    5  A    between atoms: N_15  and  C_16
REMARK    6  A    between atoms: C_16  and  C_17
REMARK    7  A    between atoms: C_17  and  C_18
REMARK    8  A    between atoms: C_18  and  C_19
REMARK    9  A    between atoms: C_18  and  C_21
REMARK   10  A    between atoms: C_18  and  C_27
REMARK                            x       y       z     vdW  Elec       q    Type
REMARK                         _______ _______ _______ _____ _____    ______ ____
ROOT
ATOM      1  C   UNL     1       2.371   5.985  -3.819  0.00  0.00    +0.111 C 
ATOM      2  C   UNL     1       2.737   4.641  -4.379  0.00  0.00    +0.032 C 
ATOM      3  C   UNL     1       4.143   4.569  -4.894  0.00  0.00    +0.073 C 
ATOM      4  N   UNL     1       4.548   5.658  -5.703  0.00  0.00    -0.273 NA
ATOM      5  C   UNL     1       4.168   6.955  -5.292  0.00  0.00    +0.073 C 
ATOM      6  C   UNL     1       2.797   7.099  -4.724  0.00  0.00    +0.032 C 
ENDROOT
BRANCH   1   7
ATOM      7  C   UNL     1       2.889   6.140  -2.427  0.00  0.00    -0.013 A 
ATOM      8  C   UNL     1       3.343   5.078  -1.685  0.00  0.00    -0.004 A 
ATOM      9  C   UNL     1       4.312   5.352  -0.729  0.00  0.00    -0.000 A 
ATOM     10  C   UNL     1       4.682   6.651  -0.420  0.00  0.00    -0.000 A 
ATOM     11  C   UNL     1       3.797   7.639  -0.820  0.00  0.00    -0.000 A 
ATOM     12  C   UNL     1       2.966   7.411  -1.908  0.00  0.00    -0.004 A 
ENDBRANCH   1   7
BRANCH   1  13
ATOM     13  C   UNL     1       0.880   6.060  -3.708  0.00  0.00    +0.320 C 
ATOM     14  O   UNL     1       0.326   5.178  -2.986  0.00  0.00    -0.250 OA
BRANCH  13  15
ATOM     15  O   UNL     1       0.203   6.431  -4.867  0.00  0.00    -0.448 OA
BRANCH  15  17
ATOM     16  C   UNL     1      -0.446   5.603  -6.965  0.00  0.00    +0.051 C 
ATOM     17  C   UNL     1      -0.714   5.549  -5.465  0.00  0.00    +0.209 C 
ENDBRANCH  15  17
ENDBRANCH  13  15
ENDBRANCH   1  13
BRANCH   4  18
ATOM     18  C   UNL     1       4.633   5.419  -7.103  0.00  0.00    +0.074 C 
BRANCH  18  19
ATOM     19  C   UNL     1       3.307   5.238  -7.789  0.00  0.00    +0.040 C 
BRANCH  19  20
ATOM     20  C   UNL     1       3.116   6.156  -8.969  0.00  0.00    +0.118 C 
BRANCH  20  21
ATOM     21  C   UNL     1       4.373   6.260  -9.775  0.00  0.00    -0.006 A 
ATOM     22  C   UNL     1       4.884   7.485 -10.155  0.00  0.00    -0.003 A 
ATOM     23  C   UNL     1       5.577   7.591 -11.332  0.00  0.00    -0.000 A 
ATOM     24  C   UNL     1       5.702   6.534 -12.209  0.00  0.00    -0.000 A 
ATOM     25  C   UNL     1       5.322   5.282 -11.786  0.00  0.00    -0.000 A 
ATOM     26  C   UNL     1       4.685   5.162 -10.561  0.00  0.00    -0.003 A 
ENDBRANCH  20  21
BRANCH  20  27
ATOM     27  C   UNL     1       2.064   5.647  -9.898  0.00  0.00    -0.006 A 
ATOM     28  C   UNL     1       1.605   6.400 -10.971  0.00  0.00    -0.003 A 
ATOM     29  C   UNL     1       0.355   6.146 -11.523  0.00  0.00    -0.000 A 
ATOM     30  C   UNL     1      -0.346   5.027 -11.126  0.00  0.00    -0.000 A 
ATOM     31  C   UNL     1       0.377   4.041 -10.473  0.00  0.00    -0.000 A 
ATOM     32  C   UNL     1       1.487   4.412  -9.727  0.00  0.00    -0.003 A 
ENDBRANCH  20  27
BRANCH  20  33
ATOM     33  C   UNL     1       2.732   7.490  -8.474  0.00  0.00    +0.079 C 
ATOM     34  N   UNL     1       2.237   8.438  -8.004  0.00  0.00    -0.195 NA
ENDBRANCH  20  33
ENDBRANCH  19  20
ENDBRANCH  18  19
ENDBRANCH   4  18
TORSDOF 10
ENDMDL
MODEL 9
REMARK VINA RESULT:      -8.3      1.729      2.832
REMARK  Name = 
REMARK  10 active torsions:
REMARK  status: ('A' for Active; 'I' for Inactive)
REMARK    1  A    between atoms: C_2  and  O_3
REMARK    2  A    between atoms: O_3  and  C_4
REMARK    3  A    between atoms: C_4  and  C_6
REMARK    4  A    between atoms: C_6  and  C_7
REMARK    5  A    between atoms: N_15  and  C_16
REMARK    6  A    between atoms: C_16  and  C_17
REMARK    7  A    between atoms: C_17  and  C_18
REMARK    8  A    between atoms: C_18  and  C_19
REMARK    9  A    between atoms: C_18  and  C_21
REMARK   10  A    between atoms: C_18  and  C_27
REMARK                            x       y       z     vdW  Elec       q    Type
REMARK                         _______ _______ _______ _____ _____    ______ ____
ROOT
ATOM      1  C   UNL     1       0.556   5.701  -3.870  0.00  0.00    +0.111 C 
ATOM      2  C   UNL     1       1.398   6.926  -4.086  0.00  0.00    +0.032 C 
ATOM      3  C   UNL     1       1.424   7.392  -5.510  0.00  0.00    +0.073 C 
ATOM      4  N   UNL     1       1.630   6.377  -6.476  0.00  0.00    -0.273 NA
ATOM      5  C   UNL     1       0.942   5.156  -6.299  0.00  0.00    +0.073 C 
ATOM      6  C   UNL     1       0.832   4.649  -4.901  0.00  0.00    +0.032 C 
ENDROOT
BRANCH   1   7
ATOM      7  C   UNL     1      -0.891   6.058  -3.781  0.00  0.00    -0.013 A 
ATOM      8  C   UNL     1      -1.872   5.322  -4.399  0.00  0.00    -0.004 A 
ATOM      9  C   UNL     1      -3.129   5.336  -3.807  0.00  0.00    -0.000 A 
ATOM     10  C   UNL     1      -3.424   6.179  -2.749  0.00  0.00    -0.000 A 
ATOM     11  C   UNL     1      -2.556   7.242  -2.566  0.00  0.00    -0.000 A 
ATOM     12  C   UNL     1      -1.241   7.130  -2.996  0.00  0.00    -0.004 A 
ENDBRANCH   1   7
BRANCH   1  13
ATOM     13  C   UNL     1       0.913   5.111  -2.541  0.00  0.00    +0.320 C 
ATOM     14  O   UNL     1      -0.053   4.683  -1.841  0.00  0.00    -0.250 OA
BRANCH  13  15
ATOM     15  O   UNL     1       1.949   5.739  -1.856  0.00  0.00    -0.448 OA
BRANCH  15  17
ATOM     16  C   UNL     1       3.926   5.908  -0.604  0.00  0.00    +0.051 C 
ATOM     17  C   UNL     1       3.142   5.046  -1.587  0.00  0.00    +0.209 C 
ENDBRANCH  15  17
ENDBRANCH  13  15
ENDBRANCH   1  13
BRANCH   4  18
ATOM     18  C   UNL     1       2.920   6.315  -7.074  0.00  0.00    +0.074 C 
BRANCH  18  19
ATOM     19  C   UNL     1       3.039   7.044  -8.384  0.00  0.00    +0.040 C 
BRANCH  19  20
ATOM     20  C   UNL     1       3.362   6.138  -9.543  0.00  0.00    +0.118 C 
BRANCH  20  21
ATOM     21  C   UNL     1       2.408   6.356 -10.676  0.00  0.00    -0.006 A 
ATOM     22  C   UNL     1       1.077   6.646 -10.450  0.00  0.00    -0.003 A 
ATOM     23  C   UNL     1       0.133   6.230 -11.351  0.00  0.00    -0.000 A 
ATOM     24  C   UNL     1       0.451   5.441 -12.436  0.00  0.00    -0.000 A 
ATOM     25  C   UNL     1       1.777   5.261 -12.752  0.00  0.00    -0.000 A 
ATOM     26  C   UNL     1       2.737   5.746 -11.876  0.00  0.00    -0.003 A 
ENDBRANCH  20  21
BRANCH  20  27
ATOM     27  C   UNL     1       4.726   6.407 -10.089  0.00  0.00    -0.006 A 
ATOM     28  C   UNL     1       5.803   5.574  -9.818  0.00  0.00    -0.003 A 
ATOM     29  C   UNL     1       7.104   6.053  -9.917  0.00  0.00    -0.000 A 
ATOM     30  C   UNL     1       7.327   7.298 -10.465  0.00  0.00    -0.000 A 
ATOM     31  C   UNL     1       6.289   7.846 -11.204  0.00  0.00    -0.000 A 
ATOM     32  C   UNL     1       4.984   7.504 -10.875  0.00  0.00    -0.003 A 
ENDBRANCH  20  27
BRANCH  20  33
ATOM     33  C   UNL     1       3.281   4.739  -9.089  0.00  0.00    +0.079 C 
ATOM     34  N   UNL     1       3.002   3.637  -8.818  0.00  0.00    -0.195 NA
ENDBRANCH  20  33
ENDBRANCH  19  20
ENDBRANCH  18  19
ENDBRANCH   4  18
TORSDOF 10
ENDMDL
