MODEL 1
REMARK VINA RESULT:      -6.1      0.000      0.000
REMARK  Name = 
REMARK  2 active torsions:
REMARK  status: ('A' for Active; 'I' for Inactive)
REMARK    1  A    between atoms: N_4  and  C_5
REMARK    2  A    between atoms: C_5  and  C_7
REMARK                            x       y       z     vdW  Elec       q    Type
REMARK                         _______ _______ _______ _____ _____    ______ ____
ROOT
ATOM      1  C   UNL     1       1.128   5.855  -3.498  0.00  0.00    +0.189 A 
ATOM      2  C   UNL     1       0.776   5.322  -2.267  0.00  0.00    +0.195 A 
ATOM      3  N   UNL     1       1.861   5.003  -1.387  0.00  0.00    -0.105 NA
ATOM      4  N   UNL     1      -0.514   5.106  -1.912  0.00  0.00    -0.206 NA
ATOM      5  C   UNL     1      -1.493   5.504  -2.759  0.00  0.00    +0.200 A 
ATOM      6  N   UNL     1      -2.735   4.820  -2.876  0.00  0.00    -0.105 NA
ATOM      7  C   UNL     1      -1.129   6.406  -3.750  0.00  0.00    +0.173 A 
ATOM      8 CL   UNL     1      -2.405   7.419  -4.417  0.00  0.00    -0.058 Cl
ATOM      9  N   UNL     1       0.152   6.504  -4.179  0.00  0.00    -0.222 NA
ENDROOT
BRANCH   1  10
ATOM     10  C   UNL     1       2.302   5.340  -4.212  0.00  0.00    +0.363 C 
ATOM     11  O   UNL     1       2.054   4.631  -5.233  0.00  0.00    -0.247 OA
BRANCH  10  14
ATOM     12  N   UNL     1       3.095   7.301  -6.021  0.00  0.00    +0.134 NA
ATOM     13  C   UNL     1       3.850   7.033  -4.835  0.00  0.00    +0.532 C 
ATOM     14  N   UNL     1       3.572   5.972  -4.163  0.00  0.00    +0.013 NA
ATOM     15  N   UNL     1       4.794   8.008  -4.428  0.00  0.00    +0.134 NA
ENDBRANCH  10  14
ENDBRANCH   1  10
TORSDOF 2
ENDMDL
MODEL 2
REMARK VINA RESULT:      -6.1      5.927      7.777
REMARK  Name = 
REMARK  2 active torsions:
REMARK  status: ('A' for Active; 'I' for Inactive)
REMARK    1  A    between atoms: N_4  and  C_5
REMARK    2  A    between atoms: C_5  and  C_7
REMARK                            x       y       z     vdW  Elec       q    Type
REMARK                         _______ _______ _______ _____ _____    ______ ____
ROOT
ATOM      1  C   UNL     1       4.460   5.998  -9.867  0.00  0.00    +0.189 A 
ATOM      2  C   UNL     1       3.114   6.279 -10.045  0.00  0.00    +0.195 A 
ATOM      3  N   UNL     1       2.621   6.173 -11.385  0.00  0.00    -0.105 NA
ATOM      4  N   UNL     1       2.307   6.638  -9.016  0.00  0.00    -0.206 NA
ATOM      5  C   UNL     1       2.818   6.641  -7.763  0.00  0.00    +0.200 A 
ATOM      6  N   UNL     1       2.387   7.550  -6.757  0.00  0.00    -0.105 NA
ATOM      7  C   UNL     1       4.008   5.950  -7.575  0.00  0.00    +0.173 A 
ATOM      8 CL   UNL     1       4.353   5.379  -5.946  0.00  0.00    -0.058 Cl
ATOM      9  N   UNL     1       4.862   5.722  -8.602  0.00  0.00    -0.222 NA
ENDROOT
BRANCH   1  10
ATOM     10  C   UNL     1       5.440   6.443 -10.866  0.00  0.00    +0.363 C 
ATOM     11  O   UNL     1       5.566   7.698 -10.988  0.00  0.00    -0.247 OA
BRANCH  10  14
ATOM     12  N   UNL     1       5.461   4.980 -13.232  0.00  0.00    +0.134 NA
ATOM     13  C   UNL     1       6.653   5.166 -12.462  0.00  0.00    +0.532 C 
ATOM     14  N   UNL     1       6.541   5.645 -11.273  0.00  0.00    +0.013 NA
ATOM     15  N   UNL     1       7.891   4.898 -13.098  0.00  0.00    +0.134 NA
ENDBRANCH  10  14
ENDBRANCH   1  10
TORSDOF 2
ENDMDL
MODEL 3
REMARK VINA RESULT:      -6.0      6.865      9.465
REMARK  Name = 
REMARK  2 active torsions:
REMARK  status: ('A' for Active; 'I' for Inactive)
REMARK    1  A    between atoms: N_4  and  C_5
REMARK    2  A    between atoms: C_5  and  C_7
REMARK                            x       y       z     vdW  Elec       q    Type
REMARK                         _______ _______ _______ _____ _____    ______ ____
ROOT
ATOM      1  C   UNL     1       4.239   5.691 -10.825  0.00  0.00    +0.189 A 
ATOM      2  C   UNL     1       4.228   5.423 -12.186  0.00  0.00    +0.195 A 
ATOM      3  N   UNL     1       2.937   5.352 -12.802  0.00  0.00    -0.105 NA
ATOM      4  N   UNL     1       5.367   5.231 -12.896  0.00  0.00    -0.206 NA
ATOM      5  C   UNL     1       6.555   5.392 -12.268  0.00  0.00    +0.200 A 
ATOM      6  N   UNL     1       7.715   4.644 -12.612  0.00  0.00    -0.105 NA
ATOM      7  C   UNL     1       6.533   6.072 -11.058  0.00  0.00    +0.173 A 
ATOM      8 CL   UNL     1       8.025   6.857 -10.553  0.00  0.00    -0.058 Cl
ATOM      9  N   UNL     1       5.409   6.132 -10.303  0.00  0.00    -0.222 NA
ENDROOT
BRANCH   1  10
ATOM     10  C   UNL     1       3.227   5.086  -9.950  0.00  0.00    +0.363 C 
ATOM     11  O   UNL     1       3.623   4.105  -9.252  0.00  0.00    -0.247 OA
BRANCH  10  14
ATOM     12  N   UNL     1       0.608   4.359 -10.547  0.00  0.00    +0.134 NA
ATOM     13  C   UNL     1       0.898   5.336  -9.543  0.00  0.00    +0.532 C 
ATOM     14  N   UNL     1       2.097   5.799  -9.472  0.00  0.00    +0.013 NA
ATOM     15  N   UNL     1      -0.135   5.660  -8.628  0.00  0.00    +0.134 NA
ENDBRANCH  10  14
ENDBRANCH   1  10
TORSDOF 2
ENDMDL
MODEL 4
REMARK VINA RESULT:      -5.9      3.037      5.406
REMARK  Name = 
REMARK  2 active torsions:
REMARK  status: ('A' for Active; 'I' for Inactive)
REMARK    1  A    between atoms: N_4  and  C_5
REMARK    2  A    between atoms: C_5  and  C_7
REMARK                            x       y       z     vdW  Elec       q    Type
REMARK                         _______ _______ _______ _____ _____    ______ ____
ROOT
ATOM      1  C   UNL     1      -0.363   6.267  -5.493  0.00  0.00    +0.189 A 
ATOM      2  C   UNL     1      -1.138   5.652  -6.465  0.00  0.00    +0.195 A 
ATOM      3  N   UNL     1      -2.492   5.364  -6.100  0.00  0.00    -0.105 NA
ATOM      4  N   UNL     1      -0.647   5.333  -7.688  0.00  0.00    -0.206 NA
ATOM      5  C   UNL     1       0.617   5.705  -7.995  0.00  0.00    +0.200 A 
ATOM      6  N   UNL     1       1.455   4.946  -8.858  0.00  0.00    -0.105 NA
ATOM      7  C   UNL     1       1.194   6.676  -7.187  0.00  0.00    +0.173 A 
ATOM      8 CL   UNL     1       2.494   7.633  -7.889  0.00  0.00    -0.058 Cl
ATOM      9  N   UNL     1       0.768   6.881  -5.917  0.00  0.00    -0.222 NA
ENDROOT
BRANCH   1  10
ATOM     10  C   UNL     1      -0.496   5.867  -4.086  0.00  0.00    +0.363 C 
ATOM     11  O   UNL     1       0.411   5.099  -3.648  0.00  0.00    -0.247 OA
BRANCH  10  14
ATOM     12  N   UNL     1      -2.638   4.881  -2.608  0.00  0.00    +0.134 NA
ATOM     13  C   UNL     1      -2.021   6.130  -2.282  0.00  0.00    +0.532 C 
ATOM     14  N   UNL     1      -1.199   6.643  -3.129  0.00  0.00    +0.013 NA
ATOM     15  N   UNL     1      -2.284   6.674  -1.000  0.00  0.00    +0.134 NA
ENDBRANCH  10  14
ENDBRANCH   1  10
TORSDOF 2
ENDMDL
MODEL 5
REMARK VINA RESULT:      -5.9      1.518      1.858
REMARK  Name = 
REMARK  2 active torsions:
REMARK  status: ('A' for Active; 'I' for Inactive)
REMARK    1  A    between atoms: N_4  and  C_5
REMARK    2  A    between atoms: C_5  and  C_7
REMARK                            x       y       z     vdW  Elec       q    Type
REMARK                         _______ _______ _______ _____ _____    ______ ____
ROOT
ATOM      1  C   UNL     1       0.863   5.607  -4.833  0.00  0.00    +0.189 A 
ATOM      2  C   UNL     1       0.942   5.411  -3.462  0.00  0.00    +0.195 A 
ATOM      3  N   UNL     1       2.260   5.274  -2.921  0.00  0.00    -0.105 NA
ATOM      4  N   UNL     1      -0.161   5.344  -2.676  0.00  0.00    -0.206 NA
ATOM      5  C   UNL     1      -1.372   5.561  -3.240  0.00  0.00    +0.200 A 
ATOM      6  N   UNL     1      -2.559   4.923  -2.785  0.00  0.00    -0.105 NA
ATOM      7  C   UNL     1      -1.377   6.173  -4.487  0.00  0.00    +0.173 A 
ATOM      8 CL   UNL     1      -2.838   7.042  -4.945  0.00  0.00    -0.058 Cl
ATOM      9  N   UNL     1      -0.303   6.108  -5.309  0.00  0.00    -0.222 NA
ENDROOT
BRANCH   1  10
ATOM     10  C   UNL     1       1.770   4.882  -5.731  0.00  0.00    +0.363 C 
ATOM     11  O   UNL     1       1.459   3.676  -5.966  0.00  0.00    -0.247 OA
BRANCH  10  14
ATOM     12  N   UNL     1       4.511   5.239  -5.406  0.00  0.00    +0.134 NA
ATOM     13  C   UNL     1       3.872   5.489  -6.662  0.00  0.00    +0.532 C 
ATOM     14  N   UNL     1       2.586   5.534  -6.692  0.00  0.00    +0.013 NA
ATOM     15  N   UNL     1       4.698   5.578  -7.809  0.00  0.00    +0.134 NA
ENDBRANCH  10  14
ENDBRANCH   1  10
TORSDOF 2
ENDMDL
MODEL 6
REMARK VINA RESULT:      -5.8      6.232      8.782
REMARK  Name = 
REMARK  2 active torsions:
REMARK  status: ('A' for Active; 'I' for Inactive)
REMARK    1  A    between atoms: N_4  and  C_5
REMARK    2  A    between atoms: C_5  and  C_7
REMARK                            x       y       z     vdW  Elec       q    Type
REMARK                         _______ _______ _______ _____ _____    ______ ____
ROOT
ATOM      1  C   UNL     1       5.009   5.781  -9.893  0.00  0.00    +0.189 A 
ATOM      2  C   UNL     1       4.230   6.083 -11.000  0.00  0.00    +0.195 A 
ATOM      3  N   UNL     1       2.890   6.508 -10.729  0.00  0.00    -0.105 NA
ATOM      4  N   UNL     1       4.700   5.978 -12.268  0.00  0.00    -0.206 NA
ATOM      5  C   UNL     1       6.000   5.647 -12.450  0.00  0.00    +0.200 A 
ATOM      6  N   UNL     1       6.454   4.893 -13.567  0.00  0.00    -0.105 NA
ATOM      7  C   UNL     1       6.837   5.781 -11.350  0.00  0.00    +0.173 A 
ATOM      8 CL   UNL     1       8.553   6.004 -11.672  0.00  0.00    -0.058 Cl
ATOM      9  N   UNL     1       6.350   5.748 -10.085  0.00  0.00    -0.222 NA
ENDROOT
BRANCH   1  10
ATOM     10  C   UNL     1       4.416   5.082  -8.747  0.00  0.00    +0.363 C 
ATOM     11  O   UNL     1       3.914   3.945  -8.999  0.00  0.00    -0.247 OA
BRANCH  10  14
ATOM     12  N   UNL     1       3.084   6.852  -7.064  0.00  0.00    +0.134 NA
ATOM     13  C   UNL     1       4.072   5.948  -6.560  0.00  0.00    +0.532 C 
ATOM     14  N   UNL     1       4.814   5.324  -7.407  0.00  0.00    +0.013 NA
ATOM     15  N   UNL     1       4.104   5.728  -5.161  0.00  0.00    +0.134 NA
ENDBRANCH  10  14
ENDBRANCH   1  10
TORSDOF 2
ENDMDL
MODEL 7
REMARK VINA RESULT:      -5.7      3.257      4.192
REMARK  Name = 
REMARK  2 active torsions:
REMARK  status: ('A' for Active; 'I' for Inactive)
REMARK    1  A    between atoms: N_4  and  C_5
REMARK    2  A    between atoms: C_5  and  C_7
REMARK                            x       y       z     vdW  Elec       q    Type
REMARK                         _______ _______ _______ _____ _____    ______ ____
ROOT
ATOM      1  C   UNL     1       1.394   5.841  -7.365  0.00  0.00    +0.189 A 
ATOM      2  C   UNL     1       1.780   6.640  -6.299  0.00  0.00    +0.195 A 
ATOM      3  N   UNL     1       3.017   7.344  -6.456  0.00  0.00    -0.105 NA
ATOM      4  N   UNL     1       1.037   6.748  -5.169  0.00  0.00    -0.206 NA
ATOM      5  C   UNL     1      -0.160   6.119  -5.119  0.00  0.00    +0.200 A 
ATOM      6  N   UNL     1      -0.705   5.596  -3.914  0.00  0.00    -0.105 NA
ATOM      7  C   UNL     1      -0.697   5.706  -6.331  0.00  0.00    +0.173 A 
ATOM      8 CL   UNL     1      -2.444   5.503  -6.404  0.00  0.00    -0.058 Cl
ATOM      9  N   UNL     1       0.090   5.476  -7.410  0.00  0.00    -0.222 NA
ENDROOT
BRANCH   1  10
ATOM     10  C   UNL     1       2.399   5.061  -8.098  0.00  0.00    +0.363 C 
ATOM     11  O   UNL     1       2.446   3.826  -7.816  0.00  0.00    -0.247 OA
BRANCH  10  14
ATOM     12  N   UNL     1       5.101   5.490  -8.604  0.00  0.00    +0.134 NA
ATOM     13  C   UNL     1       4.148   5.414  -9.669  0.00  0.00    +0.532 C 
ATOM     14  N   UNL     1       2.897   5.448  -9.369  0.00  0.00    +0.013 NA
ATOM     15  N   UNL     1       4.647   5.209 -10.979  0.00  0.00    +0.134 NA
ENDBRANCH  10  14
ENDBRANCH   1  10
TORSDOF 2
ENDMDL
MODEL 8
REMARK VINA RESULT:      -5.7      2.331      2.717
REMARK  Name = 
REMARK  2 active torsions:
REMARK  status: ('A' for Active; 'I' for Inactive)
REMARK    1  A    between atoms: N_4  and  C_5
REMARK    2  A    between atoms: C_5  and  C_7
REMARK                            x       y       z     vdW  Elec       q    Type
REMARK                         _______ _______ _______ _____ _____    ______ ____
ROOT
ATOM      1  C   UNL     1       1.314   6.201  -5.187  0.00  0.00    +0.189 A 
ATOM      2  C   UNL     1       0.891   5.052  -5.839  0.00  0.00    +0.195 A 
ATOM      3  N   UNL     1       1.910   4.097  -6.155  0.00  0.00    -0.105 NA
ATOM      4  N   UNL     1      -0.408   4.842  -6.165  0.00  0.00    -0.206 NA
ATOM      5  C   UNL     1      -1.331   5.748  -5.765  0.00  0.00    +0.200 A 
ATOM      6  N   UNL     1      -2.504   6.035  -6.516  0.00  0.00    -0.105 NA
ATOM      7  C   UNL     1      -0.944   6.631  -4.766  0.00  0.00    +0.173 A 
ATOM      8 CL   UNL     1      -2.222   7.343  -3.788  0.00  0.00    -0.058 Cl
ATOM      9  N   UNL     1       0.362   6.925  -4.550  0.00  0.00    -0.222 NA
ENDROOT
BRANCH   1  10
ATOM     10  C   UNL     1       2.584   6.834  -5.566  0.00  0.00    +0.363 C 
ATOM     11  O   UNL     1       2.594   7.404  -6.698  0.00  0.00    -0.247 OA
BRANCH  10  14
ATOM     12  N   UNL     1       4.744   5.286  -4.739  0.00  0.00    +0.134 NA
ATOM     13  C   UNL     1       4.655   6.676  -4.409  0.00  0.00    +0.532 C 
ATOM     14  N   UNL     1       3.537   7.279  -4.613  0.00  0.00    +0.013 NA
ATOM     15  N   UNL     1       5.837   7.320  -3.966  0.00  0.00    +0.134 NA
ENDBRANCH  10  14
ENDBRANCH   1  10
TORSDOF 2
ENDMDL
MODEL 9
REMARK VINA RESULT:      -5.7      2.667      5.212
REMARK  Name = 
REMARK  2 active torsions:
REMARK  status: ('A' for Active; 'I' for Inactive)
REMARK    1  A    between atoms: N_4  and  C_5
REMARK    2  A    between atoms: C_5  and  C_7
REMARK                            x       y       z     vdW  Elec       q    Type
REMARK                         _______ _______ _______ _____ _____    ______ ____
ROOT
ATOM      1  C   UNL     1       1.298   6.361  -4.960  0.00  0.00    +0.189 A 
ATOM      2  C   UNL     1       1.689   5.123  -5.447  0.00  0.00    +0.195 A 
ATOM      3  N   UNL     1       0.707   4.406  -6.203  0.00  0.00    -0.105 NA
ATOM      4  N   UNL     1       2.924   4.613  -5.219  0.00  0.00    -0.206 NA
ATOM      5  C   UNL     1       3.830   5.377  -4.565  0.00  0.00    +0.200 A 
ATOM      6  N   UNL     1       4.830   4.829  -3.716  0.00  0.00    -0.105 NA
ATOM      7  C   UNL     1       3.555   6.736  -4.485  0.00  0.00    +0.173 A 
ATOM      8 CL   UNL     1       4.925   7.818  -4.258  0.00  0.00    -0.058 Cl
ATOM      9  N   UNL     1       2.288   7.207  -4.583  0.00  0.00    -0.222 NA
ENDROOT
BRANCH   1  10
ATOM     10  C   UNL     1      -0.063   6.549  -4.441  0.00  0.00    +0.363 C 
ATOM     11  O   UNL     1      -0.737   7.470  -4.992  0.00  0.00    -0.247 OA
BRANCH  10  14
ATOM     12  N   UNL     1      -0.615   6.536  -1.713  0.00  0.00    +0.134 NA
ATOM     13  C   UNL     1      -1.254   5.618  -2.606  0.00  0.00    +0.532 C 
ATOM     14  N   UNL     1      -0.793   5.513  -3.803  0.00  0.00    +0.013 NA
ATOM     15  N   UNL     1      -2.414   4.953  -2.139  0.00  0.00    +0.134 NA
ENDBRANCH  10  14
ENDBRANCH   1  10
TORSDOF 2
ENDMDL
