MODEL 1
REMARK VINA RESULT:      -2.7      0.000      0.000
REMARK  Name = 
REMARK  0 active torsions:
REMARK  status: ('A' for Active; 'I' for Inactive)
REMARK                            x       y       z     vdW  Elec       q    Type
REMARK                         _______ _______ _______ _____ _____    ______ ____
ROOT
ATOM      1  O   UNL     1       7.646   4.608 -12.770  0.00  0.00    -0.197 OA
ATOM      2  C   UNL     1       8.255   5.413 -12.012  0.00  0.00    +0.592 C 
ATOM      3  O   UNL     1       9.471   5.982 -12.367  0.00  0.00    -0.197 OA
ATOM      4  O   UNL     1       7.931   5.393 -10.660  0.00  0.00    -0.197 OA
ENDROOT
TORSDOF 0
ENDMDL
MODEL 2
REMARK VINA RESULT:      -2.7      0.190      2.030
REMARK  Name = 
REMARK  0 active torsions:
REMARK  status: ('A' for Active; 'I' for Inactive)
REMARK                            x       y       z     vdW  Elec       q    Type
REMARK                         _______ _______ _______ _____ _____    ______ ____
ROOT
ATOM      1  O   UNL     1       9.486   5.893 -12.264  0.00  0.00    -0.197 OA
ATOM      2  C   UNL     1       8.314   5.508 -11.996  0.00  0.00    +0.592 C 
ATOM      3  O   UNL     1       7.765   5.648 -10.728  0.00  0.00    -0.197 OA
ATOM      4  O   UNL     1       7.739   4.564 -12.839  0.00  0.00    -0.197 OA
ENDROOT
TORSDOF 0
ENDMDL
MODEL 3
REMARK VINA RESULT:      -2.4      1.917      2.434
REMARK  Name = 
REMARK  0 active torsions:
REMARK  status: ('A' for Active; 'I' for Inactive)
REMARK                            x       y       z     vdW  Elec       q    Type
REMARK                         _______ _______ _______ _____ _____    ______ ____
ROOT
ATOM      1  O   UNL     1       5.586   4.859 -13.458  0.00  0.00    -0.197 OA
ATOM      2  C   UNL     1       6.728   5.391 -13.363  0.00  0.00    +0.592 C 
ATOM      3  O   UNL     1       7.838   4.678 -12.927  0.00  0.00    -0.197 OA
ATOM      4  O   UNL     1       6.786   6.777 -13.278  0.00  0.00    -0.197 OA
ENDROOT
TORSDOF 0
ENDMDL
MODEL 4
REMARK VINA RESULT:      -2.4     13.107     13.673
REMARK  Name = 
REMARK  0 active torsions:
REMARK  status: ('A' for Active; 'I' for Inactive)
REMARK                            x       y       z     vdW  Elec       q    Type
REMARK                         _______ _______ _______ _____ _____    ______ ____
ROOT
ATOM      1  O   UNL     1      -2.823   4.713  -2.660  0.00  0.00    -0.197 OA
ATOM      2  C   UNL     1      -1.758   5.391  -2.639  0.00  0.00    +0.592 C 
ATOM      3  O   UNL     1      -1.417   6.259  -3.668  0.00  0.00    -0.197 OA
ATOM      4  O   UNL     1      -0.732   4.951  -1.811  0.00  0.00    -0.197 OA
ENDROOT
TORSDOF 0
ENDMDL
MODEL 5
REMARK VINA RESULT:      -2.4     13.077     13.677
REMARK  Name = 
REMARK  0 active torsions:
REMARK  status: ('A' for Active; 'I' for Inactive)
REMARK                            x       y       z     vdW  Elec       q    Type
REMARK                         _______ _______ _______ _____ _____    ______ ____
ROOT
ATOM      1  O   UNL     1      -1.342   6.185  -3.583  0.00  0.00    -0.197 OA
ATOM      2  C   UNL     1      -1.621   5.406  -2.629  0.00  0.00    +0.592 C 
ATOM      3  O   UNL     1      -0.648   4.929  -1.760  0.00  0.00    -0.197 OA
ATOM      4  O   UNL     1      -2.808   4.689  -2.712  0.00  0.00    -0.197 OA
ENDROOT
TORSDOF 0
ENDMDL
MODEL 6
REMARK VINA RESULT:      -2.3     13.656     14.254
REMARK  Name = 
REMARK  0 active torsions:
REMARK  status: ('A' for Active; 'I' for Inactive)
REMARK                            x       y       z     vdW  Elec       q    Type
REMARK                         _______ _______ _______ _____ _____    ______ ____
ROOT
ATOM      1  O   UNL     1      10.950   2.990   0.975  0.00  0.00    -0.197 OA
ATOM      2  C   UNL     1      11.484   3.776   1.807  0.00  0.00    +0.592 C 
ATOM      3  O   UNL     1      10.808   4.221   2.936  0.00  0.00    -0.197 OA
ATOM      4  O   UNL     1      12.569   4.529   1.374  0.00  0.00    -0.197 OA
ENDROOT
TORSDOF 0
ENDMDL
MODEL 7
REMARK VINA RESULT:      -2.3      7.766      7.918
REMARK  Name = 
REMARK  0 active torsions:
REMARK  status: ('A' for Active; 'I' for Inactive)
REMARK                            x       y       z     vdW  Elec       q    Type
REMARK                         _______ _______ _______ _____ _____    ______ ____
ROOT
ATOM      1  O   UNL     1       2.109   8.371  -7.895  0.00  0.00    -0.197 OA
ATOM      2  C   UNL     1       2.542   7.312  -7.360  0.00  0.00    +0.592 C 
ATOM      3  O   UNL     1       1.993   6.068  -7.644  0.00  0.00    -0.197 OA
ATOM      4  O   UNL     1       3.262   7.437  -6.178  0.00  0.00    -0.197 OA
ENDROOT
TORSDOF 0
ENDMDL
MODEL 8
REMARK VINA RESULT:      -2.2      8.045      8.320
REMARK  Name = 
REMARK  0 active torsions:
REMARK  status: ('A' for Active; 'I' for Inactive)
REMARK                            x       y       z     vdW  Elec       q    Type
REMARK                         _______ _______ _______ _____ _____    ______ ____
ROOT
ATOM      1  O   UNL     1       1.194   6.659  -6.735  0.00  0.00    -0.197 OA
ATOM      2  C   UNL     1       2.226   7.341  -6.989  0.00  0.00    +0.592 C 
ATOM      3  O   UNL     1       3.300   7.405  -6.111  0.00  0.00    -0.197 OA
ATOM      4  O   UNL     1       2.109   8.357  -7.929  0.00  0.00    -0.197 OA
ENDROOT
TORSDOF 0
ENDMDL
MODEL 9
REMARK VINA RESULT:      -2.2     13.220     13.949
REMARK  Name = 
REMARK  0 active torsions:
REMARK  status: ('A' for Active; 'I' for Inactive)
REMARK                            x       y       z     vdW  Elec       q    Type
REMARK                         _______ _______ _______ _____ _____    ______ ____
ROOT
ATOM      1  O   UNL     1      10.308   2.234   0.427  0.00  0.00    -0.197 OA
ATOM      2  C   UNL     1      10.741   2.776   1.482  0.00  0.00    +0.592 C 
ATOM      3  O   UNL     1      11.599   3.868   1.450  0.00  0.00    -0.197 OA
ATOM      4  O   UNL     1      10.709   2.024   2.651  0.00  0.00    -0.197 OA
ENDROOT
TORSDOF 0
ENDMDL
