MODEL 1
REMARK VINA RESULT:      -8.5      0.000      0.000
REMARK  Name = 
REMARK  5 active torsions:
REMARK  status: ('A' for Active; 'I' for Inactive)
REMARK    1  A    between atoms: C_2  and  O_3
REMARK    2  A    between atoms: O_3  and  C_4
REMARK    3  A    between atoms: C_4  and  C_6
REMARK    4  A    between atoms: C_9  and  C_10
REMARK    5  A    between atoms: C_11  and  C_12
REMARK                            x       y       z     vdW  Elec       q    Type
REMARK                         _______ _______ _______ _____ _____    ______ ____
ROOT
ATOM      1  C   UNL     1       2.467   7.008  -8.123  0.00  0.00    -0.040 C 
ATOM      2  C   UNL     1       1.824   6.783  -7.114  0.00  0.00    -0.058 C 
ENDROOT
BRANCH   2   3
ATOM      3  C   UNL     1       1.145   6.241  -5.958  0.00  0.00    +0.042 A 
ATOM      4  C   UNL     1      -0.137   6.655  -5.718  0.00  0.00    +0.004 A 
ATOM      5  C   UNL     1      -0.775   6.498  -4.493  0.00  0.00    -0.016 A 
ATOM      6  C   UNL     1      -2.247   6.554  -4.523  0.00  0.00    +0.020 C 
ATOM      7  C   UNL     1      -2.905   6.408  -3.192  0.00  0.00    +0.016 C 
ATOM      8  C   UNL     1      -2.150   7.025  -2.049  0.00  0.00    +0.062 C 
ATOM      9  S   UNL     1      -0.633   6.027  -1.848  0.00  0.00    -0.114 S 
ATOM     10  C   UNL     1      -2.705   5.377  -5.377  0.00  0.00    +0.004 C 
ATOM     11  C   UNL     1      -2.751   7.819  -5.174  0.00  0.00    +0.004 C 
ATOM     12  C   UNL     1      -0.046   5.801  -3.536  0.00  0.00    +0.021 A 
ATOM     13  C   UNL     1       1.240   5.374  -3.732  0.00  0.00    +0.006 A 
ATOM     14  C   UNL     1       1.890   5.726  -4.905  0.00  0.00    +0.009 A 
ENDBRANCH   2   3
BRANCH   1  18
ATOM     15  C   UNL     1       4.579   5.338 -11.318  0.00  0.00    +0.095 A 
ATOM     16  C   UNL     1       3.354   5.961 -11.526  0.00  0.00    +0.106 A 
ATOM     17  N   UNL     1       2.709   6.584 -10.523  0.00  0.00    -0.235 NA
ATOM     18  C   UNL     1       3.267   6.791  -9.307  0.00  0.00    +0.123 A 
ATOM     19  C   UNL     1       4.597   6.415  -9.186  0.00  0.00    +0.028 A 
ATOM     20  C   UNL     1       5.272   5.741 -10.194  0.00  0.00    +0.010 A 
BRANCH  15  21
ATOM     21  C   UNL     1       5.386   5.095 -12.521  0.00  0.00    +0.343 C 
ATOM     22  O   UNL     1       4.755   4.626 -13.511  0.00  0.00    -0.245 OA
BRANCH  21  23
ATOM     23  O   UNL     1       6.758   4.874 -12.463  0.00  0.00    -0.445 OA
BRANCH  23  25
ATOM     24  C   UNL     1       8.927   5.908 -12.158  0.00  0.00    +0.051 C 
ATOM     25  C   UNL     1       7.706   5.751 -13.058  0.00  0.00    +0.209 C 
ENDBRANCH  23  25
ENDBRANCH  21  23
ENDBRANCH  15  21
ENDBRANCH   1  18
TORSDOF 5
ENDMDL
MODEL 2
REMARK VINA RESULT:      -8.2      5.106      9.886
REMARK  Name = 
REMARK  5 active torsions:
REMARK  status: ('A' for Active; 'I' for Inactive)
REMARK    1  A    between atoms: C_2  and  O_3
REMARK    2  A    between atoms: O_3  and  C_4
REMARK    3  A    between atoms: C_4  and  C_6
REMARK    4  A    between atoms: C_9  and  C_10
REMARK    5  A    between atoms: C_11  and  C_12
REMARK                            x       y       z     vdW  Elec       q    Type
REMARK                         _______ _______ _______ _____ _____    ______ ____
ROOT
ATOM      1  C   UNL     1      -0.448   5.422  -7.640  0.00  0.00    -0.040 C 
ATOM      2  C   UNL     1       0.260   5.705  -8.588  0.00  0.00    -0.058 C 
ENDROOT
BRANCH   2   3
ATOM      3  C   UNL     1       1.294   6.120  -9.511  0.00  0.00    +0.042 A 
ATOM      4  C   UNL     1       1.159   5.763 -10.824  0.00  0.00    +0.004 A 
ATOM      5  C   UNL     1       2.209   5.785 -11.735  0.00  0.00    -0.016 A 
ATOM      6  C   UNL     1       1.826   5.833 -13.157  0.00  0.00    +0.020 C 
ATOM      7  C   UNL     1       2.971   5.831 -14.113  0.00  0.00    +0.016 C 
ATOM      8  C   UNL     1       4.150   5.008 -13.677  0.00  0.00    +0.062 C 
ATOM      9  S   UNL     1       4.853   5.863 -12.223  0.00  0.00    -0.114 S 
ATOM     10  C   UNL     1       1.081   7.148 -13.359  0.00  0.00    +0.004 C 
ATOM     11  C   UNL     1       0.886   4.710 -13.526  0.00  0.00    +0.004 C 
ATOM     12  C   UNL     1       3.407   6.288 -11.239  0.00  0.00    +0.021 A 
ATOM     13  C   UNL     1       3.587   6.651  -9.932  0.00  0.00    +0.006 A 
ATOM     14  C   UNL     1       2.559   6.429  -9.028  0.00  0.00    +0.009 A 
ENDBRANCH   2   3
BRANCH   1  18
ATOM     15  C   UNL     1      -1.677   6.106  -3.705  0.00  0.00    +0.095 A 
ATOM     16  C   UNL     1      -2.603   5.788  -4.692  0.00  0.00    +0.106 A 
ATOM     17  N   UNL     1      -2.211   5.474  -5.941  0.00  0.00    -0.235 NA
ATOM     18  C   UNL     1      -0.915   5.285  -6.279  0.00  0.00    +0.123 A 
ATOM     19  C   UNL     1      -0.009   5.328  -5.228  0.00  0.00    +0.028 A 
ATOM     20  C   UNL     1      -0.383   5.683  -3.940  0.00  0.00    +0.010 A 
BRANCH  15  21
ATOM     21  C   UNL     1      -2.152   5.989  -2.320  0.00  0.00    +0.343 C 
ATOM     22  O   UNL     1      -2.679   4.879  -2.021  0.00  0.00    -0.245 OA
BRANCH  21  23
ATOM     23  O   UNL     1      -2.502   7.099  -1.559  0.00  0.00    -0.445 OA
BRANCH  23  25
ATOM     24  C   UNL     1      -1.787   6.969   0.752  0.00  0.00    +0.051 C 
ATOM     25  C   UNL     1      -1.633   7.674  -0.591  0.00  0.00    +0.209 C 
ENDBRANCH  23  25
ENDBRANCH  21  23
ENDBRANCH  15  21
ENDBRANCH   1  18
TORSDOF 5
ENDMDL
MODEL 3
REMARK VINA RESULT:      -8.2      4.714      9.951
REMARK  Name = 
REMARK  5 active torsions:
REMARK  status: ('A' for Active; 'I' for Inactive)
REMARK    1  A    between atoms: C_2  and  O_3
REMARK    2  A    between atoms: O_3  and  C_4
REMARK    3  A    between atoms: C_4  and  C_6
REMARK    4  A    between atoms: C_9  and  C_10
REMARK    5  A    between atoms: C_11  and  C_12
REMARK                            x       y       z     vdW  Elec       q    Type
REMARK                         _______ _______ _______ _____ _____    ______ ____
ROOT
ATOM      1  C   UNL     1       2.388   7.045  -7.309  0.00  0.00    -0.040 C 
ATOM      2  C   UNL     1       2.976   6.806  -8.348  0.00  0.00    -0.058 C 
ENDROOT
BRANCH   2   3
ATOM      3  C   UNL     1       3.564   6.255  -9.549  0.00  0.00    +0.042 A 
ATOM      4  C   UNL     1       4.802   6.703  -9.918  0.00  0.00    +0.004 A 
ATOM      5  C   UNL     1       5.329   6.535 -11.194  0.00  0.00    -0.016 A 
ATOM      6  C   UNL     1       6.795   6.639 -11.303  0.00  0.00    +0.020 C 
ATOM      7  C   UNL     1       7.330   6.478 -12.686  0.00  0.00    +0.016 C 
ATOM      8  C   UNL     1       6.452   7.039 -13.767  0.00  0.00    +0.062 C 
ATOM      9  S   UNL     1       4.958   5.988 -13.801  0.00  0.00    -0.114 S 
ATOM     10  C   UNL     1       7.371   5.500 -10.468  0.00  0.00    +0.004 C 
ATOM     11  C   UNL     1       7.313   7.937 -10.732  0.00  0.00    +0.004 C 
ATOM     12  C   UNL     1       4.539   5.789 -12.061  0.00  0.00    +0.021 A 
ATOM     13  C   UNL     1       3.292   5.326 -11.736  0.00  0.00    +0.006 A 
ATOM     14  C   UNL     1       2.743   5.688 -10.515  0.00  0.00    +0.009 A 
ENDBRANCH   2   3
BRANCH   1  18
ATOM     15  C   UNL     1       0.389   5.451  -4.004  0.00  0.00    +0.095 A 
ATOM     16  C   UNL     1       1.564   6.175  -3.841  0.00  0.00    +0.106 A 
ATOM     17  N   UNL     1       2.167   6.772  -4.886  0.00  0.00    -0.235 NA
ATOM     18  C   UNL     1       1.601   6.853  -6.112  0.00  0.00    +0.123 A 
ATOM     19  C   UNL     1       0.302   6.374  -6.206  0.00  0.00    +0.028 A 
ATOM     20  C   UNL     1      -0.327   5.723  -5.154  0.00  0.00    +0.010 A 
BRANCH  15  21
ATOM     21  C   UNL     1      -0.403   5.234  -2.787  0.00  0.00    +0.343 C 
ATOM     22  O   UNL     1       0.239   4.780  -1.796  0.00  0.00    -0.245 OA
BRANCH  21  23
ATOM     23  O   UNL     1      -1.776   5.018  -2.824  0.00  0.00    -0.445 OA
BRANCH  23  25
ATOM     24  C   UNL     1      -2.258   7.315  -2.227  0.00  0.00    +0.051 C 
ATOM     25  C   UNL     1      -2.708   5.860  -2.156  0.00  0.00    +0.209 C 
ENDBRANCH  23  25
ENDBRANCH  21  23
ENDBRANCH  15  21
ENDBRANCH   1  18
TORSDOF 5
ENDMDL
MODEL 4
REMARK VINA RESULT:      -8.0      1.235      1.707
REMARK  Name = 
REMARK  5 active torsions:
REMARK  status: ('A' for Active; 'I' for Inactive)
REMARK    1  A    between atoms: C_2  and  O_3
REMARK    2  A    between atoms: O_3  and  C_4
REMARK    3  A    between atoms: C_4  and  C_6
REMARK    4  A    between atoms: C_9  and  C_10
REMARK    5  A    between atoms: C_11  and  C_12
REMARK                            x       y       z     vdW  Elec       q    Type
REMARK                         _______ _______ _______ _____ _____    ______ ____
ROOT
ATOM      1  C   UNL     1       2.746   6.312  -7.564  0.00  0.00    -0.040 C 
ATOM      2  C   UNL     1       2.004   6.240  -6.601  0.00  0.00    -0.058 C 
ENDROOT
BRANCH   2   3
ATOM      3  C   UNL     1       1.234   5.887  -5.429  0.00  0.00    +0.042 A 
ATOM      4  C   UNL     1      -0.008   6.443  -5.289  0.00  0.00    +0.004 A 
ATOM      5  C   UNL     1      -0.702   6.474  -4.085  0.00  0.00    -0.016 A 
ATOM      6  C   UNL     1      -2.159   6.666  -4.187  0.00  0.00    +0.020 C 
ATOM      7  C   UNL     1      -2.875   6.720  -2.880  0.00  0.00    +0.016 C 
ATOM      8  C   UNL     1      -2.104   7.377  -1.770  0.00  0.00    +0.062 C 
ATOM      9  S   UNL     1      -0.701   6.265  -1.403  0.00  0.00    -0.114 S 
ATOM     10  C   UNL     1      -2.701   5.457  -4.941  0.00  0.00    +0.004 C 
ATOM     11  C   UNL     1      -2.511   7.900  -4.983  0.00  0.00    +0.004 C 
ATOM     12  C   UNL     1      -0.081   5.813  -3.032  0.00  0.00    +0.021 A 
ATOM     13  C   UNL     1       1.163   5.248  -3.126  0.00  0.00    +0.006 A 
ATOM     14  C   UNL     1       1.886   5.414  -4.297  0.00  0.00    +0.009 A 
ENDBRANCH   2   3
BRANCH   1  18
ATOM     15  C   UNL     1       5.963   6.155 -10.225  0.00  0.00    +0.095 A 
ATOM     16  C   UNL     1       5.933   5.340  -9.100  0.00  0.00    +0.106 A 
ATOM     17  N   UNL     1       4.862   5.314  -8.285  0.00  0.00    -0.235 NA
ATOM     18  C   UNL     1       3.697   5.934  -8.584  0.00  0.00    +0.123 A 
ATOM     19  C   UNL     1       3.633   6.516  -9.842  0.00  0.00    +0.028 A 
ATOM     20  C   UNL     1       4.733   6.586 -10.684  0.00  0.00    +0.010 A 
BRANCH  15  21
ATOM     21  C   UNL     1       6.943   5.787 -11.256  0.00  0.00    +0.343 C 
ATOM     22  O   UNL     1       7.999   6.483 -11.272  0.00  0.00    -0.245 OA
BRANCH  21  23
ATOM     23  O   UNL     1       6.577   5.137 -12.429  0.00  0.00    -0.445 OA
BRANCH  23  25
ATOM     24  C   UNL     1       6.384   6.480 -14.436  0.00  0.00    +0.051 C 
ATOM     25  C   UNL     1       7.181   5.417 -13.687  0.00  0.00    +0.209 C 
ENDBRANCH  23  25
ENDBRANCH  21  23
ENDBRANCH  15  21
ENDBRANCH   1  18
TORSDOF 5
ENDMDL
MODEL 5
REMARK VINA RESULT:      -8.0      5.012      9.148
REMARK  Name = 
REMARK  5 active torsions:
REMARK  status: ('A' for Active; 'I' for Inactive)
REMARK    1  A    between atoms: C_2  and  O_3
REMARK    2  A    between atoms: O_3  and  C_4
REMARK    3  A    between atoms: C_4  and  C_6
REMARK    4  A    between atoms: C_9  and  C_10
REMARK    5  A    between atoms: C_11  and  C_12
REMARK                            x       y       z     vdW  Elec       q    Type
REMARK                         _______ _______ _______ _____ _____    ______ ____
ROOT
ATOM      1  C   UNL     1       3.482   5.488  -6.509  0.00  0.00    -0.040 C 
ATOM      2  C   UNL     1       3.609   5.783  -7.683  0.00  0.00    -0.058 C 
ENDROOT
BRANCH   2   3
ATOM      3  C   UNL     1       3.470   6.137  -9.078  0.00  0.00    +0.042 A 
ATOM      4  C   UNL     1       2.336   5.736  -9.729  0.00  0.00    +0.004 A 
ATOM      5  C   UNL     1       2.220   5.697 -11.114  0.00  0.00    -0.016 A 
ATOM      6  C   UNL     1       0.846   5.703 -11.646  0.00  0.00    +0.020 C 
ATOM      7  C   UNL     1       0.752   5.636 -13.132  0.00  0.00    +0.016 C 
ATOM      8  C   UNL     1       1.810   4.798 -13.790  0.00  0.00    +0.062 C 
ATOM      9  S   UNL     1       3.387   5.686 -13.538  0.00  0.00    -0.114 S 
ATOM     10  C   UNL     1       0.226   7.030 -11.220  0.00  0.00    +0.004 C 
ATOM     11  C   UNL     1       0.009   4.594 -11.057  0.00  0.00    +0.004 C 
ATOM     12  C   UNL     1       3.321   6.185 -11.809  0.00  0.00    +0.021 A 
ATOM     13  C   UNL     1       4.478   6.591 -11.199  0.00  0.00    +0.006 A 
ATOM     14  C   UNL     1       4.603   6.429  -9.828  0.00  0.00    +0.009 A 
ENDBRANCH   2   3
BRANCH   1  18
ATOM     15  C   UNL     1       1.554   5.537  -2.802  0.00  0.00    +0.095 A 
ATOM     16  C   UNL     1       0.888   5.102  -3.942  0.00  0.00    +0.106 A 
ATOM     17  N   UNL     1       1.524   4.993  -5.123  0.00  0.00    -0.235 NA
ATOM     18  C   UNL     1       2.864   5.134  -5.251  0.00  0.00    +0.123 A 
ATOM     19  C   UNL     1       3.567   5.292  -4.065  0.00  0.00    +0.028 A 
ATOM     20  C   UNL     1       2.931   5.442  -2.841  0.00  0.00    +0.010 A 
BRANCH  15  21
ATOM     21  C   UNL     1       0.919   5.198  -1.521  0.00  0.00    +0.343 C 
ATOM     22  O   UNL     1       1.687   4.688  -0.656  0.00  0.00    -0.245 OA
BRANCH  21  23
ATOM     23  O   UNL     1      -0.442   4.940  -1.412  0.00  0.00    -0.445 OA
BRANCH  23  25
ATOM     24  C   UNL     1      -2.589   5.660  -2.274  0.00  0.00    +0.051 C 
ATOM     25  C   UNL     1      -1.420   5.972  -1.346  0.00  0.00    +0.209 C 
ENDBRANCH  23  25
ENDBRANCH  21  23
ENDBRANCH  15  21
ENDBRANCH   1  18
TORSDOF 5
ENDMDL
MODEL 6
REMARK VINA RESULT:      -8.0      1.392      1.845
REMARK  Name = 
REMARK  5 active torsions:
REMARK  status: ('A' for Active; 'I' for Inactive)
REMARK    1  A    between atoms: C_2  and  O_3
REMARK    2  A    between atoms: O_3  and  C_4
REMARK    3  A    between atoms: C_4  and  C_6
REMARK    4  A    between atoms: C_9  and  C_10
REMARK    5  A    between atoms: C_11  and  C_12
REMARK                            x       y       z     vdW  Elec       q    Type
REMARK                         _______ _______ _______ _____ _____    ______ ____
ROOT
ATOM      1  C   UNL     1       2.379   5.382  -6.744  0.00  0.00    -0.040 C 
ATOM      2  C   UNL     1       1.711   5.211  -5.741  0.00  0.00    -0.058 C 
ENDROOT
BRANCH   2   3
ATOM      3  C   UNL     1       1.080   5.223  -4.440  0.00  0.00    +0.042 A 
ATOM      4  C   UNL     1      -0.143   5.826  -4.329  0.00  0.00    +0.004 A 
ATOM      5  C   UNL     1      -0.698   6.216  -3.115  0.00  0.00    -0.016 A 
ATOM      6  C   UNL     1      -2.158   6.406  -3.107  0.00  0.00    +0.020 C 
ATOM      7  C   UNL     1      -2.724   6.848  -1.800  0.00  0.00    +0.016 C 
ATOM      8  C   UNL     1      -1.839   7.773  -1.015  0.00  0.00    +0.062 C 
ATOM      9  S   UNL     1      -0.395   6.778  -0.502  0.00  0.00    -0.114 S 
ATOM     10  C   UNL     1      -2.772   5.046  -3.421  0.00  0.00    +0.004 C 
ATOM     11  C   UNL     1      -2.608   7.371  -4.178  0.00  0.00    +0.004 C 
ATOM     12  C   UNL     1       0.043   5.866  -1.992  0.00  0.00    +0.021 A 
ATOM     13  C   UNL     1       1.273   5.268  -2.057  0.00  0.00    +0.006 A 
ATOM     14  C   UNL     1       1.859   5.076  -3.299  0.00  0.00    +0.009 A 
ENDBRANCH   2   3
BRANCH   1  18
ATOM     15  C   UNL     1       5.021   6.011  -9.920  0.00  0.00    +0.095 A 
ATOM     16  C   UNL     1       3.895   6.810  -9.766  0.00  0.00    +0.106 A 
ATOM     17  N   UNL     1       3.087   6.679  -8.697  0.00  0.00    -0.235 NA
ATOM     18  C   UNL     1       3.393   5.897  -7.636  0.00  0.00    +0.123 A 
ATOM     19  C   UNL     1       4.652   5.314  -7.665  0.00  0.00    +0.028 A 
ATOM     20  C   UNL     1       5.487   5.406  -8.768  0.00  0.00    +0.010 A 
BRANCH  15  21
ATOM     21  C   UNL     1       6.046   6.519 -10.841  0.00  0.00    +0.343 C 
ATOM     22  O   UNL     1       6.140   7.778 -10.904  0.00  0.00    -0.245 OA
BRANCH  21  23
ATOM     23  O   UNL     1       6.500   5.780 -11.928  0.00  0.00    -0.445 OA
BRANCH  23  25
ATOM     24  C   UNL     1       8.870   5.933 -12.401  0.00  0.00    +0.051 C 
ATOM     25  C   UNL     1       7.724   5.056 -11.910  0.00  0.00    +0.209 C 
ENDBRANCH  23  25
ENDBRANCH  21  23
ENDBRANCH  15  21
ENDBRANCH   1  18
TORSDOF 5
ENDMDL
MODEL 7
REMARK VINA RESULT:      -8.0      5.433      8.943
REMARK  Name = 
REMARK  5 active torsions:
REMARK  status: ('A' for Active; 'I' for Inactive)
REMARK    1  A    between atoms: C_2  and  O_3
REMARK    2  A    between atoms: O_3  and  C_4
REMARK    3  A    between atoms: C_4  and  C_6
REMARK    4  A    between atoms: C_9  and  C_10
REMARK    5  A    between atoms: C_11  and  C_12
REMARK                            x       y       z     vdW  Elec       q    Type
REMARK                         _______ _______ _______ _____ _____    ______ ____
ROOT
ATOM      1  C   UNL     1       4.081   5.710  -6.649  0.00  0.00    -0.040 C 
ATOM      2  C   UNL     1       4.022   5.834  -7.859  0.00  0.00    -0.058 C 
ENDROOT
BRANCH   2   3
ATOM      3  C   UNL     1       3.733   6.163  -9.237  0.00  0.00    +0.042 A 
ATOM      4  C   UNL     1       2.545   5.734  -9.762  0.00  0.00    +0.004 A 
ATOM      5  C   UNL     1       2.289   5.671 -11.127  0.00  0.00    -0.016 A 
ATOM      6  C   UNL     1       0.868   5.646 -11.514  0.00  0.00    +0.020 C 
ATOM      7  C   UNL     1       0.622   5.554 -12.982  0.00  0.00    +0.016 C 
ATOM      8  C   UNL     1       1.622   4.723 -13.733  0.00  0.00    +0.062 C 
ATOM      9  S   UNL     1       3.200   5.640 -13.657  0.00  0.00    -0.114 S 
ATOM     10  C   UNL     1       0.271   6.969 -11.045  0.00  0.00    +0.004 C 
ATOM     11  C   UNL     1       0.115   4.533 -10.826  0.00  0.00    +0.004 C 
ATOM     12  C   UNL     1       3.303   6.166 -11.938  0.00  0.00    +0.021 A 
ATOM     13  C   UNL     1       4.510   6.600 -11.457  0.00  0.00    +0.006 A 
ATOM     14  C   UNL     1       4.778   6.461 -10.104  0.00  0.00    +0.009 A 
ENDBRANCH   2   3
BRANCH   1  18
ATOM     15  C   UNL     1       4.208   6.292  -2.514  0.00  0.00    +0.095 A 
ATOM     16  C   UNL     1       3.672   7.264  -3.350  0.00  0.00    +0.106 A 
ATOM     17  N   UNL     1       3.540   7.050  -4.672  0.00  0.00    -0.235 NA
ATOM     18  C   UNL     1       3.756   5.845  -5.247  0.00  0.00    +0.123 A 
ATOM     19  C   UNL     1       4.021   4.802  -4.371  0.00  0.00    +0.028 A 
ATOM     20  C   UNL     1       4.196   5.003  -3.010  0.00  0.00    +0.010 A 
BRANCH  15  21
ATOM     21  C   UNL     1       3.899   6.436  -1.085  0.00  0.00    +0.343 C 
ATOM     22  O   UNL     1       4.856   6.837  -0.362  0.00  0.00    -0.245 OA
BRANCH  21  23
ATOM     23  O   UNL     1       2.878   5.720  -0.470  0.00  0.00    -0.445 OA
BRANCH  23  25
ATOM     24  C   UNL     1       0.771   4.996  -1.421  0.00  0.00    +0.051 C 
ATOM     25  C   UNL     1       1.504   6.061  -0.612  0.00  0.00    +0.209 C 
ENDBRANCH  23  25
ENDBRANCH  21  23
ENDBRANCH  15  21
ENDBRANCH   1  18
TORSDOF 5
ENDMDL
MODEL 8
REMARK VINA RESULT:      -7.8      5.418      9.936
REMARK  Name = 
REMARK  5 active torsions:
REMARK  status: ('A' for Active; 'I' for Inactive)
REMARK    1  A    between atoms: C_2  and  O_3
REMARK    2  A    between atoms: O_3  and  C_4
REMARK    3  A    between atoms: C_4  and  C_6
REMARK    4  A    between atoms: C_9  and  C_10
REMARK    5  A    between atoms: C_11  and  C_12
REMARK                            x       y       z     vdW  Elec       q    Type
REMARK                         _______ _______ _______ _____ _____    ______ ____
ROOT
ATOM      1  C   UNL     1       3.562   5.965  -6.500  0.00  0.00    -0.040 C 
ATOM      2  C   UNL     1       3.879   5.918  -7.675  0.00  0.00    -0.058 C 
ENDROOT
BRANCH   2   3
ATOM      3  C   UNL     1       4.303   5.580  -9.015  0.00  0.00    +0.042 A 
ATOM      4  C   UNL     1       5.468   6.130  -9.475  0.00  0.00    +0.004 A 
ATOM      5  C   UNL     1       5.813   6.178 -10.821  0.00  0.00    -0.016 A 
ATOM      6  C   UNL     1       7.247   6.357 -11.111  0.00  0.00    +0.020 C 
ATOM      7  C   UNL     1       7.586   6.430 -12.561  0.00  0.00    +0.016 C 
ATOM      8  C   UNL     1       6.554   7.112 -13.413  0.00  0.00    +0.062 C 
ATOM      9  S   UNL     1       5.091   6.017 -13.407  0.00  0.00    -0.114 S 
ATOM     10  C   UNL     1       7.957   5.130 -10.549  0.00  0.00    +0.004 C 
ATOM     11  C   UNL     1       7.814   7.574 -10.420  0.00  0.00    +0.004 C 
ATOM     12  C   UNL     1       4.924   5.540 -11.679  0.00  0.00    +0.021 A 
ATOM     13  C   UNL     1       3.745   4.983 -11.263  0.00  0.00    +0.006 A 
ATOM     14  C   UNL     1       3.365   5.133  -9.938  0.00  0.00    +0.009 A 
ENDBRANCH   2   3
BRANCH   1  18
ATOM     15  C   UNL     1       3.531   5.660  -2.333  0.00  0.00    +0.095 A 
ATOM     16  C   UNL     1       2.409   6.108  -3.019  0.00  0.00    +0.106 A 
ATOM     17  N   UNL     1       2.374   6.124  -4.365  0.00  0.00    -0.235 NA
ATOM     18  C   UNL     1       3.336   5.560  -5.131  0.00  0.00    +0.123 A 
ATOM     19  C   UNL     1       4.320   4.864  -4.443  0.00  0.00    +0.028 A 
ATOM     20  C   UNL     1       4.397   4.864  -3.058  0.00  0.00    +0.010 A 
BRANCH  15  21
ATOM     21  C   UNL     1       3.311   5.267  -0.935  0.00  0.00    +0.343 C 
ATOM     22  O   UNL     1       2.278   4.568  -0.725  0.00  0.00    -0.245 OA
BRANCH  21  23
ATOM     23  O   UNL     1       3.830   5.993   0.131  0.00  0.00    -0.445 OA
BRANCH  23  25
ATOM     24  C   UNL     1       5.223   7.577   1.323  0.00  0.00    +0.051 C 
ATOM     25  C   UNL     1       4.875   6.947  -0.022  0.00  0.00    +0.209 C 
ENDBRANCH  23  25
ENDBRANCH  21  23
ENDBRANCH  15  21
ENDBRANCH   1  18
TORSDOF 5
ENDMDL
MODEL 9
REMARK VINA RESULT:      -7.6      1.345      2.925
REMARK  Name = 
REMARK  5 active torsions:
REMARK  status: ('A' for Active; 'I' for Inactive)
REMARK    1  A    between atoms: C_2  and  O_3
REMARK    2  A    between atoms: O_3  and  C_4
REMARK    3  A    between atoms: C_4  and  C_6
REMARK    4  A    between atoms: C_9  and  C_10
REMARK    5  A    between atoms: C_11  and  C_12
REMARK                            x       y       z     vdW  Elec       q    Type
REMARK                         _______ _______ _______ _____ _____    ______ ____
ROOT
ATOM      1  C   UNL     1       1.802   6.133  -8.581  0.00  0.00    -0.040 C 
ATOM      2  C   UNL     1       1.336   6.198  -7.458  0.00  0.00    -0.058 C 
ENDROOT
BRANCH   2   3
ATOM      3  C   UNL     1       1.014   6.444  -6.070  0.00  0.00    +0.042 A 
ATOM      4  C   UNL     1       1.928   6.068  -5.125  0.00  0.00    +0.004 A 
ATOM      5  C   UNL     1       1.621   5.922  -3.777  0.00  0.00    -0.016 A 
ATOM      6  C   UNL     1       2.763   5.977  -2.848  0.00  0.00    +0.020 C 
ATOM      7  C   UNL     1       2.407   5.794  -1.411  0.00  0.00    +0.016 C 
ATOM      8  C   UNL     1       1.278   4.835  -1.162  0.00  0.00    +0.062 C 
ATOM      9  S   UNL     1      -0.220   5.633  -1.838  0.00  0.00    -0.114 S 
ATOM     10  C   UNL     1       3.362   7.373  -2.983  0.00  0.00    +0.004 C 
ATOM     11  C   UNL     1       3.835   4.979  -3.212  0.00  0.00    +0.004 C 
ATOM     12  C   UNL     1       0.322   6.277  -3.429  0.00  0.00    +0.021 A 
ATOM     13  C   UNL     1      -0.626   6.652  -4.343  0.00  0.00    +0.006 A 
ATOM     14  C   UNL     1      -0.314   6.596  -5.692  0.00  0.00    +0.009 A 
ENDBRANCH   2   3
BRANCH   1  18
ATOM     15  C   UNL     1       4.706   5.631 -11.544  0.00  0.00    +0.095 A 
ATOM     16  C   UNL     1       3.354   5.608 -11.865  0.00  0.00    +0.106 A 
ATOM     17  N   UNL     1       2.412   5.861 -10.938  0.00  0.00    -0.235 NA
ATOM     18  C   UNL     1       2.706   6.310  -9.695  0.00  0.00    +0.123 A 
ATOM     19  C   UNL     1       4.043   6.601  -9.464  0.00  0.00    +0.028 A 
ATOM     20  C   UNL     1       5.035   6.317 -10.391  0.00  0.00    +0.010 A 
BRANCH  15  21
ATOM     21  C   UNL     1       5.630   5.789 -12.674  0.00  0.00    +0.343 C 
ATOM     22  O   UNL     1       5.154   6.387 -13.682  0.00  0.00    -0.245 OA
BRANCH  21  23
ATOM     23  O   UNL     1       6.709   4.937 -12.876  0.00  0.00    -0.445 OA
BRANCH  23  25
ATOM     24  C   UNL     1       8.835   6.024 -12.468  0.00  0.00    +0.051 C 
ATOM     25  C   UNL     1       7.858   4.935 -12.037  0.00  0.00    +0.209 C 
ENDBRANCH  23  25
ENDBRANCH  21  23
ENDBRANCH  15  21
ENDBRANCH   1  18
TORSDOF 5
ENDMDL
