MODEL 1
REMARK VINA RESULT:      -8.1      0.000      0.000
REMARK  Name = 
REMARK  6 active torsions:
REMARK  status: ('A' for Active; 'I' for Inactive)
REMARK    1  A    between atoms: C_2  and  N_3
REMARK    2  A    between atoms: N_3  and  C_4
REMARK    3  A    between atoms: N_3  and  C_6
REMARK    4  A    between atoms: C_6  and  C_7
REMARK    5  A    between atoms: C_7  and  N_8
REMARK    6  A    between atoms: C_16  and  C_17
REMARK                            x       y       z     vdW  Elec       q    Type
REMARK                         _______ _______ _______ _____ _____    ______ ____
ROOT
ATOM      1  N   UNL     1       2.543   6.076  -7.663  0.00  0.00    -0.256 N 
ATOM      2  C   UNL     1       1.274   6.148  -8.322  0.00  0.00    +0.254 C 
ATOM      3  O   UNL     1       1.221   6.743  -9.423  0.00  0.00    -0.272 OA
ATOM      4  C   UNL     1       0.029   5.509  -7.793  0.00  0.00    +0.210 C 
ATOM      5  N   UNL     1      -0.343   6.071  -6.500  0.00  0.00    -0.260 NA
ATOM      6  C   UNL     1       0.329   6.044  -5.389  0.00  0.00    +0.080 C 
ATOM      7  C   UNL     1       1.788   6.086  -5.223  0.00  0.00    +0.032 A 
ATOM      8  C   UNL     1       2.082   6.653  -3.988  0.00  0.00    +0.014 A 
ATOM      9  C   UNL     1       3.384   7.058  -3.729  0.00  0.00    +0.058 A 
ATOM     10 CL   UNL     1       3.718   8.338  -2.574  0.00  0.00    -0.082 Cl
ATOM     11  C   UNL     1       4.354   6.590  -4.606  0.00  0.00    +0.013 A 
ATOM     12  C   UNL     1       4.053   6.266  -5.924  0.00  0.00    +0.016 A 
ATOM     13  C   UNL     1       2.731   6.059  -6.243  0.00  0.00    +0.055 A 
ENDROOT
BRANCH   6  14
ATOM     14  C   UNL     1      -0.491   6.203  -4.192  0.00  0.00    +0.045 A 
ATOM     15  C   UNL     1      -1.394   7.258  -4.150  0.00  0.00    +0.142 A 
ATOM     16  F   UNL     1      -1.098   8.432  -4.784  0.00  0.00    -0.204 F 
ATOM     17  C   UNL     1      -2.312   7.212  -3.108  0.00  0.00    +0.030 A 
ATOM     18  C   UNL     1      -2.057   6.504  -1.939  0.00  0.00    +0.002 A 
ATOM     19  C   UNL     1      -0.966   5.646  -1.893  0.00  0.00    +0.000 A 
ATOM     20  C   UNL     1      -0.377   5.336  -3.113  0.00  0.00    +0.004 A 
ENDBRANCH   6  14
BRANCH   1  21
ATOM     21  C   UNL     1       3.683   6.280  -8.516  0.00  0.00    +0.116 C 
BRANCH  21  22
ATOM     22  C   UNL     1       4.103   5.046  -9.266  0.00  0.00    +0.094 C 
BRANCH  22  23
ATOM     23  N   UNL     1       4.969   5.316 -10.380  0.00  0.00    -0.271 NA
BRANCH  23  24
ATOM     24  C   UNL     1       5.940   6.348 -10.131  0.00  0.00    +0.072 C 
ATOM     25  C   UNL     1       7.216   5.720  -9.599  0.00  0.00    +0.019 C 
ENDBRANCH  23  24
BRANCH  23  27
ATOM     26  C   UNL     1       5.176   5.248 -12.833  0.00  0.00    +0.019 C 
ATOM     27  C   UNL     1       4.285   5.466 -11.635  0.00  0.00    +0.072 C 
ENDBRANCH  23  27
ENDBRANCH  22  23
ENDBRANCH  21  22
ENDBRANCH   1  21
TORSDOF 6
ENDMDL
MODEL 2
REMARK VINA RESULT:      -8.0      3.299      8.396
REMARK  Name = 
REMARK  6 active torsions:
REMARK  status: ('A' for Active; 'I' for Inactive)
REMARK    1  A    between atoms: C_2  and  N_3
REMARK    2  A    between atoms: N_3  and  C_4
REMARK    3  A    between atoms: N_3  and  C_6
REMARK    4  A    between atoms: C_6  and  C_7
REMARK    5  A    between atoms: C_7  and  N_8
REMARK    6  A    between atoms: C_16  and  C_17
REMARK                            x       y       z     vdW  Elec       q    Type
REMARK                         _______ _______ _______ _____ _____    ______ ____
ROOT
ATOM      1  N   UNL     1       1.761   5.977  -8.023  0.00  0.00    -0.256 N 
ATOM      2  C   UNL     1       2.998   6.166  -7.329  0.00  0.00    +0.254 C 
ATOM      3  O   UNL     1       2.979   6.840  -6.274  0.00  0.00    -0.272 OA
ATOM      4  C   UNL     1       4.294   5.561  -7.768  0.00  0.00    +0.210 C 
ATOM      5  N   UNL     1       4.685   6.049  -9.085  0.00  0.00    -0.260 NA
ATOM      6  C   UNL     1       4.057   5.907 -10.214  0.00  0.00    +0.080 C 
ATOM      7  C   UNL     1       2.605   5.856 -10.431  0.00  0.00    +0.032 A 
ATOM      8  C   UNL     1       2.328   6.317 -11.713  0.00  0.00    +0.014 A 
ATOM      9  C   UNL     1       1.018   6.631 -12.045  0.00  0.00    +0.058 A 
ATOM     10 CL   UNL     1       0.660   7.806 -13.300  0.00  0.00    -0.082 Cl
ATOM     11  C   UNL     1       0.041   6.174 -11.169  0.00  0.00    +0.013 A 
ATOM     12  C   UNL     1       0.309   5.961  -9.822  0.00  0.00    +0.016 A 
ATOM     13  C   UNL     1       1.627   5.850  -9.443  0.00  0.00    +0.055 A 
ENDROOT
BRANCH   6  14
ATOM     14  C   UNL     1       4.912   6.025 -11.391  0.00  0.00    +0.045 A 
ATOM     15  C   UNL     1       5.769   7.115 -11.472  0.00  0.00    +0.142 A 
ATOM     16  F   UNL     1       5.401   8.312 -10.926  0.00  0.00    -0.204 F 
ATOM     17  C   UNL     1       6.725   7.043 -12.478  0.00  0.00    +0.030 A 
ATOM     18  C   UNL     1       6.544   6.251 -13.605  0.00  0.00    +0.002 A 
ATOM     19  C   UNL     1       5.492   5.343 -13.631  0.00  0.00    +0.000 A 
ATOM     20  C   UNL     1       4.874   5.086 -12.414  0.00  0.00    +0.004 A 
ENDBRANCH   6  14
BRANCH   1  21
ATOM     21  C   UNL     1       0.581   6.178  -7.226  0.00  0.00    +0.116 C 
BRANCH  21  22
ATOM     22  C   UNL     1       0.237   5.005  -6.351  0.00  0.00    +0.094 C 
BRANCH  22  23
ATOM     23  N   UNL     1      -0.746   5.304  -5.347  0.00  0.00    -0.271 NA
BRANCH  23  24
ATOM     24  C   UNL     1      -1.997   5.780  -5.876  0.00  0.00    +0.072 C 
ATOM     25  C   UNL     1      -2.406   7.044  -5.142  0.00  0.00    +0.019 C 
ENDBRANCH  23  24
BRANCH  23  27
ATOM     26  C   UNL     1       0.905   5.450  -3.527  0.00  0.00    +0.019 C 
ATOM     27  C   UNL     1      -0.251   6.091  -4.252  0.00  0.00    +0.072 C 
ENDBRANCH  23  27
ENDBRANCH  22  23
ENDBRANCH  21  22
ENDBRANCH   1  21
TORSDOF 6
ENDMDL
MODEL 3
REMARK VINA RESULT:      -7.9      2.642      4.357
REMARK  Name = 
REMARK  6 active torsions:
REMARK  status: ('A' for Active; 'I' for Inactive)
REMARK    1  A    between atoms: C_2  and  N_3
REMARK    2  A    between atoms: N_3  and  C_4
REMARK    3  A    between atoms: N_3  and  C_6
REMARK    4  A    between atoms: C_6  and  C_7
REMARK    5  A    between atoms: C_7  and  N_8
REMARK    6  A    between atoms: C_16  and  C_17
REMARK                            x       y       z     vdW  Elec       q    Type
REMARK                         _______ _______ _______ _____ _____    ______ ____
ROOT
ATOM      1  N   UNL     1       1.893   5.655  -7.497  0.00  0.00    -0.256 N 
ATOM      2  C   UNL     1       3.216   5.127  -7.636  0.00  0.00    +0.254 C 
ATOM      3  O   UNL     1       3.392   4.202  -8.461  0.00  0.00    -0.272 OA
ATOM      4  C   UNL     1       4.400   5.656  -6.890  0.00  0.00    +0.210 C 
ATOM      5  N   UNL     1       4.232   5.496  -5.451  0.00  0.00    -0.260 NA
ATOM      6  C   UNL     1       3.321   6.018  -4.686  0.00  0.00    +0.080 C 
ATOM      7  C   UNL     1       1.923   6.312  -5.029  0.00  0.00    +0.032 A 
ATOM      8  C   UNL     1       1.156   6.255  -3.871  0.00  0.00    +0.014 A 
ATOM      9  C   UNL     1      -0.226   6.215  -3.983  0.00  0.00    +0.058 A 
ATOM     10 CL   UNL     1      -1.213   5.480  -2.730  0.00  0.00    -0.082 Cl
ATOM     11  C   UNL     1      -0.746   6.540  -5.230  0.00  0.00    +0.013 A 
ATOM     12  C   UNL     1      -0.020   6.345  -6.399  0.00  0.00    +0.016 A 
ATOM     13  C   UNL     1       1.341   6.178  -6.284  0.00  0.00    +0.055 A 
ENDROOT
BRANCH   6  14
ATOM     14  C   UNL     1       3.705   6.113  -3.281  0.00  0.00    +0.045 A 
ATOM     15  C   UNL     1       4.158   7.337  -2.806  0.00  0.00    +0.142 A 
ATOM     16  F   UNL     1       4.856   8.172  -3.632  0.00  0.00    -0.204 F 
ATOM     17  C   UNL     1       4.270   7.431  -1.424  0.00  0.00    +0.030 A 
ATOM     18  C   UNL     1       4.421   6.306  -0.622  0.00  0.00    +0.002 A 
ATOM     19  C   UNL     1       4.240   5.048  -1.183  0.00  0.00    +0.000 A 
ATOM     20  C   UNL     1       3.634   5.015  -2.432  0.00  0.00    +0.004 A 
ENDBRANCH   6  14
BRANCH   1  21
ATOM     21  C   UNL     1       1.018   5.400  -8.609  0.00  0.00    +0.116 C 
BRANCH  21  22
ATOM     22  C   UNL     1       1.051   6.474  -9.661  0.00  0.00    +0.094 C 
BRANCH  22  23
ATOM     23  N   UNL     1       1.378   5.986 -10.972  0.00  0.00    -0.271 NA
BRANCH  23  24
ATOM     24  C   UNL     1       2.762   6.152 -11.331  0.00  0.00    +0.072 C 
ATOM     25  C   UNL     1       2.950   5.793 -12.794  0.00  0.00    +0.019 C 
ENDBRANCH  23  24
BRANCH  23  27
ATOM     26  C   UNL     1      -0.519   7.448 -11.542  0.00  0.00    +0.019 C 
ATOM     27  C   UNL     1       0.467   6.403 -12.002  0.00  0.00    +0.072 C 
ENDBRANCH  23  27
ENDBRANCH  22  23
ENDBRANCH  21  22
ENDBRANCH   1  21
TORSDOF 6
ENDMDL
MODEL 4
REMARK VINA RESULT:      -7.8      3.311      7.166
REMARK  Name = 
REMARK  6 active torsions:
REMARK  status: ('A' for Active; 'I' for Inactive)
REMARK    1  A    between atoms: C_2  and  N_3
REMARK    2  A    between atoms: N_3  and  C_4
REMARK    3  A    between atoms: N_3  and  C_6
REMARK    4  A    between atoms: C_6  and  C_7
REMARK    5  A    between atoms: C_7  and  N_8
REMARK    6  A    between atoms: C_16  and  C_17
REMARK                            x       y       z     vdW  Elec       q    Type
REMARK                         _______ _______ _______ _____ _____    ______ ____
ROOT
ATOM      1  N   UNL     1       2.629   6.352  -4.612  0.00  0.00    -0.256 N 
ATOM      2  C   UNL     1       3.729   6.856  -5.377  0.00  0.00    +0.254 C 
ATOM      3  O   UNL     1       4.391   7.802  -4.894  0.00  0.00    -0.272 OA
ATOM      4  C   UNL     1       4.156   6.280  -6.690  0.00  0.00    +0.210 C 
ATOM      5  N   UNL     1       3.099   6.400  -7.687  0.00  0.00    -0.260 NA
ATOM      6  C   UNL     1       1.911   5.874  -7.666  0.00  0.00    +0.080 C 
ATOM      7  C   UNL     1       1.064   5.620  -6.493  0.00  0.00    +0.032 A 
ATOM      8  C   UNL     1      -0.269   5.658  -6.887  0.00  0.00    +0.014 A 
ATOM      9  C   UNL     1      -1.254   5.731  -5.912  0.00  0.00    +0.058 A 
ATOM     10 CL   UNL     1      -2.818   6.449  -6.261  0.00  0.00    -0.082 Cl
ATOM     11  C   UNL     1      -0.848   5.455  -4.612  0.00  0.00    +0.013 A 
ATOM     12  C   UNL     1       0.460   5.670  -4.194  0.00  0.00    +0.016 A 
ATOM     13  C   UNL     1       1.426   5.805  -5.164  0.00  0.00    +0.055 A 
ENDROOT
BRANCH   6  14
ATOM     14  C   UNL     1       1.300   5.728  -8.984  0.00  0.00    +0.045 A 
ATOM     15  C   UNL     1       1.192   4.452  -9.520  0.00  0.00    +0.142 A 
ATOM     16  F   UNL     1       2.145   3.514  -9.240  0.00  0.00    -0.204 F 
ATOM     17  C   UNL     1       0.388   4.349 -10.648  0.00  0.00    +0.030 A 
ATOM     18  C   UNL     1       0.134   5.441 -11.469  0.00  0.00    +0.002 A 
ATOM     19  C   UNL     1       0.507   6.709 -11.041  0.00  0.00    +0.000 A 
ATOM     20  C   UNL     1       0.843   6.829  -9.698  0.00  0.00    +0.004 A 
ENDBRANCH   6  14
BRANCH   1  21
ATOM     21  C   UNL     1       2.675   6.659  -3.208  0.00  0.00    +0.116 C 
BRANCH  21  22
ATOM     22  C   UNL     1       3.315   5.583  -2.376  0.00  0.00    +0.094 C 
BRANCH  22  23
ATOM     23  N   UNL     1       2.879   5.576  -1.007  0.00  0.00    -0.271 NA
BRANCH  23  24
ATOM     24  C   UNL     1       1.537   5.090  -0.823  0.00  0.00    +0.072 C 
ATOM     25  C   UNL     1       0.648   6.229  -0.357  0.00  0.00    +0.019 C 
ENDBRANCH  23  24
BRANCH  23  27
ATOM     26  C   UNL     1       4.583   6.923   0.152  0.00  0.00    +0.019 C 
ATOM     27  C   UNL     1       3.148   6.794  -0.295  0.00  0.00    +0.072 C 
ENDBRANCH  23  27
ENDBRANCH  22  23
ENDBRANCH  21  22
ENDBRANCH   1  21
TORSDOF 6
ENDMDL
MODEL 5
REMARK VINA RESULT:      -7.6      3.248      7.950
REMARK  Name = 
REMARK  6 active torsions:
REMARK  status: ('A' for Active; 'I' for Inactive)
REMARK    1  A    between atoms: C_2  and  N_3
REMARK    2  A    between atoms: N_3  and  C_4
REMARK    3  A    between atoms: N_3  and  C_6
REMARK    4  A    between atoms: C_6  and  C_7
REMARK    5  A    between atoms: C_7  and  N_8
REMARK    6  A    between atoms: C_16  and  C_17
REMARK                            x       y       z     vdW  Elec       q    Type
REMARK                         _______ _______ _______ _____ _____    ______ ____
ROOT
ATOM      1  N   UNL     1      -0.814   5.871  -2.504  0.00  0.00    -0.256 N 
ATOM      2  C   UNL     1      -1.883   5.524  -3.390  0.00  0.00    +0.254 C 
ATOM      3  O   UNL     1      -2.730   4.694  -2.987  0.00  0.00    -0.272 OA
ATOM      4  C   UNL     1      -2.068   6.136  -4.742  0.00  0.00    +0.210 C 
ATOM      5  N   UNL     1      -0.934   5.845  -5.613  0.00  0.00    -0.260 NA
ATOM      6  C   UNL     1       0.309   6.188  -5.455  0.00  0.00    +0.080 C 
ATOM      7  C   UNL     1       1.045   6.333  -4.193  0.00  0.00    +0.032 A 
ATOM      8  C   UNL     1       2.393   6.091  -4.431  0.00  0.00    +0.014 A 
ATOM      9  C   UNL     1       3.240   5.888  -3.351  0.00  0.00    +0.058 A 
ATOM     10 CL   UNL     1       4.709   4.941  -3.519  0.00  0.00    -0.082 Cl
ATOM     11  C   UNL     1       2.735   6.242  -2.105  0.00  0.00    +0.013 A 
ATOM     12  C   UNL     1       1.371   6.230  -1.840  0.00  0.00    +0.016 A 
ATOM     13  C   UNL     1       0.512   6.225  -2.914  0.00  0.00    +0.055 A 
ENDROOT
BRANCH   6  14
ATOM     14  C   UNL     1       1.080   6.221  -6.695  0.00  0.00    +0.045 A 
ATOM     15  C   UNL     1       1.317   5.020  -7.351  0.00  0.00    +0.142 A 
ATOM     16  F   UNL     1       1.466   3.869  -6.630  0.00  0.00    -0.204 F 
ATOM     17  C   UNL     1       1.832   5.139  -8.636  0.00  0.00    +0.030 A 
ATOM     18  C   UNL     1       2.524   6.272  -9.046  0.00  0.00    +0.002 A 
ATOM     19  C   UNL     1       2.516   7.399  -8.234  0.00  0.00    +0.000 A 
ATOM     20  C   UNL     1       1.576   7.411  -7.210  0.00  0.00    +0.004 A 
ENDBRANCH   6  14
BRANCH   1  21
ATOM     21  C   UNL     1      -1.064   5.596  -1.114  0.00  0.00    +0.116 C 
BRANCH  21  22
ATOM     22  C   UNL     1      -1.833   6.682  -0.414  0.00  0.00    +0.094 C 
BRANCH  22  23
ATOM     23  N   UNL     1      -1.224   7.123   0.810  0.00  0.00    -0.271 NA
BRANCH  23  24
ATOM     24  C   UNL     1      -2.093   7.056   1.954  0.00  0.00    +0.072 C 
ATOM     25  C   UNL     1      -2.812   8.383   2.120  0.00  0.00    +0.019 C 
ENDBRANCH  23  24
BRANCH  23  27
ATOM     26  C   UNL     1       0.902   8.300   1.209  0.00  0.00    +0.019 C 
ATOM     27  C   UNL     1      -0.517   8.369   0.701  0.00  0.00    +0.072 C 
ENDBRANCH  23  27
ENDBRANCH  22  23
ENDBRANCH  21  22
ENDBRANCH   1  21
TORSDOF 6
ENDMDL
MODEL 6
REMARK VINA RESULT:      -7.6      3.600      7.387
REMARK  Name = 
REMARK  6 active torsions:
REMARK  status: ('A' for Active; 'I' for Inactive)
REMARK    1  A    between atoms: C_2  and  N_3
REMARK    2  A    between atoms: N_3  and  C_4
REMARK    3  A    between atoms: N_3  and  C_6
REMARK    4  A    between atoms: C_6  and  C_7
REMARK    5  A    between atoms: C_7  and  N_8
REMARK    6  A    between atoms: C_16  and  C_17
REMARK                            x       y       z     vdW  Elec       q    Type
REMARK                         _______ _______ _______ _____ _____    ______ ____
ROOT
ATOM      1  N   UNL     1       2.798   5.771  -8.096  0.00  0.00    -0.256 N 
ATOM      2  C   UNL     1       1.464   5.274  -7.950  0.00  0.00    +0.254 C 
ATOM      3  O   UNL     1       1.258   4.401  -7.076  0.00  0.00    -0.272 OA
ATOM      4  C   UNL     1       0.302   5.779  -8.745  0.00  0.00    +0.210 C 
ATOM      5  N   UNL     1       0.491   5.533 -10.170  0.00  0.00    -0.260 NA
ATOM      6  C   UNL     1       1.424   5.994 -10.948  0.00  0.00    +0.080 C 
ATOM      7  C   UNL     1       2.820   6.285 -10.597  0.00  0.00    +0.032 A 
ATOM      8  C   UNL     1       3.605   6.147 -11.737  0.00  0.00    +0.014 A 
ATOM      9  C   UNL     1       4.985   6.091 -11.598  0.00  0.00    +0.058 A 
ATOM     10 CL   UNL     1       5.979   5.268 -12.789  0.00  0.00    -0.082 Cl
ATOM     11  C   UNL     1       5.490   6.479 -10.364  0.00  0.00    +0.013 A 
ATOM     12  C   UNL     1       4.741   6.364  -9.198  0.00  0.00    +0.016 A 
ATOM     13  C   UNL     1       3.380   6.213  -9.327  0.00  0.00    +0.055 A 
ENDROOT
BRANCH   6  14
ATOM     14  C   UNL     1       1.064   6.014 -12.362  0.00  0.00    +0.045 A 
ATOM     15  C   UNL     1       0.575   7.198 -12.898  0.00  0.00    +0.142 A 
ATOM     16  F   UNL     1      -0.170   8.040 -12.122  0.00  0.00    -0.204 F 
ATOM     17  C   UNL     1       0.488   7.229 -14.285  0.00  0.00    +0.030 A 
ATOM     18  C   UNL     1       0.395   6.066 -15.039  0.00  0.00    +0.002 A 
ATOM     19  C   UNL     1       0.613   4.840 -14.421  0.00  0.00    +0.000 A 
ATOM     20  C   UNL     1       1.194   4.885 -13.161  0.00  0.00    +0.004 A 
ENDBRANCH   6  14
BRANCH   1  21
ATOM     21  C   UNL     1       3.651   5.566  -6.955  0.00  0.00    +0.116 C 
BRANCH  21  22
ATOM     22  C   UNL     1       3.611   6.695  -5.963  0.00  0.00    +0.094 C 
BRANCH  22  23
ATOM     23  N   UNL     1       3.080   6.317  -4.682  0.00  0.00    -0.271 NA
BRANCH  23  24
ATOM     24  C   UNL     1       3.373   4.960  -4.304  0.00  0.00    +0.072 C 
ATOM     25  C   UNL     1       4.576   4.943  -3.378  0.00  0.00    +0.019 C 
ENDBRANCH  23  24
BRANCH  23  27
ATOM     26  C   UNL     1       0.894   5.614  -3.793  0.00  0.00    +0.019 C 
ATOM     27  C   UNL     1       1.705   6.683  -4.482  0.00  0.00    +0.072 C 
ENDBRANCH  23  27
ENDBRANCH  22  23
ENDBRANCH  21  22
ENDBRANCH   1  21
TORSDOF 6
ENDMDL
MODEL 7
REMARK VINA RESULT:      -7.4      1.712      2.280
REMARK  Name = 
REMARK  6 active torsions:
REMARK  status: ('A' for Active; 'I' for Inactive)
REMARK    1  A    between atoms: C_2  and  N_3
REMARK    2  A    between atoms: N_3  and  C_4
REMARK    3  A    between atoms: N_3  and  C_6
REMARK    4  A    between atoms: C_6  and  C_7
REMARK    5  A    between atoms: C_7  and  N_8
REMARK    6  A    between atoms: C_16  and  C_17
REMARK                            x       y       z     vdW  Elec       q    Type
REMARK                         _______ _______ _______ _____ _____    ______ ____
ROOT
ATOM      1  N   UNL     1       3.039   6.163  -6.116  0.00  0.00    -0.256 N 
ATOM      2  C   UNL     1       2.208   6.865  -7.047  0.00  0.00    +0.254 C 
ATOM      3  O   UNL     1       2.737   7.761  -7.742  0.00  0.00    -0.272 OA
ATOM      4  C   UNL     1       0.763   6.547  -7.268  0.00  0.00    +0.210 C 
ATOM      5  N   UNL     1      -0.015   6.757  -6.052  0.00  0.00    -0.260 NA
ATOM      6  C   UNL     1       0.104   6.152  -4.908  0.00  0.00    +0.080 C 
ATOM      7  C   UNL     1       1.335   5.646  -4.286  0.00  0.00    +0.032 A 
ATOM      8  C   UNL     1       1.174   5.655  -2.905  0.00  0.00    +0.014 A 
ATOM      9  C   UNL     1       2.291   5.494  -2.098  0.00  0.00    +0.058 A 
ATOM     10 CL   UNL     1       2.331   6.147  -0.468  0.00  0.00    -0.082 Cl
ATOM     11  C   UNL     1       3.439   5.034  -2.732  0.00  0.00    +0.013 A 
ATOM     12  C   UNL     1       3.673   5.269  -4.082  0.00  0.00    +0.016 A 
ATOM     13  C   UNL     1       2.599   5.632  -4.861  0.00  0.00    +0.055 A 
ENDROOT
BRANCH   6  14
ATOM     14  C   UNL     1      -1.103   6.186  -4.088  0.00  0.00    +0.045 A 
ATOM     15  C   UNL     1      -2.153   5.345  -4.431  0.00  0.00    +0.142 A 
ATOM     16  F   UNL     1      -2.379   5.040  -5.744  0.00  0.00    -0.204 F 
ATOM     17  C   UNL     1      -3.163   5.240  -3.482  0.00  0.00    +0.030 A 
ATOM     18  C   UNL     1      -3.384   6.232  -2.535  0.00  0.00    +0.002 A 
ATOM     19  C   UNL     1      -2.447   7.247  -2.389  0.00  0.00    +0.000 A 
ATOM     20  C   UNL     1      -1.216   7.037  -2.996  0.00  0.00    +0.004 A 
ENDBRANCH   6  14
BRANCH   1  21
ATOM     21  C   UNL     1       4.449   6.234  -6.389  0.00  0.00    +0.116 C 
BRANCH  21  22
ATOM     22  C   UNL     1       4.940   5.153  -7.311  0.00  0.00    +0.094 C 
BRANCH  22  23
ATOM     23  N   UNL     1       5.161   5.601  -8.658  0.00  0.00    -0.271 NA
BRANCH  23  24
ATOM     24  C   UNL     1       4.211   5.088  -9.610  0.00  0.00    +0.072 C 
ATOM     25  C   UNL     1       3.415   3.964  -8.970  0.00  0.00    +0.019 C 
ENDBRANCH  23  24
BRANCH  23  27
ATOM     26  C   UNL     1       6.773   6.149 -10.437  0.00  0.00    +0.019 C 
ATOM     27  C   UNL     1       6.524   5.498  -9.099  0.00  0.00    +0.072 C 
ENDBRANCH  23  27
ENDBRANCH  22  23
ENDBRANCH  21  22
ENDBRANCH   1  21
TORSDOF 6
ENDMDL
MODEL 8
REMARK VINA RESULT:      -7.4      2.787      4.733
REMARK  Name = 
REMARK  6 active torsions:
REMARK  status: ('A' for Active; 'I' for Inactive)
REMARK    1  A    between atoms: C_2  and  N_3
REMARK    2  A    between atoms: N_3  and  C_4
REMARK    3  A    between atoms: N_3  and  C_6
REMARK    4  A    between atoms: C_6  and  C_7
REMARK    5  A    between atoms: C_7  and  N_8
REMARK    6  A    between atoms: C_16  and  C_17
REMARK                            x       y       z     vdW  Elec       q    Type
REMARK                         _______ _______ _______ _____ _____    ______ ____
ROOT
ATOM      1  N   UNL     1       2.448   5.246  -8.341  0.00  0.00    -0.256 N 
ATOM      2  C   UNL     1       3.817   4.827  -8.325  0.00  0.00    +0.254 C 
ATOM      3  O   UNL     1       4.124   3.812  -8.992  0.00  0.00    -0.272 OA
ATOM      4  C   UNL     1       4.899   5.563  -7.601  0.00  0.00    +0.210 C 
ATOM      5  N   UNL     1       4.645   5.597  -6.165  0.00  0.00    -0.260 NA
ATOM      6  C   UNL     1       3.644   6.138  -5.539  0.00  0.00    +0.080 C 
ATOM      7  C   UNL     1       2.254   6.251  -6.001  0.00  0.00    +0.032 A 
ATOM      8  C   UNL     1       1.416   6.291  -4.892  0.00  0.00    +0.014 A 
ATOM      9  C   UNL     1       0.053   6.109  -5.074  0.00  0.00    +0.058 A 
ATOM     10 CL   UNL     1      -0.955   5.474  -3.783  0.00  0.00    -0.082 Cl
ATOM     11  C   UNL     1      -0.405   6.202  -6.383  0.00  0.00    +0.013 A 
ATOM     12  C   UNL     1       0.413   5.908  -7.467  0.00  0.00    +0.016 A 
ATOM     13  C   UNL     1       1.772   5.885  -7.252  0.00  0.00    +0.055 A 
ENDROOT
BRANCH   6  14
ATOM     14  C   UNL     1       3.922   6.468  -4.145  0.00  0.00    +0.045 A 
ATOM     15  C   UNL     1       4.119   5.425  -3.250  0.00  0.00    +0.142 A 
ATOM     16  F   UNL     1       3.451   4.246  -3.422  0.00  0.00    -0.204 F 
ATOM     17  C   UNL     1       4.621   5.796  -2.008  0.00  0.00    +0.030 A 
ATOM     18  C   UNL     1       4.461   7.082  -1.509  0.00  0.00    +0.002 A 
ATOM     19  C   UNL     1       3.986   8.080  -2.351  0.00  0.00    +0.000 A 
ATOM     20  C   UNL     1       3.981   7.786  -3.708  0.00  0.00    +0.004 A 
ENDBRANCH   6  14
BRANCH   1  21
ATOM     21  C   UNL     1       1.675   4.755  -9.450  0.00  0.00    +0.116 C 
BRANCH  21  22
ATOM     22  C   UNL     1       1.957   5.468 -10.743  0.00  0.00    +0.094 C 
BRANCH  22  23
ATOM     23  N   UNL     1       1.020   5.158 -11.788  0.00  0.00    -0.271 NA
BRANCH  23  24
ATOM     24  C   UNL     1       1.540   5.346 -13.116  0.00  0.00    +0.072 C 
ATOM     25  C   UNL     1       0.613   4.685 -14.119  0.00  0.00    +0.019 C 
ENDBRANCH  23  24
BRANCH  23  27
ATOM     26  C   UNL     1      -0.278   7.237 -11.547  0.00  0.00    +0.019 C 
ATOM     27  C   UNL     1      -0.285   5.730 -11.599  0.00  0.00    +0.072 C 
ENDBRANCH  23  27
ENDBRANCH  22  23
ENDBRANCH  21  22
ENDBRANCH   1  21
TORSDOF 6
ENDMDL
MODEL 9
REMARK VINA RESULT:      -7.3      4.161      6.688
REMARK  Name = 
REMARK  6 active torsions:
REMARK  status: ('A' for Active; 'I' for Inactive)
REMARK    1  A    between atoms: C_2  and  N_3
REMARK    2  A    between atoms: N_3  and  C_4
REMARK    3  A    between atoms: N_3  and  C_6
REMARK    4  A    between atoms: C_6  and  C_7
REMARK    5  A    between atoms: C_7  and  N_8
REMARK    6  A    between atoms: C_16  and  C_17
REMARK                            x       y       z     vdW  Elec       q    Type
REMARK                         _______ _______ _______ _____ _____    ______ ____
ROOT
ATOM      1  N   UNL     1       2.987   5.757  -1.832  0.00  0.00    -0.256 N 
ATOM      2  C   UNL     1       2.034   4.902  -1.192  0.00  0.00    +0.254 C 
ATOM      3  O   UNL     1       2.470   3.919  -0.550  0.00  0.00    -0.272 OA
ATOM      4  C   UNL     1       0.559   5.150  -1.208  0.00  0.00    +0.210 C 
ATOM      5  N   UNL     1       0.033   5.115  -2.567  0.00  0.00    -0.260 NA
ATOM      6  C   UNL     1       0.331   5.893  -3.564  0.00  0.00    +0.080 C 
ATOM      7  C   UNL     1       1.629   6.516  -3.857  0.00  0.00    +0.032 A 
ATOM      8  C   UNL     1       1.728   6.719  -5.229  0.00  0.00    +0.014 A 
ATOM      9  C   UNL     1       2.967   7.027  -5.774  0.00  0.00    +0.058 A 
ATOM     10 CL   UNL     1       3.341   6.637  -7.444  0.00  0.00    -0.082 Cl
ATOM     11  C   UNL     1       3.952   7.407  -4.871  0.00  0.00    +0.013 A 
ATOM     12  C   UNL     1       3.943   6.970  -3.551  0.00  0.00    +0.016 A 
ATOM     13  C   UNL     1       2.762   6.468  -3.054  0.00  0.00    +0.055 A 
ENDROOT
BRANCH   6  14
ATOM     14  C   UNL     1      -0.699   5.961  -4.596  0.00  0.00    +0.045 A 
ATOM     15  C   UNL     1      -1.776   6.814  -4.392  0.00  0.00    +0.142 A 
ATOM     16  F   UNL     1      -2.239   7.035  -3.126  0.00  0.00    -0.204 F 
ATOM     17  C   UNL     1      -2.584   7.024  -5.503  0.00  0.00    +0.030 A 
ATOM     18  C   UNL     1      -2.646   6.109  -6.547  0.00  0.00    +0.002 A 
ATOM     19  C   UNL     1      -1.721   5.072  -6.592  0.00  0.00    +0.000 A 
ATOM     20  C   UNL     1      -0.623   5.194  -5.751  0.00  0.00    +0.004 A 
ENDBRANCH   6  14
BRANCH   1  21
ATOM     21  C   UNL     1       4.324   5.675  -1.308  0.00  0.00    +0.116 C 
BRANCH  21  22
ATOM     22  C   UNL     1       4.457   6.207   0.092  0.00  0.00    +0.094 C 
BRANCH  22  23
ATOM     23  N   UNL     1       4.704   7.622   0.149  0.00  0.00    -0.271 NA
BRANCH  23  24
ATOM     24  C   UNL     1       5.622   8.014   1.185  0.00  0.00    +0.072 C 
ATOM     25  C   UNL     1       5.204   7.375   2.498  0.00  0.00    +0.019 C 
ENDBRANCH  23  24
BRANCH  23  27
ATOM     26  C   UNL     1       3.593   9.544  -0.914  0.00  0.00    +0.019 C 
ATOM     27  C   UNL     1       3.518   8.430   0.100  0.00  0.00    +0.072 C 
ENDBRANCH  23  27
ENDBRANCH  22  23
ENDBRANCH  21  22
ENDBRANCH   1  21
TORSDOF 6
ENDMDL
