MODEL 1
REMARK VINA RESULT:      -7.2      0.000      0.000
REMARK  Name = 
REMARK  12 active torsions:
REMARK  status: ('A' for Active; 'I' for Inactive)
REMARK    1  A    between atoms: C_2  and  C_5
REMARK    2  A    between atoms: C_5  and  C_6
REMARK    3  A    between atoms: C_6  and  C_9
REMARK    4  A    between atoms: C_12  and  O_13
REMARK    5  A    between atoms: O_13  and  C_14
REMARK    6  A    between atoms: C_14  and  C_15
REMARK    7  A    between atoms: C_15  and  O_16
REMARK    8  A    between atoms: O_16  and  C_17
REMARK    9  A    between atoms: C_17  and  C_18
REMARK   10  A    between atoms: C_18  and  N_19
REMARK   11  A    between atoms: N_19  and  C_22
REMARK   12  A    between atoms: C_22  and  C_23
REMARK                            x       y       z     vdW  Elec       q    Type
REMARK                         _______ _______ _______ _____ _____    ______ ____
ROOT
ATOM      1  O   UNL     1      -1.362   5.415  -5.041  0.00  0.00    -0.473 OA
ENDROOT
BRANCH   1   5
ATOM      2  C   UNL     1       1.918   5.905  -7.455  0.00  0.00    -0.023 A 
ATOM      3  C   UNL     1       1.466   7.021  -6.759  0.00  0.00    -0.001 A 
ATOM      4  C   UNL     1       0.429   6.862  -5.846  0.00  0.00    +0.037 A 
ATOM      5  C   UNL     1      -0.057   5.606  -5.504  0.00  0.00    +0.139 A 
ATOM      6  C   UNL     1       0.737   4.538  -5.904  0.00  0.00    +0.037 A 
ATOM      7  C   UNL     1       1.489   4.640  -7.069  0.00  0.00    -0.001 A 
BRANCH   2   8
ATOM      8  C   UNL     1       2.318   6.024  -8.892  0.00  0.00    +0.019 C 
ATOM      9  C   UNL     1       3.612   6.814  -8.941  0.00  0.00    +0.004 C 
ATOM     10  C   UNL     1       2.593   4.688  -9.521  0.00  0.00    +0.004 C 
BRANCH   8  11
ATOM     11  C   UNL     1       1.272   6.821  -9.615  0.00  0.00    +0.004 C 
BRANCH  11  13
ATOM     12  C   UNL     1       1.726   5.920 -11.920  0.00  0.00    +0.000 C 
ATOM     13  C   UNL     1       0.709   6.127 -10.822  0.00  0.00    +0.000 C 
ATOM     14  C   UNL     1      -0.397   7.027 -11.363  0.00  0.00    +0.000 C 
ATOM     15  C   UNL     1       0.048   4.802 -10.483  0.00  0.00    +0.000 C 
ENDBRANCH  11  13
ENDBRANCH   8  11
ENDBRANCH   2   8
ENDBRANCH   1   5
BRANCH   1  16
ATOM     16  C   UNL     1      -1.761   6.191  -3.917  0.00  0.00    +0.237 C 
BRANCH  16  17
ATOM     17  C   UNL     1      -2.445   5.221  -2.963  0.00  0.00    +0.190 C 
BRANCH  17  18
ATOM     18  O   UNL     1      -1.527   5.003  -1.922  0.00  0.00    -0.344 OA
BRANCH  18  19
ATOM     19  C   UNL     1      -0.699   6.134  -1.900  0.00  0.00    +0.203 C 
BRANCH  19  20
ATOM     20  C   UNL     1       0.216   6.013  -0.687  0.00  0.00    +0.142 C 
BRANCH  20  21
ATOM     21  N   UNL     1       1.592   5.960  -1.175  0.00  0.00    +0.311 N 
ATOM     22  C   UNL     1       2.122   4.644  -0.955  0.00  0.00    +0.171 C 
ATOM     23  C   UNL     1       2.337   6.915  -0.362  0.00  0.00    +0.171 C 
BRANCH  21  24
ATOM     24  C   UNL     1       1.563   6.366  -2.550  0.00  0.00    +0.137 C 
BRANCH  24  25
ATOM     25  C   UNL     1       2.862   6.321  -3.230  0.00  0.00    +0.033 A 
ATOM     26  C   UNL     1       3.512   5.199  -3.655  0.00  0.00    +0.001 A 
ATOM     27  C   UNL     1       4.413   5.311  -4.707  0.00  0.00    -0.000 A 
ATOM     28  C   UNL     1       5.122   6.501  -4.821  0.00  0.00    -0.000 A 
ATOM     29  C   UNL     1       4.681   7.638  -4.154  0.00  0.00    -0.000 A 
ATOM     30  C   UNL     1       3.457   7.543  -3.522  0.00  0.00    +0.001 A 
ENDBRANCH  24  25
ENDBRANCH  21  24
ENDBRANCH  20  21
ENDBRANCH  19  20
ENDBRANCH  18  19
ENDBRANCH  17  18
ENDBRANCH  16  17
ENDBRANCH   1  16
TORSDOF 12
ENDMDL
MODEL 2
REMARK VINA RESULT:      -7.1      1.621      3.386
REMARK  Name = 
REMARK  12 active torsions:
REMARK  status: ('A' for Active; 'I' for Inactive)
REMARK    1  A    between atoms: C_2  and  C_5
REMARK    2  A    between atoms: C_5  and  C_6
REMARK    3  A    between atoms: C_6  and  C_9
REMARK    4  A    between atoms: C_12  and  O_13
REMARK    5  A    between atoms: O_13  and  C_14
REMARK    6  A    between atoms: C_14  and  C_15
REMARK    7  A    between atoms: C_15  and  O_16
REMARK    8  A    between atoms: O_16  and  C_17
REMARK    9  A    between atoms: C_17  and  C_18
REMARK   10  A    between atoms: C_18  and  N_19
REMARK   11  A    between atoms: N_19  and  C_22
REMARK   12  A    between atoms: C_22  and  C_23
REMARK                            x       y       z     vdW  Elec       q    Type
REMARK                         _______ _______ _______ _____ _____    ______ ____
ROOT
ATOM      1  O   UNL     1      -2.333   7.269  -1.542  0.00  0.00    -0.473 OA
ENDROOT
BRANCH   1   5
ATOM      2  C   UNL     1      -1.341   6.360  -5.416  0.00  0.00    -0.023 A 
ATOM      3  C   UNL     1      -2.295   5.559  -4.798  0.00  0.00    -0.001 A 
ATOM      4  C   UNL     1      -2.737   5.910  -3.527  0.00  0.00    +0.037 A 
ATOM      5  C   UNL     1      -2.366   7.109  -2.931  0.00  0.00    +0.139 A 
ATOM      6  C   UNL     1      -1.781   8.036  -3.784  0.00  0.00    +0.037 A 
ATOM      7  C   UNL     1      -1.021   7.593  -4.860  0.00  0.00    -0.001 A 
BRANCH   2   8
ATOM      8  C   UNL     1      -0.258   5.740  -6.243  0.00  0.00    +0.019 C 
ATOM      9  C   UNL     1       0.521   4.800  -5.342  0.00  0.00    +0.004 C 
ATOM     10  C   UNL     1      -0.805   4.915  -7.374  0.00  0.00    +0.004 C 
BRANCH   8  11
ATOM     11  C   UNL     1       0.680   6.821  -6.691  0.00  0.00    +0.004 C 
BRANCH  11  13
ATOM     12  C   UNL     1       2.335   5.204  -7.678  0.00  0.00    +0.000 C 
ATOM     13  C   UNL     1       1.507   6.449  -7.889  0.00  0.00    +0.000 C 
ATOM     14  C   UNL     1       2.456   7.615  -8.141  0.00  0.00    +0.000 C 
ATOM     15  C   UNL     1       0.675   6.300  -9.152  0.00  0.00    +0.000 C 
ENDBRANCH  11  13
ENDBRANCH   8  11
ENDBRANCH   2   8
ENDBRANCH   1   5
BRANCH   1  16
ATOM     16  C   UNL     1      -1.207   6.727  -0.863  0.00  0.00    +0.237 C 
BRANCH  16  17
ATOM     17  C   UNL     1      -1.317   7.207   0.578  0.00  0.00    +0.190 C 
BRANCH  17  18
ATOM     18  O   UNL     1      -0.050   7.718   0.905  0.00  0.00    -0.344 OA
BRANCH  18  19
ATOM     19  C   UNL     1       0.850   7.100   0.025  0.00  0.00    +0.203 C 
BRANCH  19  20
ATOM     20  C   UNL     1       2.251   7.581   0.384  0.00  0.00    +0.142 C 
BRANCH  20  21
ATOM     21  N   UNL     1       3.130   7.257  -0.737  0.00  0.00    +0.311 N 
ATOM     22  C   UNL     1       4.228   6.462  -0.265  0.00  0.00    +0.171 C 
ATOM     23  C   UNL     1       3.641   8.536  -1.220  0.00  0.00    +0.171 C 
BRANCH  21  24
ATOM     24  C   UNL     1       2.319   6.618  -1.732  0.00  0.00    +0.137 C 
BRANCH  24  25
ATOM     25  C   UNL     1       2.992   6.385  -3.014  0.00  0.00    +0.033 A 
ATOM     26  C   UNL     1       3.119   7.284  -4.034  0.00  0.00    +0.001 A 
ATOM     27  C   UNL     1       4.183   7.141  -4.916  0.00  0.00    -0.000 A 
ATOM     28  C   UNL     1       4.623   5.851  -5.188  0.00  0.00    -0.000 A 
ATOM     29  C   UNL     1       4.271   4.806  -4.343  0.00  0.00    -0.000 A 
ATOM     30  C   UNL     1       3.610   5.151  -3.182  0.00  0.00    +0.001 A 
ENDBRANCH  24  25
ENDBRANCH  21  24
ENDBRANCH  20  21
ENDBRANCH  19  20
ENDBRANCH  18  19
ENDBRANCH  17  18
ENDBRANCH  16  17
ENDBRANCH   1  16
TORSDOF 12
ENDMDL
MODEL 3
REMARK VINA RESULT:      -7.0      1.193      2.174
REMARK  Name = 
REMARK  12 active torsions:
REMARK  status: ('A' for Active; 'I' for Inactive)
REMARK    1  A    between atoms: C_2  and  C_5
REMARK    2  A    between atoms: C_5  and  C_6
REMARK    3  A    between atoms: C_6  and  C_9
REMARK    4  A    between atoms: C_12  and  O_13
REMARK    5  A    between atoms: O_13  and  C_14
REMARK    6  A    between atoms: C_14  and  C_15
REMARK    7  A    between atoms: C_15  and  O_16
REMARK    8  A    between atoms: O_16  and  C_17
REMARK    9  A    between atoms: C_17  and  C_18
REMARK   10  A    between atoms: C_18  and  N_19
REMARK   11  A    between atoms: N_19  and  C_22
REMARK   12  A    between atoms: C_22  and  C_23
REMARK                            x       y       z     vdW  Elec       q    Type
REMARK                         _______ _______ _______ _____ _____    ______ ____
ROOT
ATOM      1  O   UNL     1      -2.971   5.455  -3.627  0.00  0.00    -0.473 OA
ENDROOT
BRANCH   1   5
ATOM      2  C   UNL     1      -0.238   6.284  -6.570  0.00  0.00    -0.023 A 
ATOM      3  C   UNL     1      -1.326   5.490  -6.916  0.00  0.00    -0.001 A 
ATOM      4  C   UNL     1      -2.328   5.285  -5.974  0.00  0.00    +0.037 A 
ATOM      5  C   UNL     1      -2.344   5.971  -4.765  0.00  0.00    +0.139 A 
ATOM      6  C   UNL     1      -1.479   7.055  -4.691  0.00  0.00    +0.037 A 
ATOM      7  C   UNL     1      -0.282   7.028  -5.397  0.00  0.00    -0.001 A 
BRANCH   2   8
ATOM      8  C   UNL     1       1.137   5.925  -7.039  0.00  0.00    +0.019 C 
ATOM      9  C   UNL     1       2.068   7.049  -6.625  0.00  0.00    +0.004 C 
ATOM     10  C   UNL     1       1.649   4.667  -6.395  0.00  0.00    +0.004 C 
BRANCH   8  11
ATOM     11  C   UNL     1       1.131   5.869  -8.539  0.00  0.00    +0.004 C 
BRANCH  11  13
ATOM     12  C   UNL     1       3.587   6.358  -8.778  0.00  0.00    +0.000 C 
ATOM     13  C   UNL     1       2.442   5.440  -9.134  0.00  0.00    +0.000 C 
ATOM     14  C   UNL     1       2.261   5.470 -10.648  0.00  0.00    +0.000 C 
ATOM     15  C   UNL     1       2.807   4.009  -8.780  0.00  0.00    +0.000 C 
ENDBRANCH  11  13
ENDBRANCH   8  11
ENDBRANCH   2   8
ENDBRANCH   1   5
BRANCH   1  16
ATOM     16  C   UNL     1      -3.590   6.396  -2.757  0.00  0.00    +0.237 C 
BRANCH  16  17
ATOM     17  C   UNL     1      -2.843   6.296  -1.434  0.00  0.00    +0.190 C 
BRANCH  17  18
ATOM     18  O   UNL     1      -1.851   5.323  -1.633  0.00  0.00    -0.344 OA
BRANCH  18  19
ATOM     19  C   UNL     1      -0.655   5.897  -1.177  0.00  0.00    +0.203 C 
BRANCH  19  20
ATOM     20  C   UNL     1       0.442   4.847  -1.309  0.00  0.00    +0.142 C 
BRANCH  20  21
ATOM     21  N   UNL     1       1.715   5.552  -1.438  0.00  0.00    +0.311 N 
ATOM     22  C   UNL     1       2.786   4.666  -1.079  0.00  0.00    +0.171 C 
ATOM     23  C   UNL     1       1.660   6.645  -0.473  0.00  0.00    +0.171 C 
BRANCH  21  24
ATOM     24  C   UNL     1       1.782   6.051  -2.780  0.00  0.00    +0.137 C 
BRANCH  24  25
ATOM     25  C   UNL     1       3.140   6.312  -3.270  0.00  0.00    +0.033 A 
ATOM     26  C   UNL     1       3.982   5.400  -3.836  0.00  0.00    +0.001 A 
ATOM     27  C   UNL     1       4.967   5.854  -4.706  0.00  0.00    -0.000 A 
ATOM     28  C   UNL     1       5.510   7.110  -4.461  0.00  0.00    -0.000 A 
ATOM     29  C   UNL     1       4.845   8.003  -3.629  0.00  0.00    -0.000 A 
ATOM     30  C   UNL     1       3.586   7.627  -3.206  0.00  0.00    +0.001 A 
ENDBRANCH  24  25
ENDBRANCH  21  24
ENDBRANCH  20  21
ENDBRANCH  19  20
ENDBRANCH  18  19
ENDBRANCH  17  18
ENDBRANCH  16  17
ENDBRANCH   1  16
TORSDOF 12
ENDMDL
MODEL 4
REMARK VINA RESULT:      -7.0      1.764      2.196
REMARK  Name = 
REMARK  12 active torsions:
REMARK  status: ('A' for Active; 'I' for Inactive)
REMARK    1  A    between atoms: C_2  and  C_5
REMARK    2  A    between atoms: C_5  and  C_6
REMARK    3  A    between atoms: C_6  and  C_9
REMARK    4  A    between atoms: C_12  and  O_13
REMARK    5  A    between atoms: O_13  and  C_14
REMARK    6  A    between atoms: C_14  and  C_15
REMARK    7  A    between atoms: C_15  and  O_16
REMARK    8  A    between atoms: O_16  and  C_17
REMARK    9  A    between atoms: C_17  and  C_18
REMARK   10  A    between atoms: C_18  and  N_19
REMARK   11  A    between atoms: N_19  and  C_22
REMARK   12  A    between atoms: C_22  and  C_23
REMARK                            x       y       z     vdW  Elec       q    Type
REMARK                         _______ _______ _______ _____ _____    ______ ____
ROOT
ATOM      1  O   UNL     1      -0.753   6.427  -6.151  0.00  0.00    -0.473 OA
ENDROOT
BRANCH   1   5
ATOM      2  C   UNL     1       3.146   5.678  -7.177  0.00  0.00    -0.023 A 
ATOM      3  C   UNL     1       2.786   7.005  -6.966  0.00  0.00    -0.001 A 
ATOM      4  C   UNL     1       1.503   7.282  -6.506  0.00  0.00    +0.037 A 
ATOM      5  C   UNL     1       0.636   6.272  -6.111  0.00  0.00    +0.139 A 
ATOM      6  C   UNL     1       1.223   5.025  -5.935  0.00  0.00    +0.037 A 
ATOM      7  C   UNL     1       2.314   4.664  -6.718  0.00  0.00    -0.001 A 
BRANCH   2   8
ATOM      8  C   UNL     1       4.010   5.307  -8.342  0.00  0.00    +0.019 C 
ATOM      9  C   UNL     1       5.397   5.010  -7.804  0.00  0.00    +0.004 C 
ATOM     10  C   UNL     1       3.530   4.064  -9.035  0.00  0.00    +0.004 C 
BRANCH   8  11
ATOM     11  C   UNL     1       4.120   6.495  -9.252  0.00  0.00    +0.004 C 
BRANCH  11  13
ATOM     12  C   UNL     1       6.433   5.754  -9.908  0.00  0.00    +0.000 C 
ATOM     13  C   UNL     1       5.108   6.313 -10.369  0.00  0.00    +0.000 C 
ATOM     14  C   UNL     1       5.355   7.696 -10.960  0.00  0.00    +0.000 C 
ATOM     15  C   UNL     1       4.561   5.460 -11.502  0.00  0.00    +0.000 C 
ENDBRANCH  11  13
ENDBRANCH   8  11
ENDBRANCH   2   8
ENDBRANCH   1   5
BRANCH   1  16
ATOM     16  C   UNL     1      -1.357   7.067  -5.032  0.00  0.00    +0.237 C 
BRANCH  16  17
ATOM     17  C   UNL     1      -2.107   5.975  -4.281  0.00  0.00    +0.190 C 
BRANCH  17  18
ATOM     18  O   UNL     1      -1.826   6.189  -2.922  0.00  0.00    -0.344 OA
BRANCH  18  19
ATOM     19  C   UNL     1      -0.728   5.369  -2.625  0.00  0.00    +0.203 C 
BRANCH  19  20
ATOM     20  C   UNL     1      -0.189   5.793  -1.263  0.00  0.00    +0.142 C 
BRANCH  20  21
ATOM     21  N   UNL     1       1.261   5.920  -1.382  0.00  0.00    +0.311 N 
ATOM     22  C   UNL     1       1.880   4.692  -0.969  0.00  0.00    +0.171 C 
ATOM     23  C   UNL     1       1.642   6.980  -0.455  0.00  0.00    +0.171 C 
BRANCH  21  24
ATOM     24  C   UNL     1       1.537   6.297  -2.738  0.00  0.00    +0.137 C 
BRANCH  24  25
ATOM     25  C   UNL     1       2.962   6.365  -3.077  0.00  0.00    +0.033 A 
ATOM     26  C   UNL     1       3.805   5.303  -3.241  0.00  0.00    +0.001 A 
ATOM     27  C   UNL     1       4.924   5.462  -4.049  0.00  0.00    -0.000 A 
ATOM     28  C   UNL     1       5.519   6.717  -4.082  0.00  0.00    -0.000 A 
ATOM     29  C   UNL     1       4.817   7.829  -3.635  0.00  0.00    -0.000 A 
ATOM     30  C   UNL     1       3.490   7.629  -3.313  0.00  0.00    +0.001 A 
ENDBRANCH  24  25
ENDBRANCH  21  24
ENDBRANCH  20  21
ENDBRANCH  19  20
ENDBRANCH  18  19
ENDBRANCH  17  18
ENDBRANCH  16  17
ENDBRANCH   1  16
TORSDOF 12
ENDMDL
MODEL 5
REMARK VINA RESULT:      -7.0      1.767      3.841
REMARK  Name = 
REMARK  12 active torsions:
REMARK  status: ('A' for Active; 'I' for Inactive)
REMARK    1  A    between atoms: C_2  and  C_5
REMARK    2  A    between atoms: C_5  and  C_6
REMARK    3  A    between atoms: C_6  and  C_9
REMARK    4  A    between atoms: C_12  and  O_13
REMARK    5  A    between atoms: O_13  and  C_14
REMARK    6  A    between atoms: C_14  and  C_15
REMARK    7  A    between atoms: C_15  and  O_16
REMARK    8  A    between atoms: O_16  and  C_17
REMARK    9  A    between atoms: C_17  and  C_18
REMARK   10  A    between atoms: C_18  and  N_19
REMARK   11  A    between atoms: N_19  and  C_22
REMARK   12  A    between atoms: C_22  and  C_23
REMARK                            x       y       z     vdW  Elec       q    Type
REMARK                         _______ _______ _______ _____ _____    ______ ____
ROOT
ATOM      1  O   UNL     1       3.568   6.056  -4.233  0.00  0.00    -0.473 OA
ENDROOT
BRANCH   1   5
ATOM      2  C   UNL     1       3.316   6.174  -8.325  0.00  0.00    -0.023 A 
ATOM      3  C   UNL     1       2.804   7.260  -7.623  0.00  0.00    -0.001 A 
ATOM      4  C   UNL     1       2.977   7.304  -6.244  0.00  0.00    +0.037 A 
ATOM      5  C   UNL     1       3.771   6.378  -5.578  0.00  0.00    +0.139 A 
ATOM      6  C   UNL     1       4.590   5.608  -6.395  0.00  0.00    +0.037 A 
ATOM      7  C   UNL     1       4.169   5.286  -7.680  0.00  0.00    -0.001 A 
BRANCH   2   8
ATOM      8  C   UNL     1       2.556   5.596  -9.478  0.00  0.00    +0.019 C 
ATOM      9  C   UNL     1       3.505   5.525 -10.659  0.00  0.00    +0.004 C 
ATOM     10  C   UNL     1       2.085   4.196  -9.206  0.00  0.00    +0.004 C 
BRANCH   8  11
ATOM     11  C   UNL     1       1.448   6.540  -9.841  0.00  0.00    +0.004 C 
BRANCH  11  13
ATOM     12  C   UNL     1       1.442   5.971 -12.292  0.00  0.00    +0.000 C 
ATOM     13  C   UNL     1       0.634   6.093 -11.021  0.00  0.00    +0.000 C 
ATOM     14  C   UNL     1      -0.437   7.156 -11.238  0.00  0.00    +0.000 C 
ATOM     15  C   UNL     1      -0.109   4.792 -10.763  0.00  0.00    +0.000 C 
ENDBRANCH  11  13
ENDBRANCH   8  11
ENDBRANCH   2   8
ENDBRANCH   1   5
BRANCH   1  16
ATOM     16  C   UNL     1       3.346   7.143  -3.342  0.00  0.00    +0.237 C 
BRANCH  16  17
ATOM     17  C   UNL     1       2.928   6.519  -2.018  0.00  0.00    +0.190 C 
BRANCH  17  18
ATOM     18  O   UNL     1       1.939   5.574  -2.340  0.00  0.00    -0.344 OA
BRANCH  18  19
ATOM     19  C   UNL     1       0.758   6.040  -1.745  0.00  0.00    +0.203 C 
BRANCH  19  20
ATOM     20  C   UNL     1      -0.414   5.415  -2.493  0.00  0.00    +0.142 C 
BRANCH  20  21
ATOM     21  N   UNL     1      -1.561   6.305  -2.341  0.00  0.00    +0.311 N 
ATOM     22  C   UNL     1      -1.527   6.904  -1.036  0.00  0.00    +0.171 C 
ATOM     23  C   UNL     1      -2.740   5.452  -2.442  0.00  0.00    +0.171 C 
BRANCH  21  24
ATOM     24  C   UNL     1      -1.509   7.243  -3.425  0.00  0.00    +0.137 C 
BRANCH  24  25
ATOM     25  C   UNL     1      -1.324   6.640  -4.749  0.00  0.00    +0.033 A 
ATOM     26  C   UNL     1      -0.129   6.362  -5.348  0.00  0.00    +0.001 A 
ATOM     27  C   UNL     1      -0.084   5.352  -6.303  0.00  0.00    -0.000 A 
ATOM     28  C   UNL     1      -1.215   5.160  -7.087  0.00  0.00    -0.000 A 
ATOM     29  C   UNL     1      -2.435   5.688  -6.686  0.00  0.00    -0.000 A 
ATOM     30  C   UNL     1      -2.474   6.261  -5.431  0.00  0.00    +0.001 A 
ENDBRANCH  24  25
ENDBRANCH  21  24
ENDBRANCH  20  21
ENDBRANCH  19  20
ENDBRANCH  18  19
ENDBRANCH  17  18
ENDBRANCH  16  17
ENDBRANCH   1  16
TORSDOF 12
ENDMDL
MODEL 6
REMARK VINA RESULT:      -6.9      2.323      4.454
REMARK  Name = 
REMARK  12 active torsions:
REMARK  status: ('A' for Active; 'I' for Inactive)
REMARK    1  A    between atoms: C_2  and  C_5
REMARK    2  A    between atoms: C_5  and  C_6
REMARK    3  A    between atoms: C_6  and  C_9
REMARK    4  A    between atoms: C_12  and  O_13
REMARK    5  A    between atoms: O_13  and  C_14
REMARK    6  A    between atoms: C_14  and  C_15
REMARK    7  A    between atoms: C_15  and  O_16
REMARK    8  A    between atoms: O_16  and  C_17
REMARK    9  A    between atoms: C_17  and  C_18
REMARK   10  A    between atoms: C_18  and  N_19
REMARK   11  A    between atoms: N_19  and  C_22
REMARK   12  A    between atoms: C_22  and  C_23
REMARK                            x       y       z     vdW  Elec       q    Type
REMARK                         _______ _______ _______ _____ _____    ______ ____
ROOT
ATOM      1  O   UNL     1      -2.033   7.391   0.188  0.00  0.00    -0.473 OA
ENDROOT
BRANCH   1   5
ATOM      2  C   UNL     1      -1.599   5.848  -3.587  0.00  0.00    -0.023 A 
ATOM      3  C   UNL     1      -0.735   5.380  -2.604  0.00  0.00    -0.001 A 
ATOM      4  C   UNL     1      -0.930   5.796  -1.292  0.00  0.00    +0.037 A 
ATOM      5  C   UNL     1      -2.044   6.538  -0.920  0.00  0.00    +0.139 A 
ATOM      6  C   UNL     1      -3.065   6.580  -1.861  0.00  0.00    +0.037 A 
ATOM      7  C   UNL     1      -2.753   6.527  -3.214  0.00  0.00    -0.001 A 
BRANCH   2   8
ATOM      8  C   UNL     1      -1.079   6.188  -4.949  0.00  0.00    +0.019 C 
ATOM      9  C   UNL     1      -2.102   5.707  -5.961  0.00  0.00    +0.004 C 
ATOM     10  C   UNL     1      -0.924   7.669  -5.147  0.00  0.00    +0.004 C 
BRANCH   8  11
ATOM     11  C   UNL     1       0.188   5.417  -5.183  0.00  0.00    +0.004 C 
BRANCH  11  13
ATOM     12  C   UNL     1      -0.369   5.327  -7.634  0.00  0.00    +0.000 C 
ATOM     13  C   UNL     1       0.705   5.514  -6.589  0.00  0.00    +0.000 C 
ATOM     14  C   UNL     1       1.728   4.396  -6.753  0.00  0.00    +0.000 C 
ATOM     15  C   UNL     1       1.451   6.812  -6.852  0.00  0.00    +0.000 C 
ENDBRANCH  11  13
ENDBRANCH   8  11
ENDBRANCH   2   8
ENDBRANCH   1   5
BRANCH   1  16
ATOM     16  C   UNL     1      -1.619   6.827   1.426  0.00  0.00    +0.237 C 
BRANCH  16  17
ATOM     17  C   UNL     1      -0.463   7.689   1.913  0.00  0.00    +0.190 C 
BRANCH  17  18
ATOM     18  O   UNL     1       0.704   7.017   1.516  0.00  0.00    -0.344 OA
BRANCH  18  19
ATOM     19  C   UNL     1       1.415   7.924   0.717  0.00  0.00    +0.203 C 
BRANCH  19  20
ATOM     20  C   UNL     1       2.900   7.620   0.880  0.00  0.00    +0.142 C 
BRANCH  20  21
ATOM     21  N   UNL     1       3.506   7.656  -0.448  0.00  0.00    +0.311 N 
ATOM     22  C   UNL     1       4.799   7.034  -0.396  0.00  0.00    +0.171 C 
ATOM     23  C   UNL     1       3.672   9.070  -0.768  0.00  0.00    +0.171 C 
BRANCH  21  24
ATOM     24  C   UNL     1       2.582   7.029  -1.347  0.00  0.00    +0.137 C 
BRANCH  24  25
ATOM     25  C   UNL     1       3.155   6.630  -2.637  0.00  0.00    +0.033 A 
ATOM     26  C   UNL     1       3.419   7.454  -3.692  0.00  0.00    +0.001 A 
ATOM     27  C   UNL     1       4.407   7.081  -4.596  0.00  0.00    -0.000 A 
ATOM     28  C   UNL     1       4.583   5.723  -4.830  0.00  0.00    -0.000 A 
ATOM     29  C   UNL     1       4.064   4.793  -3.937  0.00  0.00    -0.000 A 
ATOM     30  C   UNL     1       3.520   5.295  -2.773  0.00  0.00    +0.001 A 
ENDBRANCH  24  25
ENDBRANCH  21  24
ENDBRANCH  20  21
ENDBRANCH  19  20
ENDBRANCH  18  19
ENDBRANCH  17  18
ENDBRANCH  16  17
ENDBRANCH   1  16
TORSDOF 12
ENDMDL
MODEL 7
REMARK VINA RESULT:      -6.8      2.151      6.018
REMARK  Name = 
REMARK  12 active torsions:
REMARK  status: ('A' for Active; 'I' for Inactive)
REMARK    1  A    between atoms: C_2  and  C_5
REMARK    2  A    between atoms: C_5  and  C_6
REMARK    3  A    between atoms: C_6  and  C_9
REMARK    4  A    between atoms: C_12  and  O_13
REMARK    5  A    between atoms: O_13  and  C_14
REMARK    6  A    between atoms: C_14  and  C_15
REMARK    7  A    between atoms: C_15  and  O_16
REMARK    8  A    between atoms: O_16  and  C_17
REMARK    9  A    between atoms: C_17  and  C_18
REMARK   10  A    between atoms: C_18  and  N_19
REMARK   11  A    between atoms: N_19  and  C_22
REMARK   12  A    between atoms: C_22  and  C_23
REMARK                            x       y       z     vdW  Elec       q    Type
REMARK                         _______ _______ _______ _____ _____    ______ ____
ROOT
ATOM      1  O   UNL     1       2.206   6.876   0.097  0.00  0.00    -0.473 OA
ENDROOT
BRANCH   1   5
ATOM      2  C   UNL     1      -1.347   6.070  -1.786  0.00  0.00    -0.023 A 
ATOM      3  C   UNL     1      -0.334   5.125  -1.904  0.00  0.00    -0.001 A 
ATOM      4  C   UNL     1       0.841   5.313  -1.185  0.00  0.00    +0.037 A 
ATOM      5  C   UNL     1       0.966   6.329  -0.245  0.00  0.00    +0.139 A 
ATOM      6  C   UNL     1      -0.226   6.939   0.126  0.00  0.00    +0.037 A 
ATOM      7  C   UNL     1      -1.259   7.044  -0.798  0.00  0.00    -0.001 A 
BRANCH   2   8
ATOM      8  C   UNL     1      -2.164   6.453  -2.980  0.00  0.00    +0.019 C 
ATOM      9  C   UNL     1      -3.623   6.258  -2.616  0.00  0.00    +0.004 C 
ATOM     10  C   UNL     1      -1.991   7.900  -3.349  0.00  0.00    +0.004 C 
BRANCH   8  11
ATOM     11  C   UNL     1      -1.845   5.508  -4.101  0.00  0.00    +0.004 C 
BRANCH  11  13
ATOM     12  C   UNL     1      -0.333   7.247  -5.108  0.00  0.00    +0.000 C 
ATOM     13  C   UNL     1      -1.382   6.190  -5.356  0.00  0.00    +0.000 C 
ATOM     14  C   UNL     1      -2.608   6.869  -5.958  0.00  0.00    +0.000 C 
ATOM     15  C   UNL     1      -0.882   5.212  -6.406  0.00  0.00    +0.000 C 
ENDBRANCH  11  13
ENDBRANCH   8  11
ENDBRANCH   2   8
ENDBRANCH   1   5
BRANCH   1  16
ATOM     16  C   UNL     1       3.232   6.801  -0.887  0.00  0.00    +0.237 C 
BRANCH  16  17
ATOM     17  C   UNL     1       3.676   8.235  -1.138  0.00  0.00    +0.190 C 
BRANCH  17  18
ATOM     18  O   UNL     1       3.809   8.351  -2.532  0.00  0.00    -0.344 OA
BRANCH  18  19
ATOM     19  C   UNL     1       3.450   7.101  -3.055  0.00  0.00    +0.203 C 
BRANCH  19  20
ATOM     20  C   UNL     1       3.716   7.134  -4.556  0.00  0.00    +0.142 C 
BRANCH  20  21
ATOM     21  N   UNL     1       3.817   5.752  -5.018  0.00  0.00    +0.311 N 
ATOM     22  C   UNL     1       2.570   5.081  -4.780  0.00  0.00    +0.171 C 
ATOM     23  C   UNL     1       4.852   5.136  -4.196  0.00  0.00    +0.171 C 
BRANCH  21  24
ATOM     24  C   UNL     1       4.212   5.800  -6.396  0.00  0.00    +0.137 C 
BRANCH  24  25
ATOM     25  C   UNL     1       3.100   5.848  -7.351  0.00  0.00    +0.033 A 
ATOM     26  C   UNL     1       2.332   6.938  -7.642  0.00  0.00    +0.001 A 
ATOM     27  C   UNL     1       1.709   7.000  -8.883  0.00  0.00    -0.000 A 
ATOM     28  C   UNL     1       1.303   5.802  -9.457  0.00  0.00    -0.000 A 
ATOM     29  C   UNL     1       1.824   4.600  -8.997  0.00  0.00    -0.000 A 
ATOM     30  C   UNL     1       2.844   4.687  -8.072  0.00  0.00    +0.001 A 
ENDBRANCH  24  25
ENDBRANCH  21  24
ENDBRANCH  20  21
ENDBRANCH  19  20
ENDBRANCH  18  19
ENDBRANCH  17  18
ENDBRANCH  16  17
ENDBRANCH   1  16
TORSDOF 12
ENDMDL
MODEL 8
REMARK VINA RESULT:      -6.8      2.700      6.578
REMARK  Name = 
REMARK  12 active torsions:
REMARK  status: ('A' for Active; 'I' for Inactive)
REMARK    1  A    between atoms: C_2  and  C_5
REMARK    2  A    between atoms: C_5  and  C_6
REMARK    3  A    between atoms: C_6  and  C_9
REMARK    4  A    between atoms: C_12  and  O_13
REMARK    5  A    between atoms: O_13  and  C_14
REMARK    6  A    between atoms: C_14  and  C_15
REMARK    7  A    between atoms: C_15  and  O_16
REMARK    8  A    between atoms: O_16  and  C_17
REMARK    9  A    between atoms: C_17  and  C_18
REMARK   10  A    between atoms: C_18  and  N_19
REMARK   11  A    between atoms: N_19  and  C_22
REMARK   12  A    between atoms: C_22  and  C_23
REMARK                            x       y       z     vdW  Elec       q    Type
REMARK                         _______ _______ _______ _____ _____    ______ ____
ROOT
ATOM      1  O   UNL     1       3.395   6.780  -1.551  0.00  0.00    -0.473 OA
ENDROOT
BRANCH   1   5
ATOM      2  C   UNL     1      -0.570   5.838  -2.012  0.00  0.00    -0.023 A 
ATOM      3  C   UNL     1       0.360   4.984  -2.594  0.00  0.00    -0.001 A 
ATOM      4  C   UNL     1       1.712   5.210  -2.360  0.00  0.00    +0.037 A 
ATOM      5  C   UNL     1       2.144   6.164  -1.447  0.00  0.00    +0.139 A 
ATOM      6  C   UNL     1       1.161   6.654  -0.597  0.00  0.00    +0.037 A 
ATOM      7  C   UNL     1      -0.152   6.744  -1.045  0.00  0.00    -0.001 A 
BRANCH   2   8
ATOM      8  C   UNL     1      -1.799   6.240  -2.766  0.00  0.00    +0.019 C 
ATOM      9  C   UNL     1      -2.998   5.730  -1.989  0.00  0.00    +0.004 C 
ATOM     10  C   UNL     1      -1.942   7.733  -2.869  0.00  0.00    +0.004 C 
BRANCH   8  11
ATOM     11  C   UNL     1      -1.792   5.547  -4.097  0.00  0.00    +0.004 C 
BRANCH  11  13
ATOM     12  C   UNL     1      -2.717   7.536  -5.328  0.00  0.00    +0.000 C 
ATOM     13  C   UNL     1      -1.640   6.479  -5.265  0.00  0.00    +0.000 C 
ATOM     14  C   UNL     1      -1.742   5.621  -6.521  0.00  0.00    +0.000 C 
ATOM     15  C   UNL     1      -0.273   7.141  -5.314  0.00  0.00    +0.000 C 
ENDBRANCH  11  13
ENDBRANCH   8  11
ENDBRANCH   2   8
ENDBRANCH   1   5
BRANCH   1  16
ATOM     16  C   UNL     1       4.182   6.439  -2.686  0.00  0.00    +0.237 C 
BRANCH  16  17
ATOM     17  C   UNL     1       4.314   7.718  -3.502  0.00  0.00    +0.190 C 
BRANCH  17  18
ATOM     18  O   UNL     1       4.780   7.315  -4.764  0.00  0.00    -0.344 OA
BRANCH  18  19
ATOM     19  C   UNL     1       3.726   6.602  -5.352  0.00  0.00    +0.203 C 
BRANCH  19  20
ATOM     20  C   UNL     1       4.312   5.752  -6.473  0.00  0.00    +0.142 C 
BRANCH  20  21
ATOM     21  N   UNL     1       3.330   5.710  -7.555  0.00  0.00    +0.311 N 
ATOM     22  C   UNL     1       2.869   7.042  -7.828  0.00  0.00    +0.171 C 
ATOM     23  C   UNL     1       2.217   4.916  -7.047  0.00  0.00    +0.171 C 
BRANCH  21  24
ATOM     24  C   UNL     1       3.961   5.061  -8.667  0.00  0.00    +0.137 C 
BRANCH  24  25
ATOM     25  C   UNL     1       5.083   5.802  -9.254  0.00  0.00    +0.033 A 
ATOM     26  C   UNL     1       6.396   5.693  -8.898  0.00  0.00    +0.001 A 
ATOM     27  C   UNL     1       7.368   6.016  -9.837  0.00  0.00    -0.000 A 
ATOM     28  C   UNL     1       7.069   7.020 -10.751  0.00  0.00    -0.000 A 
ATOM     29  C   UNL     1       5.749   7.407 -10.949  0.00  0.00    -0.000 A 
ATOM     30  C   UNL     1       4.785   6.650 -10.314  0.00  0.00    +0.001 A 
ENDBRANCH  24  25
ENDBRANCH  21  24
ENDBRANCH  20  21
ENDBRANCH  19  20
ENDBRANCH  18  19
ENDBRANCH  17  18
ENDBRANCH  16  17
ENDBRANCH   1  16
TORSDOF 12
ENDMDL
MODEL 9
REMARK VINA RESULT:      -6.8      1.220      2.261
REMARK  Name = 
REMARK  12 active torsions:
REMARK  status: ('A' for Active; 'I' for Inactive)
REMARK    1  A    between atoms: C_2  and  C_5
REMARK    2  A    between atoms: C_5  and  C_6
REMARK    3  A    between atoms: C_6  and  C_9
REMARK    4  A    between atoms: C_12  and  O_13
REMARK    5  A    between atoms: O_13  and  C_14
REMARK    6  A    between atoms: C_14  and  C_15
REMARK    7  A    between atoms: C_15  and  O_16
REMARK    8  A    between atoms: O_16  and  C_17
REMARK    9  A    between atoms: C_17  and  C_18
REMARK   10  A    between atoms: C_18  and  N_19
REMARK   11  A    between atoms: N_19  and  C_22
REMARK   12  A    between atoms: C_22  and  C_23
REMARK                            x       y       z     vdW  Elec       q    Type
REMARK                         _______ _______ _______ _____ _____    ______ ____
ROOT
ATOM      1  O   UNL     1      -2.174   5.539  -5.390  0.00  0.00    -0.473 OA
ENDROOT
BRANCH   1   5
ATOM      2  C   UNL     1       1.297   5.637  -7.571  0.00  0.00    -0.023 A 
ATOM      3  C   UNL     1       1.370   5.130  -6.278  0.00  0.00    -0.001 A 
ATOM      4  C   UNL     1       0.193   4.976  -5.554  0.00  0.00    +0.037 A 
ATOM      5  C   UNL     1      -1.052   5.171  -6.138  0.00  0.00    +0.139 A 
ATOM      6  C   UNL     1      -1.049   5.239  -7.526  0.00  0.00    +0.037 A 
ATOM      7  C   UNL     1       0.056   5.764  -8.184  0.00  0.00    -0.001 A 
BRANCH   2   8
ATOM      8  C   UNL     1       2.349   6.575  -8.073  0.00  0.00    +0.019 C 
ATOM      9  C   UNL     1       2.315   6.529  -9.589  0.00  0.00    +0.004 C 
ATOM     10  C   UNL     1       2.086   7.998  -7.669  0.00  0.00    +0.004 C 
BRANCH   8  11
ATOM     11  C   UNL     1       3.692   6.068  -7.635  0.00  0.00    +0.004 C 
BRANCH  11  13
ATOM     12  C   UNL     1       4.581   6.395  -9.965  0.00  0.00    +0.000 C 
ATOM     13  C   UNL     1       4.519   5.498  -8.751  0.00  0.00    +0.000 C 
ATOM     14  C   UNL     1       3.853   4.189  -9.160  0.00  0.00    +0.000 C 
ATOM     15  C   UNL     1       5.928   5.136  -8.312  0.00  0.00    +0.000 C 
ENDBRANCH  11  13
ENDBRANCH   8  11
ENDBRANCH   2   8
ENDBRANCH   1   5
BRANCH   1  16
ATOM     16  C   UNL     1      -1.931   6.087  -4.099  0.00  0.00    +0.237 C 
BRANCH  16  17
ATOM     17  C   UNL     1      -2.791   5.282  -3.134  0.00  0.00    +0.190 C 
BRANCH  17  18
ATOM     18  O   UNL     1      -1.969   5.017  -2.026  0.00  0.00    -0.344 OA
BRANCH  18  19
ATOM     19  C   UNL     1      -0.835   5.825  -2.189  0.00  0.00    +0.203 C 
BRANCH  19  20
ATOM     20  C   UNL     1      -0.060   5.803  -0.877  0.00  0.00    +0.142 C 
BRANCH  20  21
ATOM     21  N   UNL     1       1.363   5.767  -1.205  0.00  0.00    +0.311 N 
ATOM     22  C   UNL     1       1.887   4.466  -0.900  0.00  0.00    +0.171 C 
ATOM     23  C   UNL     1       1.995   6.751  -0.333  0.00  0.00    +0.171 C 
BRANCH  21  24
ATOM     24  C   UNL     1       1.483   6.147  -2.583  0.00  0.00    +0.137 C 
BRANCH  24  25
ATOM     25  C   UNL     1       2.862   6.251  -3.072  0.00  0.00    +0.033 A 
ATOM     26  C   UNL     1       3.726   5.213  -3.275  0.00  0.00    +0.001 A 
ATOM     27  C   UNL     1       4.749   5.373  -4.203  0.00  0.00    -0.000 A 
ATOM     28  C   UNL     1       5.284   6.646  -4.355  0.00  0.00    -0.000 A 
ATOM     29  C   UNL     1       4.586   7.752  -3.887  0.00  0.00    -0.000 A 
ATOM     30  C   UNL     1       3.309   7.520  -3.419  0.00  0.00    +0.001 A 
ENDBRANCH  24  25
ENDBRANCH  21  24
ENDBRANCH  20  21
ENDBRANCH  19  20
ENDBRANCH  18  19
ENDBRANCH  17  18
ENDBRANCH  16  17
ENDBRANCH   1  16
TORSDOF 12
ENDMDL
