MODEL 1
REMARK VINA RESULT:      -7.7      0.000      0.000
REMARK  Name = 
REMARK  3 active torsions:
REMARK  status: ('A' for Active; 'I' for Inactive)
REMARK    1  A    between atoms: C_2  and  C_3
REMARK    2  A    between atoms: C_2  and  C_6
REMARK    3  A    between atoms: C_9  and  C_10
REMARK                            x       y       z     vdW  Elec       q    Type
REMARK                         _______ _______ _______ _____ _____    ______ ____
ROOT
ATOM      1  C   UNL     1      -1.586   5.542  -4.649  0.00  0.00    -0.010 A 
ATOM      2  C   UNL     1      -0.197   5.425  -4.677  0.00  0.00    +0.026 A 
ATOM      3  C   UNL     1       0.501   5.271  -5.869  0.00  0.00    +0.140 A 
ATOM      4  F   UNL     1       1.746   4.720  -5.915  0.00  0.00    -0.204 F 
ATOM      5  C   UNL     1      -0.135   5.463  -7.083  0.00  0.00    +0.027 A 
ATOM      6  C   UNL     1      -1.522   5.531  -7.081  0.00  0.00    +0.002 A 
ATOM      7  C   UNL     1      -2.173   5.602  -5.885  0.00  0.00    -0.004 A 
ENDROOT
BRANCH   5   8
ATOM      8  C   UNL     1       0.595   5.718  -8.324  0.00  0.00    +0.002 A 
ATOM      9  C   UNL     1       1.589   6.680  -8.430  0.00  0.00    +0.000 A 
ATOM     10  C   UNL     1       2.374   6.639  -9.572  0.00  0.00    +0.000 A 
ATOM     11  C   UNL     1       1.975   5.918 -10.681  0.00  0.00    +0.000 A 
ATOM     12  C   UNL     1       0.764   5.243 -10.694  0.00  0.00    +0.000 A 
ATOM     13  C   UNL     1       0.098   5.171  -9.494  0.00  0.00    +0.000 A 
ENDBRANCH   5   8
BRANCH   1  15
ATOM     14  C   UNL     1      -0.993   6.210  -2.454  0.00  0.00    +0.017 C 
ATOM     15  C   UNL     1      -2.003   6.776  -3.654  0.00  0.00    +0.126 C 
BRANCH  15  16
ATOM     16  C   UNL     1      -3.277   5.952  -3.040  0.00  0.00    +0.368 C 
ATOM     17  O   UNL     1      -2.780   4.830  -2.359  0.00  0.00    -0.245 OA
ATOM     18  O   UNL     1      -3.973   6.686  -2.267  0.00  0.00    -0.245 OA
ENDBRANCH  15  16
ENDBRANCH   1  15
TORSDOF 3
ENDMDL
MODEL 2
REMARK VINA RESULT:      -7.7      3.143      6.104
REMARK  Name = 
REMARK  3 active torsions:
REMARK  status: ('A' for Active; 'I' for Inactive)
REMARK    1  A    between atoms: C_2  and  C_3
REMARK    2  A    between atoms: C_2  and  C_6
REMARK    3  A    between atoms: C_9  and  C_10
REMARK                            x       y       z     vdW  Elec       q    Type
REMARK                         _______ _______ _______ _____ _____    ______ ____
ROOT
ATOM      1  C   UNL     1       1.469   5.050  -7.480  0.00  0.00    -0.010 A 
ATOM      2  C   UNL     1       0.216   5.559  -7.819  0.00  0.00    +0.026 A 
ATOM      3  C   UNL     1      -0.810   5.660  -6.887  0.00  0.00    +0.140 A 
ATOM      4  F   UNL     1      -2.121   5.716  -7.255  0.00  0.00    -0.204 F 
ATOM      5  C   UNL     1      -0.553   5.477  -5.540  0.00  0.00    +0.027 A 
ATOM      6  C   UNL     1       0.670   4.923  -5.185  0.00  0.00    +0.002 A 
ATOM      7  C   UNL     1       1.623   4.769  -6.149  0.00  0.00    -0.004 A 
ENDROOT
BRANCH   5   8
ATOM      8  C   UNL     1      -1.456   5.954  -4.493  0.00  0.00    +0.002 A 
ATOM      9  C   UNL     1      -2.522   5.205  -4.018  0.00  0.00    +0.000 A 
ATOM     10  C   UNL     1      -3.130   5.657  -2.857  0.00  0.00    +0.000 A 
ATOM     11  C   UNL     1      -2.918   6.943  -2.400  0.00  0.00    +0.000 A 
ATOM     12  C   UNL     1      -2.119   7.827  -3.106  0.00  0.00    +0.000 A 
ATOM     13  C   UNL     1      -1.407   7.295  -4.154  0.00  0.00    +0.000 A 
ENDBRANCH   5   8
BRANCH   1  15
ATOM     14  C   UNL     1       3.755   5.451  -7.003  0.00  0.00    +0.017 C 
ATOM     15  C   UNL     1       2.632   6.029  -8.093  0.00  0.00    +0.126 C 
BRANCH  15  16
ATOM     16  C   UNL     1       2.227   7.263  -7.096  0.00  0.00    +0.368 C 
ATOM     17  O   UNL     1       3.266   7.430  -6.169  0.00  0.00    -0.245 OA
ATOM     18  O   UNL     1       2.019   8.335  -7.750  0.00  0.00    -0.245 OA
ENDBRANCH  15  16
ENDBRANCH   1  15
TORSDOF 3
ENDMDL
MODEL 3
REMARK VINA RESULT:      -7.7      6.239      9.365
REMARK  Name = 
REMARK  3 active torsions:
REMARK  status: ('A' for Active; 'I' for Inactive)
REMARK    1  A    between atoms: C_2  and  C_3
REMARK    2  A    between atoms: C_2  and  C_6
REMARK    3  A    between atoms: C_9  and  C_10
REMARK                            x       y       z     vdW  Elec       q    Type
REMARK                         _______ _______ _______ _____ _____    ______ ____
ROOT
ATOM      1  C   UNL     1       6.582   5.678 -11.176  0.00  0.00    -0.010 A 
ATOM      2  C   UNL     1       5.214   5.695 -11.438  0.00  0.00    +0.026 A 
ATOM      3  C   UNL     1       4.272   5.638 -10.417  0.00  0.00    +0.140 A 
ATOM      4  F   UNL     1       2.996   5.210 -10.630  0.00  0.00    -0.204 F 
ATOM      5  C   UNL     1       4.658   5.799  -9.098  0.00  0.00    +0.027 A 
ATOM      6  C   UNL     1       6.015   5.733  -8.811  0.00  0.00    +0.002 A 
ATOM      7  C   UNL     1       6.904   5.711  -9.845  0.00  0.00    -0.004 A 
ENDROOT
BRANCH   5   8
ATOM      8  C   UNL     1       3.716   6.153  -8.038  0.00  0.00    +0.002 A 
ATOM      9  C   UNL     1       2.825   7.211  -8.143  0.00  0.00    +0.000 A 
ATOM     10  C   UNL     1       1.820   7.275  -7.191  0.00  0.00    +0.000 A 
ATOM     11  C   UNL     1       1.904   6.543  -6.022  0.00  0.00    +0.000 A 
ATOM     12  C   UNL     1       3.010   5.751  -5.755  0.00  0.00    +0.000 A 
ATOM     13  C   UNL     1       3.900   5.586  -6.789  0.00  0.00    +0.000 A 
ENDBRANCH   5   8
BRANCH   1  15
ATOM     14  C   UNL     1       6.201   6.669 -13.295  0.00  0.00    +0.017 C 
ATOM     15  C   UNL     1       7.317   6.841 -12.067  0.00  0.00    +0.126 C 
BRANCH  15  16
ATOM     16  C   UNL     1       8.332   5.767 -12.773  0.00  0.00    +0.368 C 
ATOM     17  O   UNL     1       9.543   5.786 -12.065  0.00  0.00    -0.245 OA
ATOM     18  O   UNL     1       7.828   4.598 -12.790  0.00  0.00    -0.245 OA
ENDBRANCH  15  16
ENDBRANCH   1  15
TORSDOF 3
ENDMDL
MODEL 4
REMARK VINA RESULT:      -7.6      4.243      6.711
REMARK  Name = 
REMARK  3 active torsions:
REMARK  status: ('A' for Active; 'I' for Inactive)
REMARK    1  A    between atoms: C_2  and  C_3
REMARK    2  A    between atoms: C_2  and  C_6
REMARK    3  A    between atoms: C_9  and  C_10
REMARK                            x       y       z     vdW  Elec       q    Type
REMARK                         _______ _______ _______ _____ _____    ______ ____
ROOT
ATOM      1  C   UNL     1       3.776   6.067  -7.942  0.00  0.00    -0.010 A 
ATOM      2  C   UNL     1       3.322   5.154  -6.992  0.00  0.00    +0.026 A 
ATOM      3  C   UNL     1       2.183   5.393  -6.231  0.00  0.00    +0.140 A 
ATOM      4  F   UNL     1       1.970   4.780  -5.034  0.00  0.00    -0.204 F 
ATOM      5  C   UNL     1       1.333   6.435  -6.553  0.00  0.00    +0.027 A 
ATOM      6  C   UNL     1       1.788   7.385  -7.459  0.00  0.00    +0.002 A 
ATOM      7  C   UNL     1       2.953   7.146  -8.128  0.00  0.00    -0.004 A 
ENDROOT
BRANCH   5   8
ATOM      8  C   UNL     1      -0.048   6.501  -6.077  0.00  0.00    +0.002 A 
ATOM      9  C   UNL     1      -0.427   7.232  -4.961  0.00  0.00    +0.000 A 
ATOM     10  C   UNL     1      -1.787   7.423  -4.775  0.00  0.00    +0.000 A 
ATOM     11  C   UNL     1      -2.710   6.652  -5.455  0.00  0.00    +0.000 A 
ATOM     12  C   UNL     1      -2.303   5.645  -6.314  0.00  0.00    +0.000 A 
ATOM     13  C   UNL     1      -0.958   5.597  -6.596  0.00  0.00    +0.000 A 
ENDBRANCH   5   8
BRANCH   1  15
ATOM     14  C   UNL     1       5.782   5.384  -9.004  0.00  0.00    +0.017 C 
ATOM     15  C   UNL     1       4.149   5.269  -9.324  0.00  0.00    +0.126 C 
BRANCH  15  16
ATOM     16  C   UNL     1       4.175   6.649 -10.205  0.00  0.00    +0.368 C 
ATOM     17  O   UNL     1       5.515   6.985 -10.444  0.00  0.00    -0.245 OA
ATOM     18  O   UNL     1       3.535   6.511 -11.297  0.00  0.00    -0.245 OA
ENDBRANCH  15  16
ENDBRANCH   1  15
TORSDOF 3
ENDMDL
MODEL 5
REMARK VINA RESULT:      -7.6      3.016      4.755
REMARK  Name = 
REMARK  3 active torsions:
REMARK  status: ('A' for Active; 'I' for Inactive)
REMARK    1  A    between atoms: C_2  and  C_3
REMARK    2  A    between atoms: C_2  and  C_6
REMARK    3  A    between atoms: C_9  and  C_10
REMARK                            x       y       z     vdW  Elec       q    Type
REMARK                         _______ _______ _______ _____ _____    ______ ____
ROOT
ATOM      1  C   UNL     1       0.838   6.115  -7.925  0.00  0.00    -0.010 A 
ATOM      2  C   UNL     1       1.228   5.330  -9.008  0.00  0.00    +0.026 A 
ATOM      3  C   UNL     1       2.377   5.610  -9.740  0.00  0.00    +0.140 A 
ATOM      4  F   UNL     1       2.546   5.174 -11.019  0.00  0.00    -0.204 F 
ATOM      5  C   UNL     1       3.294   6.534  -9.275  0.00  0.00    +0.027 A 
ATOM      6  C   UNL     1       2.905   7.362  -8.230  0.00  0.00    +0.002 A 
ATOM      7  C   UNL     1       1.730   7.098  -7.589  0.00  0.00    -0.004 A 
ENDROOT
BRANCH   5   8
ATOM      8  C   UNL     1       4.675   6.585  -9.754  0.00  0.00    +0.002 A 
ATOM      9  C   UNL     1       5.059   7.310 -10.872  0.00  0.00    +0.000 A 
ATOM     10  C   UNL     1       6.421   7.486 -11.061  0.00  0.00    +0.000 A 
ATOM     11  C   UNL     1       7.337   6.705 -10.383  0.00  0.00    +0.000 A 
ATOM     12  C   UNL     1       6.920   5.702  -9.522  0.00  0.00    +0.000 A 
ATOM     13  C   UNL     1       5.576   5.670  -9.237  0.00  0.00    +0.000 A 
ENDBRANCH   5   8
BRANCH   1  15
ATOM     14  C   UNL     1      -1.200   5.284  -7.046  0.00  0.00    +0.017 C 
ATOM     15  C   UNL     1       0.420   5.140  -6.675  0.00  0.00    +0.126 C 
BRANCH  15  16
ATOM     16  C   UNL     1       0.340   6.394  -5.624  0.00  0.00    +0.368 C 
ATOM     17  O   UNL     1      -1.011   6.726  -5.448  0.00  0.00    -0.245 OA
ATOM     18  O   UNL     1       0.889   6.100  -4.514  0.00  0.00    -0.245 OA
ENDBRANCH  15  16
ENDBRANCH   1  15
TORSDOF 3
ENDMDL
MODEL 6
REMARK VINA RESULT:      -7.4      4.276      6.346
REMARK  Name = 
REMARK  3 active torsions:
REMARK  status: ('A' for Active; 'I' for Inactive)
REMARK    1  A    between atoms: C_2  and  C_3
REMARK    2  A    between atoms: C_2  and  C_6
REMARK    3  A    between atoms: C_9  and  C_10
REMARK                            x       y       z     vdW  Elec       q    Type
REMARK                         _______ _______ _______ _____ _____    ______ ____
ROOT
ATOM      1  C   UNL     1       3.174   5.684  -8.026  0.00  0.00    -0.010 A 
ATOM      2  C   UNL     1       3.200   6.617  -9.061  0.00  0.00    +0.026 A 
ATOM      3  C   UNL     1       4.345   6.838  -9.819  0.00  0.00    +0.140 A 
ATOM      4  F   UNL     1       4.550   8.000 -10.500  0.00  0.00    -0.204 F 
ATOM      5  C   UNL     1       5.423   5.977  -9.726  0.00  0.00    +0.027 A 
ATOM      6  C   UNL     1       5.439   5.074  -8.671  0.00  0.00    +0.002 A 
ATOM      7  C   UNL     1       4.320   4.944  -7.902  0.00  0.00    -0.004 A 
ENDROOT
BRANCH   5   8
ATOM      8  C   UNL     1       6.462   5.901 -10.752  0.00  0.00    +0.002 A 
ATOM      9  C   UNL     1       7.750   6.376 -10.556  0.00  0.00    +0.000 A 
ATOM     10  C   UNL     1       8.698   6.009 -11.499  0.00  0.00    +0.000 A 
ATOM     11  C   UNL     1       8.318   5.500 -12.725  0.00  0.00    +0.000 A 
ATOM     12  C   UNL     1       6.979   5.374 -13.060  0.00  0.00    +0.000 A 
ATOM     13  C   UNL     1       6.078   5.591 -12.045  0.00  0.00    +0.000 A 
ENDBRANCH   5   8
BRANCH   1  15
ATOM     14  C   UNL     1       0.912   6.118  -8.584  0.00  0.00    +0.017 C 
ATOM     15  C   UNL     1       1.810   4.782  -8.147  0.00  0.00    +0.126 C 
BRANCH  15  16
ATOM     16  C   UNL     1       1.440   4.990  -6.566  0.00  0.00    +0.368 C 
ATOM     17  O   UNL     1       0.336   5.851  -6.489  0.00  0.00    -0.245 OA
ATOM     18  O   UNL     1       1.194   3.877  -5.999  0.00  0.00    -0.245 OA
ENDBRANCH  15  16
ENDBRANCH   1  15
TORSDOF 3
ENDMDL
MODEL 7
REMARK VINA RESULT:      -7.3      4.133      5.992
REMARK  Name = 
REMARK  3 active torsions:
REMARK  status: ('A' for Active; 'I' for Inactive)
REMARK    1  A    between atoms: C_2  and  C_3
REMARK    2  A    between atoms: C_2  and  C_6
REMARK    3  A    between atoms: C_9  and  C_10
REMARK                            x       y       z     vdW  Elec       q    Type
REMARK                         _______ _______ _______ _____ _____    ______ ____
ROOT
ATOM      1  C   UNL     1       2.732   5.958  -8.352  0.00  0.00    -0.010 A 
ATOM      2  C   UNL     1       3.988   5.619  -7.851  0.00  0.00    +0.026 A 
ATOM      3  C   UNL     1       5.065   5.357  -8.690  0.00  0.00    +0.140 A 
ATOM      4  F   UNL     1       6.133   4.613  -8.287  0.00  0.00    -0.204 F 
ATOM      5  C   UNL     1       4.989   5.650 -10.039  0.00  0.00    +0.027 A 
ATOM      6  C   UNL     1       3.738   5.939 -10.568  0.00  0.00    +0.002 A 
ATOM      7  C   UNL     1       2.689   6.112  -9.713  0.00  0.00    -0.004 A 
ENDROOT
BRANCH   5   8
ATOM      8  C   UNL     1       6.174   5.785 -10.885  0.00  0.00    +0.002 A 
ATOM      9  C   UNL     1       7.282   6.534 -10.516  0.00  0.00    +0.000 A 
ATOM     10  C   UNL     1       8.427   6.367 -11.279  0.00  0.00    +0.000 A 
ATOM     11  C   UNL     1       8.370   5.766 -12.521  0.00  0.00    +0.000 A 
ATOM     12  C   UNL     1       7.163   5.343 -13.053  0.00  0.00    +0.000 A 
ATOM     13  C   UNL     1       6.083   5.375 -12.203  0.00  0.00    +0.000 A 
ENDBRANCH   5   8
BRANCH   1  15
ATOM     14  C   UNL     1       3.259   7.013  -6.297  0.00  0.00    +0.017 C 
ATOM     15  C   UNL     1       2.147   7.242  -7.518  0.00  0.00    +0.126 C 
BRANCH  15  16
ATOM     16  C   UNL     1       1.033   6.327  -6.742  0.00  0.00    +0.368 C 
ATOM     17  O   UNL     1       0.460   7.110  -5.728  0.00  0.00    -0.245 OA
ATOM     18  O   UNL     1       0.145   5.898  -7.546  0.00  0.00    -0.245 OA
ENDBRANCH  15  16
ENDBRANCH   1  15
TORSDOF 3
ENDMDL
MODEL 8
REMARK VINA RESULT:      -7.1      4.386      7.080
REMARK  Name = 
REMARK  3 active torsions:
REMARK  status: ('A' for Active; 'I' for Inactive)
REMARK    1  A    between atoms: C_2  and  C_3
REMARK    2  A    between atoms: C_2  and  C_6
REMARK    3  A    between atoms: C_9  and  C_10
REMARK                            x       y       z     vdW  Elec       q    Type
REMARK                         _______ _______ _______ _____ _____    ______ ____
ROOT
ATOM      1  C   UNL     1       3.272   5.464  -9.124  0.00  0.00    -0.010 A 
ATOM      2  C   UNL     1       2.029   5.798  -9.659  0.00  0.00    +0.026 A 
ATOM      3  C   UNL     1       0.871   5.776  -8.889  0.00  0.00    +0.140 A 
ATOM      4  F   UNL     1      -0.367   5.653  -9.445  0.00  0.00    -0.204 F 
ATOM      5  C   UNL     1       0.946   5.650  -7.514  0.00  0.00    +0.027 A 
ATOM      6  C   UNL     1       2.164   5.268  -6.967  0.00  0.00    +0.002 A 
ATOM      7  C   UNL     1       3.262   5.226  -7.776  0.00  0.00    -0.004 A 
ENDROOT
BRANCH   5   8
ATOM      8  C   UNL     1      -0.155   6.020  -6.627  0.00  0.00    +0.002 A 
ATOM      9  C   UNL     1       0.005   6.868  -5.540  0.00  0.00    +0.000 A 
ATOM     10  C   UNL     1      -1.155   7.341  -4.946  0.00  0.00    +0.000 A 
ATOM     11  C   UNL     1      -2.374   6.742  -5.194  0.00  0.00    +0.000 A 
ATOM     12  C   UNL     1      -2.468   5.631  -6.017  0.00  0.00    +0.000 A 
ATOM     13  C   UNL     1      -1.331   5.296  -6.713  0.00  0.00    +0.000 A 
ENDBRANCH   5   8
BRANCH   1  15
ATOM     14  C   UNL     1       3.867   6.481 -11.180  0.00  0.00    +0.017 C 
ATOM     15  C   UNL     1       4.378   6.578  -9.596  0.00  0.00    +0.126 C 
BRANCH  15  16
ATOM     16  C   UNL     1       5.529   5.441  -9.846  0.00  0.00    +0.368 C 
ATOM     17  O   UNL     1       5.868   5.460 -11.208  0.00  0.00    -0.245 OA
ATOM     18  O   UNL     1       6.551   5.649  -9.117  0.00  0.00    -0.245 OA
ENDBRANCH  15  16
ENDBRANCH   1  15
TORSDOF 3
ENDMDL
MODEL 9
REMARK VINA RESULT:      -6.9      6.122      8.489
REMARK  Name = 
REMARK  3 active torsions:
REMARK  status: ('A' for Active; 'I' for Inactive)
REMARK    1  A    between atoms: C_2  and  C_3
REMARK    2  A    between atoms: C_2  and  C_6
REMARK    3  A    between atoms: C_9  and  C_10
REMARK                            x       y       z     vdW  Elec       q    Type
REMARK                         _______ _______ _______ _____ _____    ______ ____
ROOT
ATOM      1  C   UNL     1       4.733   5.378 -10.117  0.00  0.00    -0.010 A 
ATOM      2  C   UNL     1       3.464   5.428  -9.542  0.00  0.00    +0.026 A 
ATOM      3  C   UNL     1       3.280   5.359  -8.166  0.00  0.00    +0.140 A 
ATOM      4  F   UNL     1       2.101   4.961  -7.612  0.00  0.00    -0.204 F 
ATOM      5  C   UNL     1       4.359   5.474  -7.309  0.00  0.00    +0.027 A 
ATOM      6  C   UNL     1       5.632   5.375  -7.855  0.00  0.00    +0.002 A 
ATOM      7  C   UNL     1       5.763   5.367  -9.213  0.00  0.00    -0.004 A 
ENDROOT
BRANCH   5   8
ATOM      8  C   UNL     1       4.210   5.815  -5.894  0.00  0.00    +0.002 A 
ATOM      9  C   UNL     1       3.969   7.107  -5.452  0.00  0.00    +0.000 A 
ATOM     10  C   UNL     1       3.590   7.249  -4.126  0.00  0.00    +0.000 A 
ATOM     11  C   UNL     1       3.775   6.221  -3.222  0.00  0.00    +0.000 A 
ATOM     12  C   UNL     1       4.375   5.033  -3.606  0.00  0.00    +0.000 A 
ATOM     13  C   UNL     1       4.584   4.870  -4.955  0.00  0.00    +0.000 A 
ENDBRANCH   5   8
BRANCH   1  15
ATOM     14  C   UNL     1       3.803   5.750 -12.264  0.00  0.00    +0.017 C 
ATOM     15  C   UNL     1       4.858   6.553 -11.253  0.00  0.00    +0.126 C 
BRANCH  15  16
ATOM     16  C   UNL     1       6.153   5.840 -11.958  0.00  0.00    +0.368 C 
ATOM     17  O   UNL     1       5.683   5.001 -12.978  0.00  0.00    -0.245 OA
ATOM     18  O   UNL     1       6.965   6.707 -12.415  0.00  0.00    -0.245 OA
ENDBRANCH  15  16
ENDBRANCH   1  15
TORSDOF 3
ENDMDL
