MODEL 1
REMARK VINA RESULT:      -6.3      0.000      0.000
REMARK  Name = 
REMARK  10 active torsions:
REMARK  status: ('A' for Active; 'I' for Inactive)
REMARK    1  A    between atoms: C_2  and  C_3
REMARK    2  A    between atoms: C_3  and  C_4
REMARK    3  A    between atoms: C_4  and  C_5
REMARK    4  A    between atoms: C_5  and  C_6
REMARK    5  A    between atoms: C_5  and  C_8
REMARK    6  A    between atoms: C_8  and  O_9
REMARK    7  A    between atoms: O_9  and  C_10
REMARK    8  A    between atoms: C_10  and  C_12
REMARK    9  A    between atoms: C_13  and  C_14
REMARK   10  A    between atoms: C_17  and  O_18
REMARK                            x       y       z     vdW  Elec       q    Type
REMARK                         _______ _______ _______ _____ _____    ______ ____
ROOT
ATOM      1  C   UNL     1       2.499   4.521  -9.016  0.00  0.00    +0.341 C 
ATOM      2  O   UNL     1       2.554   3.885  -7.930  0.00  0.00    -0.245 OA
ENDROOT
BRANCH   1   3
ATOM      3  C   UNL     1       1.182   4.783  -9.562  0.00  0.00    +0.082 C 
ATOM      4  C   UNL     1       0.806   5.879 -10.167  0.00  0.00    +0.007 C 
BRANCH   4   5
ATOM      5  C   UNL     1       0.312   5.922 -11.552  0.00  0.00    +0.000 A 
ATOM      6  C   UNL     1       0.560   4.867 -12.424  0.00  0.00    +0.003 A 
ATOM      7  C   UNL     1       0.830   5.093 -13.769  0.00  0.00    +0.037 A 
ATOM      8  C   UNL     1       1.091   6.378 -14.225  0.00  0.00    +0.139 A 
ATOM      9  C   UNL     1       0.573   7.398 -13.466  0.00  0.00    +0.037 A 
ATOM     10  C   UNL     1       0.149   7.160 -12.166  0.00  0.00    +0.003 A 
BRANCH   8  11
ATOM     11  O   UNL     1       1.999   6.632 -15.227  0.00  0.00    -0.471 OA
ATOM     12  C   UNL     1       1.916   7.837 -15.980  0.00  0.00    +0.252 C 
ENDBRANCH   8  11
ENDBRANCH   4   5
ENDBRANCH   1   3
BRANCH   1  13
ATOM     13  O   UNL     1       3.677   4.715  -9.702  0.00  0.00    -0.445 OA
BRANCH  13  14
ATOM     14  C   UNL     1       4.366   5.956  -9.596  0.00  0.00    +0.209 C 
BRANCH  14  15
ATOM     15  C   UNL     1       5.385   5.814 -10.893  0.00  0.00    +0.044 C 
BRANCH  15  16
ATOM     16  C   UNL     1       4.123   5.909 -11.962  0.00  0.00    +0.004 C 
ATOM     17  C   UNL     1       4.601   5.166 -13.176  0.00  0.00    +0.000 C 
ENDBRANCH  15  16
BRANCH  15  18
ATOM     18  C   UNL     1       5.623   7.452 -10.954  0.00  0.00    +0.004 C 
BRANCH  18  19
ATOM     19  C   UNL     1       6.995   7.504 -11.563  0.00  0.00    +0.000 C 
BRANCH  19  21
ATOM     20  C   UNL     1       8.718   5.837 -12.210  0.00  0.00    +0.000 C 
ATOM     21  C   UNL     1       7.759   6.271 -11.172  0.00  0.00    +0.000 C 
ENDBRANCH  19  21
ENDBRANCH  18  19
ENDBRANCH  15  18
ENDBRANCH  14  15
ENDBRANCH  13  14
ENDBRANCH   1  13
TORSDOF 10
ENDMDL
MODEL 2
REMARK VINA RESULT:      -6.3      6.234      9.082
REMARK  Name = 
REMARK  10 active torsions:
REMARK  status: ('A' for Active; 'I' for Inactive)
REMARK    1  A    between atoms: C_2  and  C_3
REMARK    2  A    between atoms: C_3  and  C_4
REMARK    3  A    between atoms: C_4  and  C_5
REMARK    4  A    between atoms: C_5  and  C_6
REMARK    5  A    between atoms: C_5  and  C_8
REMARK    6  A    between atoms: C_8  and  O_9
REMARK    7  A    between atoms: O_9  and  C_10
REMARK    8  A    between atoms: C_10  and  C_12
REMARK    9  A    between atoms: C_13  and  C_14
REMARK   10  A    between atoms: C_17  and  O_18
REMARK                            x       y       z     vdW  Elec       q    Type
REMARK                         _______ _______ _______ _____ _____    ______ ____
ROOT
ATOM      1  C   UNL     1       0.067   5.207  -7.084  0.00  0.00    +0.341 C 
ATOM      2  O   UNL     1       0.606   5.508  -8.182  0.00  0.00    -0.245 OA
ENDROOT
BRANCH   1   3
ATOM      3  C   UNL     1      -1.272   5.709  -6.846  0.00  0.00    +0.082 C 
ATOM      4  C   UNL     1      -2.090   5.300  -5.912  0.00  0.00    +0.007 C 
BRANCH   4   5
ATOM      5  C   UNL     1      -2.635   6.174  -4.861  0.00  0.00    +0.000 A 
ATOM      6  C   UNL     1      -2.139   7.462  -4.685  0.00  0.00    +0.003 A 
ATOM      7  C   UNL     1      -2.000   8.013  -3.417  0.00  0.00    +0.037 A 
ATOM      8  C   UNL     1      -2.126   7.214  -2.287  0.00  0.00    +0.139 A 
ATOM      9  C   UNL     1      -2.876   6.074  -2.443  0.00  0.00    +0.037 A 
ATOM     10  C   UNL     1      -3.161   5.590  -3.713  0.00  0.00    +0.003 A 
BRANCH   8  11
ATOM     11  O   UNL     1      -1.369   7.414  -1.157  0.00  0.00    -0.471 OA
ATOM     12  C   UNL     1      -2.000   7.623   0.101  0.00  0.00    +0.252 C 
ENDBRANCH   8  11
ENDBRANCH   4   5
ENDBRANCH   1   3
BRANCH   1  13
ATOM     13  O   UNL     1       0.861   4.625  -6.122  0.00  0.00    -0.445 OA
BRANCH  13  14
ATOM     14  C   UNL     1       2.078   5.249  -5.731  0.00  0.00    +0.209 C 
BRANCH  14  15
ATOM     15  C   UNL     1       1.471   6.462  -4.781  0.00  0.00    +0.044 C 
BRANCH  15  16
ATOM     16  C   UNL     1       0.882   5.375  -3.678  0.00  0.00    +0.004 C 
ATOM     17  C   UNL     1       1.430   5.842  -2.360  0.00  0.00    +0.000 C 
ENDBRANCH  15  16
BRANCH  15  18
ATOM     18  C   UNL     1       2.899   6.601  -3.952  0.00  0.00    +0.004 C 
BRANCH  18  19
ATOM     19  C   UNL     1       3.814   7.036  -5.061  0.00  0.00    +0.000 C 
BRANCH  19  21
ATOM     20  C   UNL     1       5.127   7.481  -3.001  0.00  0.00    +0.000 C 
ATOM     21  C   UNL     1       5.066   7.623  -4.470  0.00  0.00    +0.000 C 
ENDBRANCH  19  21
ENDBRANCH  18  19
ENDBRANCH  15  18
ENDBRANCH  14  15
ENDBRANCH  13  14
ENDBRANCH   1  13
TORSDOF 10
ENDMDL
MODEL 3
REMARK VINA RESULT:      -6.3      4.069      6.755
REMARK  Name = 
REMARK  10 active torsions:
REMARK  status: ('A' for Active; 'I' for Inactive)
REMARK    1  A    between atoms: C_2  and  C_3
REMARK    2  A    between atoms: C_3  and  C_4
REMARK    3  A    between atoms: C_4  and  C_5
REMARK    4  A    between atoms: C_5  and  C_6
REMARK    5  A    between atoms: C_5  and  C_8
REMARK    6  A    between atoms: C_8  and  O_9
REMARK    7  A    between atoms: O_9  and  C_10
REMARK    8  A    between atoms: C_10  and  C_12
REMARK    9  A    between atoms: C_13  and  C_14
REMARK   10  A    between atoms: C_17  and  O_18
REMARK                            x       y       z     vdW  Elec       q    Type
REMARK                         _______ _______ _______ _____ _____    ______ ____
ROOT
ATOM      1  C   UNL     1       0.976   5.995  -9.635  0.00  0.00    +0.341 C 
ATOM      2  O   UNL     1       0.899   7.236  -9.841  0.00  0.00    -0.245 OA
ENDROOT
BRANCH   1   3
ATOM      3  C   UNL     1       0.046   5.425  -8.680  0.00  0.00    +0.082 C 
ATOM      4  C   UNL     1       0.205   5.385  -7.383  0.00  0.00    +0.007 C 
BRANCH   4   5
ATOM      5  C   UNL     1      -0.719   6.011  -6.425  0.00  0.00    +0.000 A 
ATOM      6  C   UNL     1      -0.240   6.584  -5.251  0.00  0.00    +0.003 A 
ATOM      7  C   UNL     1      -0.951   6.488  -4.061  0.00  0.00    +0.037 A 
ATOM      8  C   UNL     1      -2.033   5.623  -3.958  0.00  0.00    +0.139 A 
ATOM      9  C   UNL     1      -2.658   5.306  -5.138  0.00  0.00    +0.037 A 
ATOM     10  C   UNL     1      -2.026   5.539  -6.352  0.00  0.00    +0.003 A 
BRANCH   8  11
ATOM     11  O   UNL     1      -2.320   4.941  -2.799  0.00  0.00    -0.471 OA
ATOM     12  C   UNL     1      -2.326   5.622  -1.549  0.00  0.00    +0.252 C 
ENDBRANCH   8  11
ENDBRANCH   4   5
ENDBRANCH   1   3
BRANCH   1  13
ATOM     13  O   UNL     1       2.063   5.328 -10.153  0.00  0.00    -0.445 OA
BRANCH  13  14
ATOM     14  C   UNL     1       3.041   4.774  -9.282  0.00  0.00    +0.209 C 
BRANCH  14  15
ATOM     15  C   UNL     1       4.010   6.102  -9.078  0.00  0.00    +0.044 C 
BRANCH  15  16
ATOM     16  C   UNL     1       4.808   5.391  -7.813  0.00  0.00    +0.004 C 
ATOM     17  C   UNL     1       3.891   5.577  -6.638  0.00  0.00    +0.000 C 
ENDBRANCH  15  16
BRANCH  15  18
ATOM     18  C   UNL     1       5.120   5.526 -10.165  0.00  0.00    +0.004 C 
BRANCH  18  19
ATOM     19  C   UNL     1       6.394   5.785  -9.413  0.00  0.00    +0.000 C 
BRANCH  19  21
ATOM     20  C   UNL     1       6.742   7.610 -11.060  0.00  0.00    +0.000 C 
ATOM     21  C   UNL     1       7.364   6.498 -10.312  0.00  0.00    +0.000 C 
ENDBRANCH  19  21
ENDBRANCH  18  19
ENDBRANCH  15  18
ENDBRANCH  14  15
ENDBRANCH  13  14
ENDBRANCH   1  13
TORSDOF 10
ENDMDL
MODEL 4
REMARK VINA RESULT:      -6.2      5.200      7.761
REMARK  Name = 
REMARK  10 active torsions:
REMARK  status: ('A' for Active; 'I' for Inactive)
REMARK    1  A    between atoms: C_2  and  C_3
REMARK    2  A    between atoms: C_3  and  C_4
REMARK    3  A    between atoms: C_4  and  C_5
REMARK    4  A    between atoms: C_5  and  C_6
REMARK    5  A    between atoms: C_5  and  C_8
REMARK    6  A    between atoms: C_8  and  O_9
REMARK    7  A    between atoms: O_9  and  C_10
REMARK    8  A    between atoms: C_10  and  C_12
REMARK    9  A    between atoms: C_13  and  C_14
REMARK   10  A    between atoms: C_17  and  O_18
REMARK                            x       y       z     vdW  Elec       q    Type
REMARK                         _______ _______ _______ _____ _____    ______ ____
ROOT
ATOM      1  C   UNL     1       0.653   5.044  -6.796  0.00  0.00    +0.341 C 
ATOM      2  O   UNL     1       0.922   4.346  -5.782  0.00  0.00    -0.245 OA
ENDROOT
BRANCH   1   3
ATOM      3  C   UNL     1      -0.583   5.801  -6.767  0.00  0.00    +0.082 C 
ATOM      4  C   UNL     1      -1.714   5.405  -6.245  0.00  0.00    +0.007 C 
BRANCH   4   5
ATOM      5  C   UNL     1      -2.404   6.110  -5.154  0.00  0.00    +0.000 A 
ATOM      6  C   UNL     1      -2.110   7.441  -4.875  0.00  0.00    +0.003 A 
ATOM      7  C   UNL     1      -2.080   7.913  -3.567  0.00  0.00    +0.037 A 
ATOM      8  C   UNL     1      -2.108   7.024  -2.501  0.00  0.00    +0.139 A 
ATOM      9  C   UNL     1      -2.675   5.800  -2.757  0.00  0.00    +0.037 A 
ATOM     10  C   UNL     1      -2.860   5.372  -4.066  0.00  0.00    +0.003 A 
BRANCH   8  11
ATOM     11  O   UNL     1      -1.411   7.250  -1.336  0.00  0.00    -0.471 OA
ATOM     12  C   UNL     1      -2.106   7.398  -0.103  0.00  0.00    +0.252 C 
ENDBRANCH   8  11
ENDBRANCH   4   5
ENDBRANCH   1   3
BRANCH   1  13
ATOM     13  O   UNL     1       1.425   4.860  -7.921  0.00  0.00    -0.445 OA
BRANCH  13  14
ATOM     14  C   UNL     1       2.773   4.424  -7.796  0.00  0.00    +0.209 C 
BRANCH  14  15
ATOM     15  C   UNL     1       3.550   5.870  -8.012  0.00  0.00    +0.044 C 
BRANCH  15  16
ATOM     16  C   UNL     1       4.421   5.671  -6.617  0.00  0.00    +0.004 C 
ATOM     17  C   UNL     1       3.851   6.687  -5.669  0.00  0.00    +0.000 C 
ENDBRANCH  15  16
BRANCH  15  18
ATOM     18  C   UNL     1       4.741   5.157  -8.915  0.00  0.00    +0.004 C 
BRANCH  18  19
ATOM     19  C   UNL     1       4.839   6.132 -10.053  0.00  0.00    +0.000 C 
BRANCH  19  21
ATOM     20  C   UNL     1       7.202   5.722  -9.410  0.00  0.00    +0.000 C 
ATOM     21  C   UNL     1       6.285   6.446 -10.316  0.00  0.00    +0.000 C 
ENDBRANCH  19  21
ENDBRANCH  18  19
ENDBRANCH  15  18
ENDBRANCH  14  15
ENDBRANCH  13  14
ENDBRANCH   1  13
TORSDOF 10
ENDMDL
MODEL 5
REMARK VINA RESULT:      -6.2      6.091      9.177
REMARK  Name = 
REMARK  10 active torsions:
REMARK  status: ('A' for Active; 'I' for Inactive)
REMARK    1  A    between atoms: C_2  and  C_3
REMARK    2  A    between atoms: C_3  and  C_4
REMARK    3  A    between atoms: C_4  and  C_5
REMARK    4  A    between atoms: C_5  and  C_6
REMARK    5  A    between atoms: C_5  and  C_8
REMARK    6  A    between atoms: C_8  and  O_9
REMARK    7  A    between atoms: O_9  and  C_10
REMARK    8  A    between atoms: C_10  and  C_12
REMARK    9  A    between atoms: C_13  and  C_14
REMARK   10  A    between atoms: C_17  and  O_18
REMARK                            x       y       z     vdW  Elec       q    Type
REMARK                         _______ _______ _______ _____ _____    ______ ____
ROOT
ATOM      1  C   UNL     1       0.532   5.282  -7.305  0.00  0.00    +0.341 C 
ATOM      2  O   UNL     1       0.953   5.530  -8.466  0.00  0.00    -0.245 OA
ENDROOT
BRANCH   1   3
ATOM      3  C   UNL     1      -0.888   5.450  -7.067  0.00  0.00    +0.082 C 
ATOM      4  C   UNL     1      -1.533   5.093  -5.988  0.00  0.00    +0.007 C 
BRANCH   4   5
ATOM      5  C   UNL     1      -2.278   6.029  -5.132  0.00  0.00    +0.000 A 
ATOM      6  C   UNL     1      -1.884   7.359  -5.028  0.00  0.00    +0.003 A 
ATOM      7  C   UNL     1      -1.971   8.044  -3.822  0.00  0.00    +0.037 A 
ATOM      8  C   UNL     1      -2.226   7.356  -2.642  0.00  0.00    +0.139 A 
ATOM      9  C   UNL     1      -2.882   6.158  -2.779  0.00  0.00    +0.037 A 
ATOM     10  C   UNL     1      -2.943   5.529  -4.016  0.00  0.00    +0.003 A 
BRANCH   8  11
ATOM     11  O   UNL     1      -1.662   7.721  -1.442  0.00  0.00    -0.471 OA
ATOM     12  C   UNL     1      -2.240   7.284  -0.217  0.00  0.00    +0.252 C 
ENDBRANCH   8  11
ENDBRANCH   4   5
ENDBRANCH   1   3
BRANCH   1  13
ATOM     13  O   UNL     1       1.468   5.093  -6.314  0.00  0.00    -0.445 OA
BRANCH  13  14
ATOM     14  C   UNL     1       2.739   5.725  -6.404  0.00  0.00    +0.209 C 
BRANCH  14  15
ATOM     15  C   UNL     1       3.106   5.835  -4.793  0.00  0.00    +0.044 C 
BRANCH  15  16
ATOM     16  C   UNL     1       4.033   7.186  -5.042  0.00  0.00    +0.004 C 
ATOM     17  C   UNL     1       5.288   6.930  -4.258  0.00  0.00    +0.000 C 
ENDBRANCH  15  16
BRANCH  15  18
ATOM     18  C   UNL     1       1.761   6.755  -4.494  0.00  0.00    +0.004 C 
BRANCH  18  19
ATOM     19  C   UNL     1       1.580   6.503  -3.025  0.00  0.00    +0.000 C 
BRANCH  19  21
ATOM     20  C   UNL     1       0.614   4.884  -1.409  0.00  0.00    +0.000 C 
ATOM     21  C   UNL     1       0.768   5.253  -2.831  0.00  0.00    +0.000 C 
ENDBRANCH  19  21
ENDBRANCH  18  19
ENDBRANCH  15  18
ENDBRANCH  14  15
ENDBRANCH  13  14
ENDBRANCH   1  13
TORSDOF 10
ENDMDL
MODEL 6
REMARK VINA RESULT:      -6.1      3.521      6.996
REMARK  Name = 
REMARK  10 active torsions:
REMARK  status: ('A' for Active; 'I' for Inactive)
REMARK    1  A    between atoms: C_2  and  C_3
REMARK    2  A    between atoms: C_3  and  C_4
REMARK    3  A    between atoms: C_4  and  C_5
REMARK    4  A    between atoms: C_5  and  C_6
REMARK    5  A    between atoms: C_5  and  C_8
REMARK    6  A    between atoms: C_8  and  O_9
REMARK    7  A    between atoms: O_9  and  C_10
REMARK    8  A    between atoms: C_10  and  C_12
REMARK    9  A    between atoms: C_13  and  C_14
REMARK   10  A    between atoms: C_17  and  O_18
REMARK                            x       y       z     vdW  Elec       q    Type
REMARK                         _______ _______ _______ _____ _____    ______ ____
ROOT
ATOM      1  C   UNL     1       3.363   4.828  -8.844  0.00  0.00    +0.341 C 
ATOM      2  O   UNL     1       3.643   3.613  -9.028  0.00  0.00    -0.245 OA
ENDROOT
BRANCH   1   3
ATOM      3  C   UNL     1       4.473   5.743  -8.675  0.00  0.00    +0.082 C 
ATOM      4  C   UNL     1       5.736   5.462  -8.863  0.00  0.00    +0.007 C 
BRANCH   4   5
ATOM      5  C   UNL     1       6.592   6.153  -9.839  0.00  0.00    +0.000 A 
ATOM      6  C   UNL     1       6.038   7.017 -10.779  0.00  0.00    +0.003 A 
ATOM      7  C   UNL     1       6.535   7.086 -12.075  0.00  0.00    +0.037 A 
ATOM      8  C   UNL     1       7.434   6.131 -12.533  0.00  0.00    +0.139 A 
ATOM      9  C   UNL     1       8.173   5.495 -11.566  0.00  0.00    +0.037 A 
ATOM     10  C   UNL     1       7.779   5.545 -10.235  0.00  0.00    +0.003 A 
BRANCH   8  11
ATOM     11  O   UNL     1       7.427   5.678 -13.832  0.00  0.00    -0.471 OA
ATOM     12  C   UNL     1       6.663   6.355 -14.823  0.00  0.00    +0.252 C 
ENDBRANCH   8  11
ENDBRANCH   4   5
ENDBRANCH   1   3
BRANCH   1  13
ATOM     13  O   UNL     1       2.047   5.149  -8.598  0.00  0.00    -0.445 OA
BRANCH  13  14
ATOM     14  C   UNL     1       1.695   5.851  -7.412  0.00  0.00    +0.209 C 
BRANCH  14  15
ATOM     15  C   UNL     1       1.186   4.579  -6.482  0.00  0.00    +0.044 C 
BRANCH  15  16
ATOM     16  C   UNL     1       2.195   5.014  -5.242  0.00  0.00    +0.004 C 
ATOM     17  C   UNL     1       1.760   6.403  -4.872  0.00  0.00    +0.000 C 
ENDBRANCH  15  16
BRANCH  15  18
ATOM     18  C   UNL     1      -0.057   5.471  -5.846  0.00  0.00    +0.004 C 
BRANCH  18  19
ATOM     19  C   UNL     1      -1.116   5.240  -6.887  0.00  0.00    +0.000 C 
BRANCH  19  21
ATOM     20  C   UNL     1      -2.320   6.769  -5.345  0.00  0.00    +0.000 C 
ATOM     21  C   UNL     1      -2.445   5.695  -6.352  0.00  0.00    +0.000 C 
ENDBRANCH  19  21
ENDBRANCH  18  19
ENDBRANCH  15  18
ENDBRANCH  14  15
ENDBRANCH  13  14
ENDBRANCH   1  13
TORSDOF 10
ENDMDL
MODEL 7
REMARK VINA RESULT:      -6.1      4.265      7.628
REMARK  Name = 
REMARK  10 active torsions:
REMARK  status: ('A' for Active; 'I' for Inactive)
REMARK    1  A    between atoms: C_2  and  C_3
REMARK    2  A    between atoms: C_3  and  C_4
REMARK    3  A    between atoms: C_4  and  C_5
REMARK    4  A    between atoms: C_5  and  C_6
REMARK    5  A    between atoms: C_5  and  C_8
REMARK    6  A    between atoms: C_8  and  O_9
REMARK    7  A    between atoms: O_9  and  C_10
REMARK    8  A    between atoms: C_10  and  C_12
REMARK    9  A    between atoms: C_13  and  C_14
REMARK   10  A    between atoms: C_17  and  O_18
REMARK                            x       y       z     vdW  Elec       q    Type
REMARK                         _______ _______ _______ _____ _____    ______ ____
ROOT
ATOM      1  C   UNL     1       2.408   6.182  -4.827  0.00  0.00    +0.341 C 
ATOM      2  O   UNL     1       2.252   6.985  -3.869  0.00  0.00    -0.245 OA
ENDROOT
BRANCH   1   3
ATOM      3  C   UNL     1       3.462   6.482  -5.776  0.00  0.00    +0.082 C 
ATOM      4  C   UNL     1       4.243   5.610  -6.358  0.00  0.00    +0.007 C 
BRANCH   4   5
ATOM      5  C   UNL     1       4.327   5.431  -7.816  0.00  0.00    +0.000 A 
ATOM      6  C   UNL     1       5.559   5.245  -8.435  0.00  0.00    +0.003 A 
ATOM      7  C   UNL     1       5.829   5.800  -9.681  0.00  0.00    +0.037 A 
ATOM      8  C   UNL     1       4.971   6.745 -10.228  0.00  0.00    +0.139 A 
ATOM      9  C   UNL     1       3.673   6.702  -9.783  0.00  0.00    +0.037 A 
ATOM     10  C   UNL     1       3.353   6.017  -8.618  0.00  0.00    +0.003 A 
BRANCH   8  11
ATOM     11  O   UNL     1       5.425   7.801 -10.984  0.00  0.00    -0.471 OA
ATOM     12  C   UNL     1       6.571   7.647 -11.814  0.00  0.00    +0.252 C 
ENDBRANCH   8  11
ENDBRANCH   4   5
ENDBRANCH   1   3
BRANCH   1  13
ATOM     13  O   UNL     1       1.440   5.222  -5.019  0.00  0.00    -0.445 OA
BRANCH  13  14
ATOM     14  C   UNL     1       0.112   5.449  -4.563  0.00  0.00    +0.209 C 
BRANCH  14  15
ATOM     15  C   UNL     1      -0.429   6.440  -5.775  0.00  0.00    +0.044 C 
BRANCH  15  16
ATOM     16  C   UNL     1      -0.810   5.144  -6.735  0.00  0.00    +0.004 C 
ATOM     17  C   UNL     1      -0.269   5.506  -8.088  0.00  0.00    +0.000 C 
ENDBRANCH  15  16
BRANCH  15  18
ATOM     18  C   UNL     1      -1.957   6.478  -5.136  0.00  0.00    +0.004 C 
BRANCH  18  19
ATOM     19  C   UNL     1      -1.806   7.593  -4.141  0.00  0.00    +0.000 C 
BRANCH  19  21
ATOM     20  C   UNL     1      -3.328   5.988  -3.012  0.00  0.00    +0.000 C 
ATOM     21  C   UNL     1      -2.563   7.246  -2.890  0.00  0.00    +0.000 C 
ENDBRANCH  19  21
ENDBRANCH  18  19
ENDBRANCH  15  18
ENDBRANCH  14  15
ENDBRANCH  13  14
ENDBRANCH   1  13
TORSDOF 10
ENDMDL
MODEL 8
REMARK VINA RESULT:      -6.1      2.478      5.395
REMARK  Name = 
REMARK  10 active torsions:
REMARK  status: ('A' for Active; 'I' for Inactive)
REMARK    1  A    between atoms: C_2  and  C_3
REMARK    2  A    between atoms: C_3  and  C_4
REMARK    3  A    between atoms: C_4  and  C_5
REMARK    4  A    between atoms: C_5  and  C_6
REMARK    5  A    between atoms: C_5  and  C_8
REMARK    6  A    between atoms: C_8  and  O_9
REMARK    7  A    between atoms: O_9  and  C_10
REMARK    8  A    between atoms: C_10  and  C_12
REMARK    9  A    between atoms: C_13  and  C_14
REMARK   10  A    between atoms: C_17  and  O_18
REMARK                            x       y       z     vdW  Elec       q    Type
REMARK                         _______ _______ _______ _____ _____    ______ ____
ROOT
ATOM      1  C   UNL     1       1.466   5.881 -11.242  0.00  0.00    +0.341 C 
ATOM      2  O   UNL     1       0.882   4.985 -11.908  0.00  0.00    -0.245 OA
ENDROOT
BRANCH   1   3
ATOM      3  C   UNL     1       0.768   6.402 -10.084  0.00  0.00    +0.082 C 
ATOM      4  C   UNL     1       0.488   5.739  -8.992  0.00  0.00    +0.007 C 
BRANCH   4   5
ATOM      5  C   UNL     1       0.964   6.124  -7.655  0.00  0.00    +0.000 A 
ATOM      6  C   UNL     1       1.857   7.180  -7.499  0.00  0.00    +0.003 A 
ATOM      7  C   UNL     1       2.868   7.133  -6.546  0.00  0.00    +0.037 A 
ATOM      8  C   UNL     1       3.159   5.944  -5.890  0.00  0.00    +0.139 A 
ATOM      9  C   UNL     1       2.135   5.032  -5.825  0.00  0.00    +0.037 A 
ATOM     10  C   UNL     1       1.035   5.149  -6.665  0.00  0.00    +0.003 A 
BRANCH   8  11
ATOM     11  O   UNL     1       4.441   5.594  -5.536  0.00  0.00    -0.471 OA
ATOM     12  C   UNL     1       4.679   4.851  -4.346  0.00  0.00    +0.252 C 
ENDBRANCH   8  11
ENDBRANCH   4   5
ENDBRANCH   1   3
BRANCH   1  13
ATOM     13  O   UNL     1       2.599   6.442 -11.784  0.00  0.00    -0.445 OA
BRANCH  13  14
ATOM     14  C   UNL     1       3.879   5.906 -11.472  0.00  0.00    +0.209 C 
BRANCH  14  15
ATOM     15  C   UNL     1       4.218   6.783 -10.109  0.00  0.00    +0.044 C 
BRANCH  15  16
ATOM     16  C   UNL     1       5.153   5.561  -9.493  0.00  0.00    +0.004 C 
ATOM     17  C   UNL     1       4.165   4.528  -9.032  0.00  0.00    +0.000 C 
ENDBRANCH  15  16
BRANCH  15  18
ATOM     18  C   UNL     1       5.533   7.491 -10.826  0.00  0.00    +0.004 C 
BRANCH  18  19
ATOM     19  C   UNL     1       6.204   6.284 -11.415  0.00  0.00    +0.000 C 
BRANCH  19  21
ATOM     20  C   UNL     1       8.336   5.509 -12.425  0.00  0.00    +0.000 C 
ATOM     21  C   UNL     1       7.602   6.646 -11.832  0.00  0.00    +0.000 C 
ENDBRANCH  19  21
ENDBRANCH  18  19
ENDBRANCH  15  18
ENDBRANCH  14  15
ENDBRANCH  13  14
ENDBRANCH   1  13
TORSDOF 10
ENDMDL
MODEL 9
REMARK VINA RESULT:      -6.1      3.003      5.456
REMARK  Name = 
REMARK  10 active torsions:
REMARK  status: ('A' for Active; 'I' for Inactive)
REMARK    1  A    between atoms: C_2  and  C_3
REMARK    2  A    between atoms: C_3  and  C_4
REMARK    3  A    between atoms: C_4  and  C_5
REMARK    4  A    between atoms: C_5  and  C_6
REMARK    5  A    between atoms: C_5  and  C_8
REMARK    6  A    between atoms: C_8  and  O_9
REMARK    7  A    between atoms: O_9  and  C_10
REMARK    8  A    between atoms: C_10  and  C_12
REMARK    9  A    between atoms: C_13  and  C_14
REMARK   10  A    between atoms: C_17  and  O_18
REMARK                            x       y       z     vdW  Elec       q    Type
REMARK                         _______ _______ _______ _____ _____    ______ ____
ROOT
ATOM      1  C   UNL     1       1.954   5.982 -11.019  0.00  0.00    +0.341 C 
ATOM      2  O   UNL     1       1.433   5.072 -11.718  0.00  0.00    -0.245 OA
ENDROOT
BRANCH   1   3
ATOM      3  C   UNL     1       1.180   6.479  -9.899  0.00  0.00    +0.082 C 
ATOM      4  C   UNL     1       0.162   5.876  -9.341  0.00  0.00    +0.007 C 
BRANCH   4   5
ATOM      5  C   UNL     1       0.122   5.477  -7.925  0.00  0.00    +0.000 A 
ATOM      6  C   UNL     1      -1.094   5.248  -7.289  0.00  0.00    +0.003 A 
ATOM      7  C   UNL     1      -1.293   5.614  -5.963  0.00  0.00    +0.037 A 
ATOM      8  C   UNL     1      -0.372   6.427  -5.315  0.00  0.00    +0.139 A 
ATOM      9  C   UNL     1       0.906   6.401  -5.817  0.00  0.00    +0.037 A 
ATOM     10  C   UNL     1       1.151   5.892  -7.085  0.00  0.00    +0.003 A 
BRANCH   8  11
ATOM     11  O   UNL     1      -0.749   7.371  -4.388  0.00  0.00    -0.471 OA
ATOM     12  C   UNL     1      -1.865   8.218  -4.641  0.00  0.00    +0.252 C 
ENDBRANCH   8  11
ENDBRANCH   4   5
ENDBRANCH   1   3
BRANCH   1  13
ATOM     13  O   UNL     1       3.098   6.578 -11.497  0.00  0.00    -0.445 OA
BRANCH  13  14
ATOM     14  C   UNL     1       4.345   5.899 -11.411  0.00  0.00    +0.209 C 
BRANCH  14  15
ATOM     15  C   UNL     1       5.209   7.021 -10.552  0.00  0.00    +0.044 C 
BRANCH  15  16
ATOM     16  C   UNL     1       5.940   5.843  -9.646  0.00  0.00    +0.004 C 
ATOM     17  C   UNL     1       4.909   5.463  -8.622  0.00  0.00    +0.000 C 
ENDBRANCH  15  16
BRANCH  15  18
ATOM     18  C   UNL     1       6.440   7.000 -11.660  0.00  0.00    +0.004 C 
BRANCH  18  19
ATOM     19  C   UNL     1       6.403   5.559 -12.080  0.00  0.00    +0.000 C 
BRANCH  19  21
ATOM     20  C   UNL     1       8.867   5.848 -12.176  0.00  0.00    +0.000 C 
ATOM     21  C   UNL     1       7.682   5.215 -12.790  0.00  0.00    +0.000 C 
ENDBRANCH  19  21
ENDBRANCH  18  19
ENDBRANCH  15  18
ENDBRANCH  14  15
ENDBRANCH  13  14
ENDBRANCH   1  13
TORSDOF 10
ENDMDL
