MODEL 1
REMARK VINA RESULT:      -6.6      0.000      0.000
REMARK  Name = 
REMARK  0 active torsions:
REMARK  status: ('A' for Active; 'I' for Inactive)
REMARK                            x       y       z     vdW  Elec       q    Type
REMARK                         _______ _______ _______ _____ _____    ______ ____
ROOT
ATOM      1  N   UNL     1       2.113   8.251  -7.863  0.00  0.00    -0.057 NA
ATOM      2  C   UNL     1       2.049   6.962  -7.239  0.00  0.00    +0.336 A 
ATOM      3  N   UNL     1       2.237   5.909  -8.070  0.00  0.00    -0.113 N 
ATOM      4  O   UNL     1       2.103   6.023  -9.444  0.00  0.00    -0.616 OA
ATOM      5  C   UNL     1       2.083   4.681  -7.519  0.00  0.00    +0.429 A 
ATOM      6  N   UNL     1       2.524   3.546  -8.272  0.00  0.00    -0.038 NA
ATOM      7  N   UNL     1       1.533   4.533  -6.289  0.00  0.00    -0.152 NA
ATOM      8  C   UNL     1       0.888   5.551  -5.672  0.00  0.00    +0.147 A 
ATOM      9  N   UNL     1      -0.396   5.377  -5.061  0.00  0.00    -0.293 N 
ATOM     10  C   UNL     1      -1.613   5.682  -5.806  0.00  0.00    +0.092 C 
ATOM     11  C   UNL     1      -2.229   6.993  -5.344  0.00  0.00    +0.022 C 
ATOM     12  C   UNL     1      -2.505   6.853  -3.869  0.00  0.00    +0.004 C 
ATOM     13  C   UNL     1      -2.001   5.544  -3.316  0.00  0.00    +0.022 C 
ATOM     14  C   UNL     1      -0.515   5.363  -3.605  0.00  0.00    +0.092 C 
ATOM     15  C   UNL     1       1.300   6.817  -6.076  0.00  0.00    +0.126 A 
ENDROOT
TORSDOF 0
ENDMDL
MODEL 2
REMARK VINA RESULT:      -6.5      1.997      2.533
REMARK  Name = 
REMARK  0 active torsions:
REMARK  status: ('A' for Active; 'I' for Inactive)
REMARK                            x       y       z     vdW  Elec       q    Type
REMARK                         _______ _______ _______ _____ _____    ______ ____
ROOT
ATOM      1  N   UNL     1       3.192   6.875  -8.903  0.00  0.00    -0.057 NA
ATOM      2  C   UNL     1       2.996   7.014  -7.490  0.00  0.00    +0.336 A 
ATOM      3  N   UNL     1       3.923   6.402  -6.716  0.00  0.00    -0.113 N 
ATOM      4  O   UNL     1       4.750   5.406  -7.207  0.00  0.00    -0.616 OA
ATOM      5  C   UNL     1       3.701   6.439  -5.379  0.00  0.00    +0.429 A 
ATOM      6  N   UNL     1       4.769   6.046  -4.509  0.00  0.00    -0.038 NA
ATOM      7  N   UNL     1       2.506   6.840  -4.883  0.00  0.00    -0.152 NA
ATOM      8  C   UNL     1       1.415   6.973  -5.674  0.00  0.00    +0.147 A 
ATOM      9  N   UNL     1       0.142   6.426  -5.311  0.00  0.00    -0.293 N 
ATOM     10  C   UNL     1      -0.255   5.106  -5.789  0.00  0.00    +0.092 C 
ATOM     11  C   UNL     1      -1.281   5.209  -6.906  0.00  0.00    +0.022 C 
ATOM     12  C   UNL     1      -2.457   5.972  -6.353  0.00  0.00    +0.004 C 
ATOM     13  C   UNL     1      -2.207   6.469  -4.952  0.00  0.00    +0.022 C 
ATOM     14  C   UNL     1      -0.939   7.312  -4.888  0.00  0.00    +0.092 C 
ATOM     15  C   UNL     1       1.707   7.227  -7.010  0.00  0.00    +0.126 A 
ENDROOT
TORSDOF 0
ENDMDL
MODEL 3
REMARK VINA RESULT:      -6.4      4.277      5.656
REMARK  Name = 
REMARK  0 active torsions:
REMARK  status: ('A' for Active; 'I' for Inactive)
REMARK                            x       y       z     vdW  Elec       q    Type
REMARK                         _______ _______ _______ _____ _____    ______ ____
ROOT
ATOM      1  N   UNL     1      -0.698   7.938   0.508  0.00  0.00    -0.057 NA
ATOM      2  C   UNL     1      -0.496   6.743  -0.258  0.00  0.00    +0.336 A 
ATOM      3  N   UNL     1       0.754   6.224  -0.198  0.00  0.00    -0.113 N 
ATOM      4  O   UNL     1       1.842   6.971   0.223  0.00  0.00    -0.616 OA
ATOM      5  C   UNL     1       0.992   5.151  -0.991  0.00  0.00    +0.429 A 
ATOM      6  N   UNL     1       2.197   4.408  -0.774  0.00  0.00    -0.038 NA
ATOM      7  N   UNL     1       0.112   4.790  -1.957  0.00  0.00    -0.152 NA
ATOM      8  C   UNL     1      -0.894   5.609  -2.344  0.00  0.00    +0.147 A 
ATOM      9  N   UNL     1      -1.172   5.872  -3.725  0.00  0.00    -0.293 N 
ATOM     10  C   UNL     1      -0.599   7.042  -4.381  0.00  0.00    +0.092 C 
ATOM     11  C   UNL     1      -1.641   8.132  -4.577  0.00  0.00    +0.022 C 
ATOM     12  C   UNL     1      -2.756   7.531  -5.394  0.00  0.00    +0.004 C 
ATOM     13  C   UNL     1      -2.543   6.061  -5.658  0.00  0.00    +0.022 C 
ATOM     14  C   UNL     1      -2.356   5.293  -4.354  0.00  0.00    +0.092 C 
ATOM     15  C   UNL     1      -1.301   6.515  -1.369  0.00  0.00    +0.126 A 
ENDROOT
TORSDOF 0
ENDMDL
MODEL 4
REMARK VINA RESULT:      -6.4      5.761      7.711
REMARK  Name = 
REMARK  0 active torsions:
REMARK  status: ('A' for Active; 'I' for Inactive)
REMARK                            x       y       z     vdW  Elec       q    Type
REMARK                         _______ _______ _______ _____ _____    ______ ____
ROOT
ATOM      1  N   UNL     1       2.660   5.952 -14.632  0.00  0.00    -0.057 NA
ATOM      2  C   UNL     1       2.555   5.817 -13.208  0.00  0.00    +0.336 A 
ATOM      3  N   UNL     1       1.507   6.461 -12.643  0.00  0.00    -0.113 N 
ATOM      4  O   UNL     1       0.829   7.478 -13.295  0.00  0.00    -0.616 OA
ATOM      5  C   UNL     1       1.447   6.426 -11.289  0.00  0.00    +0.429 A 
ATOM      6  N   UNL     1       0.235   6.856 -10.659  0.00  0.00    -0.038 NA
ATOM      7  N   UNL     1       2.501   5.994 -10.556  0.00  0.00    -0.152 NA
ATOM      8  C   UNL     1       3.727   5.823 -11.105  0.00  0.00    +0.147 A 
ATOM      9  N   UNL     1       4.913   6.335 -10.487  0.00  0.00    -0.293 N 
ATOM     10  C   UNL     1       5.441   7.639 -10.873  0.00  0.00    +0.092 C 
ATOM     11  C   UNL     1       6.672   7.499 -11.754  0.00  0.00    +0.022 C 
ATOM     12  C   UNL     1       7.684   6.705 -10.970  0.00  0.00    +0.004 C 
ATOM     13  C   UNL     1       7.136   6.225  -9.650  0.00  0.00    +0.022 C 
ATOM     14  C   UNL     1       5.856   5.420  -9.849  0.00  0.00    +0.092 C 
ATOM     15  C   UNL     1       3.710   5.569 -12.473  0.00  0.00    +0.126 A 
ENDROOT
TORSDOF 0
ENDMDL
MODEL 5
REMARK VINA RESULT:      -6.4      3.801      6.877
REMARK  Name = 
REMARK  0 active torsions:
REMARK  status: ('A' for Active; 'I' for Inactive)
REMARK                            x       y       z     vdW  Elec       q    Type
REMARK                         _______ _______ _______ _____ _____    ______ ____
ROOT
ATOM      1  N   UNL     1       2.223   8.268  -7.913  0.00  0.00    -0.057 NA
ATOM      2  C   UNL     1       2.375   6.932  -8.410  0.00  0.00    +0.336 A 
ATOM      3  N   UNL     1       2.359   5.960  -7.466  0.00  0.00    -0.113 N 
ATOM      4  O   UNL     1       2.579   6.231  -6.127  0.00  0.00    -0.616 OA
ATOM      5  C   UNL     1       2.600   4.700  -7.906  0.00  0.00    +0.429 A 
ATOM      6  N   UNL     1       2.335   3.614  -7.011  0.00  0.00    -0.038 NA
ATOM      7  N   UNL     1       3.072   4.477  -9.156  0.00  0.00    -0.152 NA
ATOM      8  C   UNL     1       3.562   5.482  -9.921  0.00  0.00    +0.147 A 
ATOM      9  N   UNL     1       4.810   5.368 -10.615  0.00  0.00    -0.293 N 
ATOM     10  C   UNL     1       6.038   5.867 -10.007  0.00  0.00    +0.092 C 
ATOM     11  C   UNL     1       6.480   7.175 -10.643  0.00  0.00    +0.022 C 
ATOM     12  C   UNL     1       6.662   6.906 -12.115  0.00  0.00    +0.004 C 
ATOM     13  C   UNL     1       6.260   5.504 -12.494  0.00  0.00    +0.022 C 
ATOM     14  C   UNL     1       4.826   5.212 -12.067  0.00  0.00    +0.092 C 
ATOM     15  C   UNL     1       3.051   6.737  -9.610  0.00  0.00    +0.126 A 
ENDROOT
TORSDOF 0
ENDMDL
MODEL 6
REMARK VINA RESULT:      -6.3      4.530      6.426
REMARK  Name = 
REMARK  0 active torsions:
REMARK  status: ('A' for Active; 'I' for Inactive)
REMARK                            x       y       z     vdW  Elec       q    Type
REMARK                         _______ _______ _______ _____ _____    ______ ____
ROOT
ATOM      1  N   UNL     1       4.687   4.576 -13.552  0.00  0.00    -0.057 NA
ATOM      2  C   UNL     1       5.103   5.520 -12.556  0.00  0.00    +0.336 A 
ATOM      3  N   UNL     1       6.440   5.588 -12.347  0.00  0.00    -0.113 N 
ATOM      4  O   UNL     1       7.299   4.579 -12.750  0.00  0.00    -0.616 OA
ATOM      5  C   UNL     1       6.844   6.402 -11.342  0.00  0.00    +0.429 A 
ATOM      6  N   UNL     1       8.239   6.714 -11.251  0.00  0.00    -0.038 NA
ATOM      7  N   UNL     1       5.954   6.907 -10.454  0.00  0.00    -0.152 NA
ATOM      8  C   UNL     1       4.689   6.433 -10.367  0.00  0.00    +0.147 A 
ATOM      9  N   UNL     1       4.087   6.100  -9.111  0.00  0.00    -0.293 N 
ATOM     10  C   UNL     1       4.131   4.728  -8.615  0.00  0.00    +0.092 C 
ATOM     11  C   UNL     1       2.785   4.040  -8.770  0.00  0.00    +0.022 C 
ATOM     12  C   UNL     1       1.779   4.869  -8.013  0.00  0.00    +0.004 C 
ATOM     13  C   UNL     1       2.385   6.130  -7.452  0.00  0.00    +0.022 C 
ATOM     14  C   UNL     1       3.045   6.956  -8.550  0.00  0.00    +0.092 C 
ATOM     15  C   UNL     1       4.213   5.857 -11.541  0.00  0.00    +0.126 A 
ENDROOT
TORSDOF 0
ENDMDL
MODEL 7
REMARK VINA RESULT:      -6.2      3.349      4.544
REMARK  Name = 
REMARK  0 active torsions:
REMARK  status: ('A' for Active; 'I' for Inactive)
REMARK                            x       y       z     vdW  Elec       q    Type
REMARK                         _______ _______ _______ _____ _____    ______ ____
ROOT
ATOM      1  N   UNL     1       4.170   7.458  -3.772  0.00  0.00    -0.057 NA
ATOM      2  C   UNL     1       2.940   6.883  -3.312  0.00  0.00    +0.336 A 
ATOM      3  N   UNL     1       3.067   5.957  -2.332  0.00  0.00    -0.113 N 
ATOM      4  O   UNL     1       4.269   5.323  -2.069  0.00  0.00    -0.616 OA
ATOM      5  C   UNL     1       1.925   5.332  -1.953  0.00  0.00    +0.429 A 
ATOM      6  N   UNL     1       1.954   4.547  -0.755  0.00  0.00    -0.038 NA
ATOM      7  N   UNL     1       0.791   5.450  -2.684  0.00  0.00    -0.152 NA
ATOM      8  C   UNL     1       0.801   5.970  -3.935  0.00  0.00    +0.147 A 
ATOM      9  N   UNL     1       0.133   5.331  -5.028  0.00  0.00    -0.293 N 
ATOM     10  C   UNL     1       0.862   4.424  -5.908  0.00  0.00    +0.092 C 
ATOM     11  C   UNL     1       1.165   5.078  -7.247  0.00  0.00    +0.022 C 
ATOM     12  C   UNL     1      -0.157   5.483  -7.846  0.00  0.00    +0.004 C 
ATOM     13  C   UNL     1      -1.312   5.220  -6.913  0.00  0.00    +0.022 C 
ATOM     14  C   UNL     1      -1.097   5.906  -5.569  0.00  0.00    +0.092 C 
ATOM     15  C   UNL     1       1.852   6.847  -4.179  0.00  0.00    +0.126 A 
ENDROOT
TORSDOF 0
ENDMDL
MODEL 8
REMARK VINA RESULT:      -6.2      1.719      2.196
REMARK  Name = 
REMARK  0 active torsions:
REMARK  status: ('A' for Active; 'I' for Inactive)
REMARK                            x       y       z     vdW  Elec       q    Type
REMARK                         _______ _______ _______ _____ _____    ______ ____
ROOT
ATOM      1  N   UNL     1       2.591   6.759  -5.297  0.00  0.00    -0.057 NA
ATOM      2  C   UNL     1       1.439   6.066  -5.795  0.00  0.00    +0.336 A 
ATOM      3  N   UNL     1       1.199   6.222  -7.119  0.00  0.00    -0.113 N 
ATOM      4  O   UNL     1       1.756   7.258  -7.850  0.00  0.00    -0.616 OA
ATOM      5  C   UNL     1       0.061   5.655  -7.588  0.00  0.00    +0.429 A 
ATOM      6  N   UNL     1      -0.106   5.560  -9.007  0.00  0.00    -0.038 NA
ATOM      7  N   UNL     1      -0.886   5.188  -6.739  0.00  0.00    -0.152 NA
ATOM      8  C   UNL     1      -0.867   5.488  -5.419  0.00  0.00    +0.147 A 
ATOM      9  N   UNL     1      -2.036   5.943  -4.727  0.00  0.00    -0.293 N 
ATOM     10  C   UNL     1      -2.288   7.371  -4.566  0.00  0.00    +0.092 C 
ATOM     11  C   UNL     1      -1.993   7.827  -3.146  0.00  0.00    +0.022 C 
ATOM     12  C   UNL     1      -2.865   7.007  -2.231  0.00  0.00    +0.004 C 
ATOM     13  C   UNL     1      -3.647   5.956  -2.978  0.00  0.00    +0.022 C 
ATOM     14  C   UNL     1      -2.719   5.057  -3.788  0.00  0.00    +0.092 C 
ATOM     15  C   UNL     1       0.396   5.785  -4.918  0.00  0.00    +0.126 A 
ENDROOT
TORSDOF 0
ENDMDL
MODEL 9
REMARK VINA RESULT:      -6.2      2.440      5.081
REMARK  Name = 
REMARK  0 active torsions:
REMARK  status: ('A' for Active; 'I' for Inactive)
REMARK                            x       y       z     vdW  Elec       q    Type
REMARK                         _______ _______ _______ _____ _____    ______ ____
ROOT
ATOM      1  N   UNL     1      -2.491   6.118  -6.375  0.00  0.00    -0.057 NA
ATOM      2  C   UNL     1      -1.344   5.526  -5.752  0.00  0.00    +0.336 A 
ATOM      3  N   UNL     1      -1.262   5.699  -4.411  0.00  0.00    -0.113 N 
ATOM      4  O   UNL     1      -1.981   6.681  -3.750  0.00  0.00    -0.616 OA
ATOM      5  C   UNL     1      -0.137   5.231  -3.818  0.00  0.00    +0.429 A 
ATOM      6  N   UNL     1      -0.115   5.148  -2.388  0.00  0.00    -0.038 NA
ATOM      7  N   UNL     1       0.933   4.850  -4.557  0.00  0.00    -0.152 NA
ATOM      8  C   UNL     1       1.031   5.150  -5.874  0.00  0.00    +0.147 A 
ATOM      9  N   UNL     1       2.224   5.705  -6.439  0.00  0.00    -0.293 N 
ATOM     10  C   UNL     1       2.368   7.150  -6.583  0.00  0.00    +0.092 C 
ATOM     11  C   UNL     1       2.189   7.583  -8.029  0.00  0.00    +0.022 C 
ATOM     12  C   UNL     1       3.221   6.843  -8.839  0.00  0.00    +0.004 C 
ATOM     13  C   UNL     1       4.006   5.862  -8.005  0.00  0.00    +0.022 C 
ATOM     14  C   UNL     1       3.078   4.884  -7.293  0.00  0.00    +0.092 C 
ATOM     15  C   UNL     1      -0.192   5.338  -6.509  0.00  0.00    +0.126 A 
ENDROOT
TORSDOF 0
ENDMDL
