MODEL 1
REMARK VINA RESULT:      -8.5      0.000      0.000
REMARK  Name = 
REMARK  6 active torsions:
REMARK  status: ('A' for Active; 'I' for Inactive)
REMARK    1  A    between atoms: O_2  and  C_3
REMARK    2  A    between atoms: C_8  and  O_9
REMARK    3  A    between atoms: C_13  and  C_14
REMARK    4  A    between atoms: C_14  and  C_15
REMARK    5  A    between atoms: N_18  and  C_19
REMARK    6  A    between atoms: C_19  and  C_20
REMARK                            x       y       z     vdW  Elec       q    Type
REMARK                         _______ _______ _______ _____ _____    ______ ____
ROOT
ATOM      1  C   UNL     1      -0.410   6.017  -0.786  0.00  0.00    +0.172 A 
ATOM      2  C   UNL     1       0.919   6.097  -0.387  0.00  0.00    +0.172 A 
ATOM      3  C   UNL     1       1.875   6.003  -1.390  0.00  0.00    +0.043 A 
ATOM      4  C   UNL     1       1.541   5.852  -2.728  0.00  0.00    +0.034 A 
ATOM      5  C   UNL     1       2.203   6.165  -4.005  0.00  0.00    +0.173 C 
ATOM      6  C   UNL     1       0.940   6.590  -4.947  0.00  0.00    +0.066 C 
ATOM      7  C   UNL     1       0.095   5.250  -4.451  0.00  0.00    +0.034 C 
ATOM      8  O   UNL     1       3.108   7.060  -4.021  0.00  0.00    -0.291 OA
ATOM      9  C   UNL     1       0.251   5.409  -2.973  0.00  0.00    -0.016 A 
ATOM     10  C   UNL     1      -0.739   5.422  -1.998  0.00  0.00    +0.036 A 
ENDROOT
BRANCH   1  12
ATOM     11  C   UNL     1      -1.979   7.648  -0.553  0.00  0.00    +0.253 C 
ATOM     12  O   UNL     1      -1.438   6.631  -0.060  0.00  0.00    -0.468 OA
ENDBRANCH   1  12
BRANCH   2  13
ATOM     13  O   UNL     1       1.144   6.831   0.774  0.00  0.00    -0.468 OA
ATOM     14  C   UNL     1       1.742   8.106   0.789  0.00  0.00    +0.253 C 
ENDBRANCH   2  13
BRANCH   6  15
ATOM     15  C   UNL     1       1.523   5.764  -6.262  0.00  0.00    +0.008 C 
BRANCH  15  16
ATOM     16  C   UNL     1       1.214   6.592  -7.460  0.00  0.00    +0.003 C 
ATOM     17  C   UNL     1       2.408   7.526  -7.644  0.00  0.00    +0.017 C 
ATOM     18  C   UNL     1       3.624   6.640  -7.393  0.00  0.00    +0.072 C 
ATOM     19  N   UNL     1       3.661   5.628  -8.446  0.00  0.00    -0.269 NA
ATOM     20  C   UNL     1       2.478   4.791  -8.450  0.00  0.00    +0.072 C 
ATOM     21  C   UNL     1       1.256   5.675  -8.678  0.00  0.00    +0.017 C 
BRANCH  19  22
ATOM     22  C   UNL     1       3.645   6.366  -9.707  0.00  0.00    +0.099 C 
BRANCH  22  23
ATOM     23  C   UNL     1       5.056   6.570 -10.087  0.00  0.00    -0.006 A 
ATOM     24  C   UNL     1       5.968   5.642  -9.618  0.00  0.00    -0.003 A 
ATOM     25  C   UNL     1       7.300   5.926  -9.792  0.00  0.00    -0.000 A 
ATOM     26  C   UNL     1       7.682   7.081 -10.423  0.00  0.00    -0.000 A 
ATOM     27  C   UNL     1       6.749   7.816 -11.141  0.00  0.00    -0.000 A 
ATOM     28  C   UNL     1       5.441   7.347 -11.175  0.00  0.00    -0.003 A 
ENDBRANCH  22  23
ENDBRANCH  19  22
ENDBRANCH  15  16
ENDBRANCH   6  15
TORSDOF 6
ENDMDL
MODEL 2
REMARK VINA RESULT:      -8.5      1.991      3.405
REMARK  Name = 
REMARK  6 active torsions:
REMARK  status: ('A' for Active; 'I' for Inactive)
REMARK    1  A    between atoms: O_2  and  C_3
REMARK    2  A    between atoms: C_8  and  O_9
REMARK    3  A    between atoms: C_13  and  C_14
REMARK    4  A    between atoms: C_14  and  C_15
REMARK    5  A    between atoms: N_18  and  C_19
REMARK    6  A    between atoms: C_19  and  C_20
REMARK                            x       y       z     vdW  Elec       q    Type
REMARK                         _______ _______ _______ _____ _____    ______ ____
ROOT
ATOM      1  C   UNL     1       0.186   5.637  -3.057  0.00  0.00    +0.172 A 
ATOM      2  C   UNL     1      -0.877   6.285  -3.674  0.00  0.00    +0.172 A 
ATOM      3  C   UNL     1      -0.798   6.435  -5.053  0.00  0.00    +0.043 A 
ATOM      4  C   UNL     1       0.271   5.956  -5.795  0.00  0.00    +0.034 A 
ATOM      5  C   UNL     1       0.462   5.544  -7.195  0.00  0.00    +0.173 C 
ATOM      6  C   UNL     1       1.527   4.318  -7.048  0.00  0.00    +0.066 C 
ATOM      7  C   UNL     1       2.473   5.237  -6.038  0.00  0.00    +0.034 C 
ATOM      8  O   UNL     1      -0.556   5.187  -7.871  0.00  0.00    -0.291 OA
ATOM      9  C   UNL     1       1.421   5.680  -5.072  0.00  0.00    -0.016 A 
ATOM     10  C   UNL     1       1.423   5.574  -3.687  0.00  0.00    +0.036 A 
ENDROOT
BRANCH   1  12
ATOM     11  C   UNL     1       1.029   4.784  -1.124  0.00  0.00    +0.253 C 
ATOM     12  O   UNL     1       0.026   4.929  -1.860  0.00  0.00    -0.468 OA
ENDBRANCH   1  12
BRANCH   2  13
ATOM     13  O   UNL     1      -2.100   6.172  -3.018  0.00  0.00    -0.468 OA
ATOM     14  C   UNL     1      -3.109   5.265  -3.398  0.00  0.00    +0.253 C 
ENDBRANCH   2  13
BRANCH   6  15
ATOM     15  C   UNL     1       2.415   4.808  -8.361  0.00  0.00    +0.008 C 
BRANCH  15  16
ATOM     16  C   UNL     1       3.301   5.909  -7.892  0.00  0.00    +0.003 C 
ATOM     17  C   UNL     1       4.719   5.503  -8.285  0.00  0.00    +0.017 C 
ATOM     18  C   UNL     1       4.575   4.939  -9.695  0.00  0.00    +0.072 C 
ATOM     19  N   UNL     1       4.146   6.029 -10.568  0.00  0.00    -0.269 NA
ATOM     20  C   UNL     1       2.872   6.590 -10.166  0.00  0.00    +0.072 C 
ATOM     21  C   UNL     1       3.004   7.136  -8.748  0.00  0.00    +0.017 C 
BRANCH  19  22
ATOM     22  C   UNL     1       5.134   7.091 -10.393  0.00  0.00    +0.099 C 
BRANCH  22  23
ATOM     23  C   UNL     1       6.288   6.729 -11.239  0.00  0.00    -0.006 A 
ATOM     24  C   UNL     1       6.111   6.826 -12.607  0.00  0.00    -0.003 A 
ATOM     25  C   UNL     1       7.098   6.304 -13.407  0.00  0.00    -0.000 A 
ATOM     26  C   UNL     1       8.210   5.733 -12.845  0.00  0.00    -0.000 A 
ATOM     27  C   UNL     1       8.486   5.936 -11.500  0.00  0.00    -0.000 A 
ATOM     28  C   UNL     1       7.596   6.710 -10.766  0.00  0.00    -0.003 A 
ENDBRANCH  22  23
ENDBRANCH  19  22
ENDBRANCH  15  16
ENDBRANCH   6  15
TORSDOF 6
ENDMDL
MODEL 3
REMARK VINA RESULT:      -8.3      3.647      9.627
REMARK  Name = 
REMARK  6 active torsions:
REMARK  status: ('A' for Active; 'I' for Inactive)
REMARK    1  A    between atoms: O_2  and  C_3
REMARK    2  A    between atoms: C_8  and  O_9
REMARK    3  A    between atoms: C_13  and  C_14
REMARK    4  A    between atoms: C_14  and  C_15
REMARK    5  A    between atoms: N_18  and  C_19
REMARK    6  A    between atoms: C_19  and  C_20
REMARK                            x       y       z     vdW  Elec       q    Type
REMARK                         _______ _______ _______ _____ _____    ______ ____
ROOT
ATOM      1  C   UNL     1       3.936   5.649 -12.774  0.00  0.00    +0.172 A 
ATOM      2  C   UNL     1       5.304   5.679 -12.527  0.00  0.00    +0.172 A 
ATOM      3  C   UNL     1       5.694   5.792 -11.199  0.00  0.00    +0.043 A 
ATOM      4  C   UNL     1       4.781   5.858 -10.156  0.00  0.00    +0.034 A 
ATOM      5  C   UNL     1       4.818   5.533  -8.721  0.00  0.00    +0.173 C 
ATOM      6  C   UNL     1       3.306   4.979  -8.458  0.00  0.00    +0.066 C 
ATOM      7  C   UNL     1       2.669   6.280  -9.271  0.00  0.00    +0.034 C 
ATOM      8  O   UNL     1       5.688   4.702  -8.305  0.00  0.00    -0.291 OA
ATOM      9  C   UNL     1       3.487   6.200 -10.519  0.00  0.00    -0.016 A 
ATOM     10  C   UNL     1       3.049   6.164 -11.837  0.00  0.00    +0.036 A 
ENDROOT
BRANCH   1  12
ATOM     11  C   UNL     1       2.155   4.893 -13.970  0.00  0.00    +0.253 C 
ATOM     12  O   UNL     1       3.401   5.000 -13.893  0.00  0.00    -0.468 OA
ENDBRANCH   1  12
BRANCH   2  13
ATOM     13  O   UNL     1       6.089   5.017 -13.467  0.00  0.00    -0.468 OA
ATOM     14  C   UNL     1       7.039   5.660 -14.285  0.00  0.00    +0.253 C 
ENDBRANCH   2  13
BRANCH   6  15
ATOM     15  C   UNL     1       3.163   5.782  -7.014  0.00  0.00    +0.008 C 
BRANCH  15  16
ATOM     16  C   UNL     1       3.009   4.743  -5.959  0.00  0.00    +0.003 C 
ATOM     17  C   UNL     1       3.152   5.473  -4.626  0.00  0.00    +0.017 C 
ATOM     18  C   UNL     1       2.353   6.759  -4.811  0.00  0.00    +0.072 C 
ATOM     19  N   UNL     1       0.951   6.390  -4.990  0.00  0.00    -0.269 NA
ATOM     20  C   UNL     1       0.744   5.551  -6.153  0.00  0.00    +0.072 C 
ATOM     21  C   UNL     1       1.558   4.272  -5.983  0.00  0.00    +0.017 C 
BRANCH  19  22
ATOM     22  C   UNL     1       0.604   5.573  -3.829  0.00  0.00    +0.099 C 
BRANCH  22  23
ATOM     23  C   UNL     1      -0.768   5.956  -3.446  0.00  0.00    -0.006 A 
ATOM     24  C   UNL     1      -1.243   5.458  -2.247  0.00  0.00    -0.003 A 
ATOM     25  C   UNL     1      -2.577   5.638  -1.976  0.00  0.00    -0.000 A 
ATOM     26  C   UNL     1      -3.378   6.303  -2.866  0.00  0.00    -0.000 A 
ATOM     27  C   UNL     1      -2.804   7.047  -3.888  0.00  0.00    -0.000 A 
ATOM     28  C   UNL     1      -1.418   7.068  -3.975  0.00  0.00    -0.003 A 
ENDBRANCH  22  23
ENDBRANCH  19  22
ENDBRANCH  15  16
ENDBRANCH   6  15
TORSDOF 6
ENDMDL
MODEL 4
REMARK VINA RESULT:      -8.3      3.709      9.812
REMARK  Name = 
REMARK  6 active torsions:
REMARK  status: ('A' for Active; 'I' for Inactive)
REMARK    1  A    between atoms: O_2  and  C_3
REMARK    2  A    between atoms: C_8  and  O_9
REMARK    3  A    between atoms: C_13  and  C_14
REMARK    4  A    between atoms: C_14  and  C_15
REMARK    5  A    between atoms: N_18  and  C_19
REMARK    6  A    between atoms: C_19  and  C_20
REMARK                            x       y       z     vdW  Elec       q    Type
REMARK                         _______ _______ _______ _____ _____    ______ ____
ROOT
ATOM      1  C   UNL     1       6.683   5.875 -11.247  0.00  0.00    +0.172 A 
ATOM      2  C   UNL     1       5.779   5.619 -12.271  0.00  0.00    +0.172 A 
ATOM      3  C   UNL     1       4.453   5.438 -11.899  0.00  0.00    +0.043 A 
ATOM      4  C   UNL     1       4.031   5.520 -10.580  0.00  0.00    +0.034 A 
ATOM      5  C   UNL     1       2.754   5.829  -9.915  0.00  0.00    +0.173 C 
ATOM      6  C   UNL     1       3.249   6.623  -8.579  0.00  0.00    +0.066 C 
ATOM      7  C   UNL     1       4.384   5.449  -8.279  0.00  0.00    +0.034 C 
ATOM      8  O   UNL     1       1.881   6.503 -10.551  0.00  0.00    -0.291 OA
ATOM      9  C   UNL     1       5.030   5.397  -9.626  0.00  0.00    -0.016 A 
ATOM     10  C   UNL     1       6.378   5.510  -9.942  0.00  0.00    +0.036 A 
ENDROOT
BRANCH   1  12
ATOM     11  C   UNL     1       8.866   5.993 -11.877  0.00  0.00    +0.253 C 
ATOM     12  O   UNL     1       7.856   6.608 -11.463  0.00  0.00    -0.468 OA
ENDBRANCH   1  12
BRANCH   2  13
ATOM     13  O   UNL     1       6.126   6.147 -13.512  0.00  0.00    -0.468 OA
ATOM     14  C   UNL     1       5.215   6.309 -14.574  0.00  0.00    +0.253 C 
ENDBRANCH   2  13
BRANCH   6  15
ATOM     15  C   UNL     1       2.157   5.849  -7.600  0.00  0.00    +0.008 C 
BRANCH  15  16
ATOM     16  C   UNL     1       2.759   5.801  -6.240  0.00  0.00    +0.003 C 
ATOM     17  C   UNL     1       2.093   6.922  -5.445  0.00  0.00    +0.017 C 
ATOM     18  C   UNL     1       0.619   6.835  -5.832  0.00  0.00    +0.072 C 
ATOM     19  N   UNL     1       0.107   5.556  -5.348  0.00  0.00    -0.269 NA
ATOM     20  C   UNL     1       0.801   4.426  -5.932  0.00  0.00    +0.072 C 
ATOM     21  C   UNL     1       2.279   4.519  -5.568  0.00  0.00    +0.017 C 
BRANCH  19  22
ATOM     22  C   UNL     1       0.405   5.524  -3.918  0.00  0.00    +0.099 C 
BRANCH  22  23
ATOM     23  C   UNL     1      -0.850   5.872  -3.224  0.00  0.00    -0.006 A 
ATOM     24  C   UNL     1      -2.005   5.268  -3.686  0.00  0.00    -0.003 A 
ATOM     25  C   UNL     1      -3.198   5.731  -3.188  0.00  0.00    -0.000 A 
ATOM     26  C   UNL     1      -3.213   6.739  -2.260  0.00  0.00    -0.000 A 
ATOM     27  C   UNL     1      -2.042   7.092  -1.605  0.00  0.00    -0.000 A 
ATOM     28  C   UNL     1      -0.880   6.406  -1.940  0.00  0.00    -0.003 A 
ENDBRANCH  22  23
ENDBRANCH  19  22
ENDBRANCH  15  16
ENDBRANCH   6  15
TORSDOF 6
ENDMDL
MODEL 5
REMARK VINA RESULT:      -8.1      3.914      9.382
REMARK  Name = 
REMARK  6 active torsions:
REMARK  status: ('A' for Active; 'I' for Inactive)
REMARK    1  A    between atoms: O_2  and  C_3
REMARK    2  A    between atoms: C_8  and  O_9
REMARK    3  A    between atoms: C_13  and  C_14
REMARK    4  A    between atoms: C_14  and  C_15
REMARK    5  A    between atoms: N_18  and  C_19
REMARK    6  A    between atoms: C_19  and  C_20
REMARK                            x       y       z     vdW  Elec       q    Type
REMARK                         _______ _______ _______ _____ _____    ______ ____
ROOT
ATOM      1  C   UNL     1       3.915   5.796 -12.370  0.00  0.00    +0.172 A 
ATOM      2  C   UNL     1       5.298   5.716 -12.253  0.00  0.00    +0.172 A 
ATOM      3  C   UNL     1       5.818   5.782 -10.967  0.00  0.00    +0.043 A 
ATOM      4  C   UNL     1       5.015   5.907  -9.843  0.00  0.00    +0.034 A 
ATOM      5  C   UNL     1       5.161   5.562  -8.419  0.00  0.00    +0.173 C 
ATOM      6  C   UNL     1       3.642   5.125  -8.017  0.00  0.00    +0.066 C 
ATOM      7  C   UNL     1       3.036   6.482  -8.760  0.00  0.00    +0.034 C 
ATOM      8  O   UNL     1       5.998   4.661  -8.091  0.00  0.00    -0.291 OA
ATOM      9  C   UNL     1       3.724   6.353 -10.080  0.00  0.00    -0.016 A 
ATOM     10  C   UNL     1       3.163   6.367 -11.350  0.00  0.00    +0.036 A 
ENDROOT
BRANCH   1  12
ATOM     11  C   UNL     1       2.581   5.952 -14.206  0.00  0.00    +0.253 C 
ATOM     12  O   UNL     1       3.227   5.205 -13.436  0.00  0.00    -0.468 OA
ENDBRANCH   1  12
BRANCH   2  13
ATOM     13  O   UNL     1       5.936   5.006 -13.266  0.00  0.00    -0.468 OA
ATOM     14  C   UNL     1       6.752   5.604 -14.246  0.00  0.00    +0.253 C 
ENDBRANCH   2  13
BRANCH   6  15
ATOM     15  C   UNL     1       3.698   5.920  -6.562  0.00  0.00    +0.008 C 
BRANCH  15  16
ATOM     16  C   UNL     1       3.446   4.900  -5.507  0.00  0.00    +0.003 C 
ATOM     17  C   UNL     1       4.610   5.015  -4.525  0.00  0.00    +0.017 C 
ATOM     18  C   UNL     1       4.819   6.517  -4.359  0.00  0.00    +0.072 C 
ATOM     19  N   UNL     1       3.622   7.065  -3.726  0.00  0.00    -0.269 NA
ATOM     20  C   UNL     1       2.430   6.854  -4.522  0.00  0.00    +0.072 C 
ATOM     21  C   UNL     1       2.228   5.354  -4.709  0.00  0.00    +0.017 C 
BRANCH  19  22
ATOM     22  C   UNL     1       3.436   6.297  -2.497  0.00  0.00    +0.099 C 
BRANCH  22  23
ATOM     23  C   UNL     1       3.818   7.191  -1.387  0.00  0.00    -0.006 A 
ATOM     24  C   UNL     1       4.662   6.665  -0.426  0.00  0.00    -0.003 A 
ATOM     25  C   UNL     1       4.864   7.410   0.709  0.00  0.00    -0.000 A 
ATOM     26  C   UNL     1       4.256   8.630   0.850  0.00  0.00    -0.000 A 
ATOM     27  C   UNL     1       3.681   9.246  -0.253  0.00  0.00    -0.000 A 
ATOM     28  C   UNL     1       3.734   8.578  -1.470  0.00  0.00    -0.003 A 
ENDBRANCH  22  23
ENDBRANCH  19  22
ENDBRANCH  15  16
ENDBRANCH   6  15
TORSDOF 6
ENDMDL
MODEL 6
REMARK VINA RESULT:      -8.0      1.840      2.925
REMARK  Name = 
REMARK  6 active torsions:
REMARK  status: ('A' for Active; 'I' for Inactive)
REMARK    1  A    between atoms: O_2  and  C_3
REMARK    2  A    between atoms: C_8  and  O_9
REMARK    3  A    between atoms: C_13  and  C_14
REMARK    4  A    between atoms: C_14  and  C_15
REMARK    5  A    between atoms: N_18  and  C_19
REMARK    6  A    between atoms: C_19  and  C_20
REMARK                            x       y       z     vdW  Elec       q    Type
REMARK                         _______ _______ _______ _____ _____    ______ ____
ROOT
ATOM      1  C   UNL     1       1.255   5.312  -2.047  0.00  0.00    +0.172 A 
ATOM      2  C   UNL     1      -0.055   5.648  -2.366  0.00  0.00    +0.172 A 
ATOM      3  C   UNL     1      -0.355   5.769  -3.717  0.00  0.00    +0.043 A 
ATOM      4  C   UNL     1       0.587   5.554  -4.712  0.00  0.00    +0.034 A 
ATOM      5  C   UNL     1       0.530   5.160  -6.129  0.00  0.00    +0.173 C 
ATOM      6  C   UNL     1       1.875   4.251  -6.285  0.00  0.00    +0.066 C 
ATOM      7  C   UNL     1       2.772   5.412  -5.506  0.00  0.00    +0.034 C 
ATOM      8  O   UNL     1      -0.497   4.534  -6.548  0.00  0.00    -0.291 OA
ATOM      9  C   UNL     1       1.910   5.603  -4.300  0.00  0.00    -0.016 A 
ATOM     10  C   UNL     1       2.275   5.545  -2.961  0.00  0.00    +0.036 A 
ENDROOT
BRANCH   1  12
ATOM     11  C   UNL     1       2.657   3.991  -0.837  0.00  0.00    +0.253 C 
ATOM     12  O   UNL     1       1.577   4.625  -0.871  0.00  0.00    -0.468 OA
ENDBRANCH   1  12
BRANCH   2  13
ATOM     13  O   UNL     1      -1.011   5.247  -1.436  0.00  0.00    -0.468 OA
ATOM     14  C   UNL     1      -1.603   6.117  -0.500  0.00  0.00    +0.253 C 
ENDBRANCH   2  13
BRANCH   6  15
ATOM     15  C   UNL     1       2.262   4.909  -7.758  0.00  0.00    +0.008 C 
BRANCH  15  16
ATOM     16  C   UNL     1       3.232   6.008  -7.495  0.00  0.00    +0.003 C 
ATOM     17  C   UNL     1       4.604   5.455  -7.873  0.00  0.00    +0.017 C 
ATOM     18  C   UNL     1       4.362   4.697  -9.175  0.00  0.00    +0.072 C 
ATOM     19  N   UNL     1       3.958   5.670 -10.188  0.00  0.00    -0.269 NA
ATOM     20  C   UNL     1       2.739   6.367  -9.830  0.00  0.00    +0.072 C 
ATOM     21  C   UNL     1       2.969   7.109  -8.517  0.00  0.00    +0.017 C 
BRANCH  19  22
ATOM     22  C   UNL     1       5.015   6.679 -10.212  0.00  0.00    +0.099 C 
BRANCH  22  23
ATOM     23  C   UNL     1       6.047   6.177 -11.140  0.00  0.00    -0.006 A 
ATOM     24  C   UNL     1       7.316   5.998 -10.622  0.00  0.00    -0.003 A 
ATOM     25  C   UNL     1       8.326   5.727 -11.512  0.00  0.00    -0.000 A 
ATOM     26  C   UNL     1       8.055   5.626 -12.852  0.00  0.00    -0.000 A 
ATOM     27  C   UNL     1       6.741   5.504 -13.283  0.00  0.00    -0.000 A 
ATOM     28  C   UNL     1       5.740   5.506 -12.320  0.00  0.00    -0.003 A 
ENDBRANCH  22  23
ENDBRANCH  19  22
ENDBRANCH  15  16
ENDBRANCH   6  15
TORSDOF 6
ENDMDL
MODEL 7
REMARK VINA RESULT:      -7.9      1.815      2.447
REMARK  Name = 
REMARK  6 active torsions:
REMARK  status: ('A' for Active; 'I' for Inactive)
REMARK    1  A    between atoms: O_2  and  C_3
REMARK    2  A    between atoms: C_8  and  O_9
REMARK    3  A    between atoms: C_13  and  C_14
REMARK    4  A    between atoms: C_14  and  C_15
REMARK    5  A    between atoms: N_18  and  C_19
REMARK    6  A    between atoms: C_19  and  C_20
REMARK                            x       y       z     vdW  Elec       q    Type
REMARK                         _______ _______ _______ _____ _____    ______ ____
ROOT
ATOM      1  C   UNL     1      -1.504   5.944  -3.344  0.00  0.00    +0.172 A 
ATOM      2  C   UNL     1      -0.621   5.472  -2.380  0.00  0.00    +0.172 A 
ATOM      3  C   UNL     1       0.661   5.153  -2.813  0.00  0.00    +0.043 A 
ATOM      4  C   UNL     1       1.061   5.305  -4.132  0.00  0.00    +0.034 A 
ATOM      5  C   UNL     1       2.354   5.504  -4.808  0.00  0.00    +0.173 C 
ATOM      6  C   UNL     1       1.942   6.483  -6.047  0.00  0.00    +0.066 C 
ATOM      7  C   UNL     1       0.652   5.504  -6.416  0.00  0.00    +0.034 C 
ATOM      8  O   UNL     1       3.323   5.992  -4.142  0.00  0.00    -0.291 OA
ATOM      9  C   UNL     1       0.035   5.409  -5.058  0.00  0.00    -0.016 A 
ATOM     10  C   UNL     1      -1.278   5.669  -4.687  0.00  0.00    +0.036 A 
ENDROOT
BRANCH   1  12
ATOM     11  C   UNL     1      -3.699   6.300  -2.865  0.00  0.00    +0.253 C 
ATOM     12  O   UNL     1      -2.561   6.801  -3.021  0.00  0.00    -0.468 OA
ENDBRANCH   1  12
BRANCH   2  13
ATOM     13  O   UNL     1      -0.866   5.918  -1.084  0.00  0.00    -0.468 OA
ATOM     14  C   UNL     1       0.085   6.597  -0.298  0.00  0.00    +0.253 C 
ENDBRANCH   2  13
BRANCH   6  15
ATOM     15  C   UNL     1       2.899   5.669  -7.130  0.00  0.00    +0.008 C 
BRANCH  15  16
ATOM     16  C   UNL     1       2.091   5.496  -8.369  0.00  0.00    +0.003 C 
ATOM     17  C   UNL     1       2.489   6.644  -9.294  0.00  0.00    +0.017 C 
ATOM     18  C   UNL     1       4.006   6.731  -9.157  0.00  0.00    +0.072 C 
ATOM     19  N   UNL     1       4.573   5.493  -9.685  0.00  0.00    -0.269 NA
ATOM     20  C   UNL     1       4.114   4.323  -8.963  0.00  0.00    +0.072 C 
ATOM     21  C   UNL     1       2.595   4.243  -9.077  0.00  0.00    +0.017 C 
BRANCH  19  22
ATOM     22  C   UNL     1       4.050   5.365 -11.044  0.00  0.00    +0.099 C 
BRANCH  22  23
ATOM     23  C   UNL     1       5.208   5.504 -11.948  0.00  0.00    -0.006 A 
ATOM     24  C   UNL     1       4.945   5.938 -13.235  0.00  0.00    -0.003 A 
ATOM     25  C   UNL     1       5.976   5.879 -14.140  0.00  0.00    -0.000 A 
ATOM     26  C   UNL     1       7.208   5.421 -13.754  0.00  0.00    -0.000 A 
ATOM     27  C   UNL     1       7.506   5.296 -12.404  0.00  0.00    -0.000 A 
ATOM     28  C   UNL     1       6.515   5.630 -11.488  0.00  0.00    -0.003 A 
ENDBRANCH  22  23
ENDBRANCH  19  22
ENDBRANCH  15  16
ENDBRANCH   6  15
TORSDOF 6
ENDMDL
MODEL 8
REMARK VINA RESULT:      -7.6      3.244      9.364
REMARK  Name = 
REMARK  6 active torsions:
REMARK  status: ('A' for Active; 'I' for Inactive)
REMARK    1  A    between atoms: O_2  and  C_3
REMARK    2  A    between atoms: C_8  and  O_9
REMARK    3  A    between atoms: C_13  and  C_14
REMARK    4  A    between atoms: C_14  and  C_15
REMARK    5  A    between atoms: N_18  and  C_19
REMARK    6  A    between atoms: C_19  and  C_20
REMARK                            x       y       z     vdW  Elec       q    Type
REMARK                         _______ _______ _______ _____ _____    ______ ____
ROOT
ATOM      1  C   UNL     1       5.721   5.764 -10.540  0.00  0.00    +0.172 A 
ATOM      2  C   UNL     1       4.454   5.422 -10.999  0.00  0.00    +0.172 A 
ATOM      3  C   UNL     1       3.474   5.230 -10.033  0.00  0.00    +0.043 A 
ATOM      4  C   UNL     1       3.723   5.383  -8.677  0.00  0.00    +0.034 A 
ATOM      5  C   UNL     1       2.900   5.700  -7.499  0.00  0.00    +0.173 C 
ATOM      6  C   UNL     1       3.926   6.588  -6.594  0.00  0.00    +0.066 C 
ATOM      7  C   UNL     1       5.127   5.463  -6.821  0.00  0.00    +0.034 C 
ATOM      8  O   UNL     1       1.796   6.310  -7.671  0.00  0.00    -0.291 OA
ATOM      9  C   UNL     1       5.060   5.345  -8.309  0.00  0.00    -0.016 A 
ATOM     10  C   UNL     1       6.090   5.473  -9.233  0.00  0.00    +0.036 A 
ENDROOT
BRANCH   1  12
ATOM     11  C   UNL     1       6.869   7.683 -10.957  0.00  0.00    +0.253 C 
ATOM     12  O   UNL     1       6.612   6.512 -11.319  0.00  0.00    -0.468 OA
ENDBRANCH   1  12
BRANCH   2  13
ATOM     13  O   UNL     1       4.144   5.880 -12.276  0.00  0.00    -0.468 OA
ATOM     14  C   UNL     1       4.114   5.055 -13.417  0.00  0.00    +0.253 C 
ENDBRANCH   2  13
BRANCH   6  15
ATOM     15  C   UNL     1       3.470   5.848  -5.182  0.00  0.00    +0.008 C 
BRANCH  15  16
ATOM     16  C   UNL     1       4.628   5.947  -4.252  0.00  0.00    +0.003 C 
ATOM     17  C   UNL     1       4.606   7.373  -3.705  0.00  0.00    +0.017 C 
ATOM     18  C   UNL     1       3.133   7.645  -3.415  0.00  0.00    +0.072 C 
ATOM     19  N   UNL     1       2.713   6.734  -2.353  0.00  0.00    -0.269 NA
ATOM     20  C   UNL     1       2.857   5.342  -2.729  0.00  0.00    +0.072 C 
ATOM     21  C   UNL     1       4.325   5.070  -3.042  0.00  0.00    +0.017 C 
BRANCH  19  22
ATOM     22  C   UNL     1       3.643   6.957  -1.248  0.00  0.00    +0.099 C 
BRANCH  22  23
ATOM     23  C   UNL     1       3.054   8.027  -0.419  0.00  0.00    -0.006 A 
ATOM     24  C   UNL     1       1.913   7.707   0.293  0.00  0.00    -0.003 A 
ATOM     25  C   UNL     1       1.244   8.738   0.904  0.00  0.00    -0.000 A 
ATOM     26  C   UNL     1       1.719  10.020   0.811  0.00  0.00    -0.000 A 
ATOM     27  C   UNL     1       3.012  10.245   0.361  0.00  0.00    -0.000 A 
ATOM     28  C   UNL     1       3.775   9.141   0.001  0.00  0.00    -0.003 A 
ENDBRANCH  22  23
ENDBRANCH  19  22
ENDBRANCH  15  16
ENDBRANCH   6  15
TORSDOF 6
ENDMDL
MODEL 9
REMARK VINA RESULT:      -7.6      2.914      9.352
REMARK  Name = 
REMARK  6 active torsions:
REMARK  status: ('A' for Active; 'I' for Inactive)
REMARK    1  A    between atoms: O_2  and  C_3
REMARK    2  A    between atoms: C_8  and  O_9
REMARK    3  A    between atoms: C_13  and  C_14
REMARK    4  A    between atoms: C_14  and  C_15
REMARK    5  A    between atoms: N_18  and  C_19
REMARK    6  A    between atoms: C_19  and  C_20
REMARK                            x       y       z     vdW  Elec       q    Type
REMARK                         _______ _______ _______ _____ _____    ______ ____
ROOT
ATOM      1  C   UNL     1       5.095   6.367 -11.341  0.00  0.00    +0.172 A 
ATOM      2  C   UNL     1       6.046   5.938 -10.423  0.00  0.00    +0.172 A 
ATOM      3  C   UNL     1       5.620   5.793  -9.108  0.00  0.00    +0.043 A 
ATOM      4  C   UNL     1       4.314   6.044  -8.716  0.00  0.00    +0.034 A 
ATOM      5  C   UNL     1       3.456   5.586  -7.610  0.00  0.00    +0.173 C 
ATOM      6  C   UNL     1       1.990   5.517  -8.323  0.00  0.00    +0.066 C 
ATOM      7  C   UNL     1       2.219   7.025  -8.981  0.00  0.00    +0.034 C 
ATOM      8  O   UNL     1       3.736   4.487  -7.034  0.00  0.00    -0.291 OA
ATOM      9  C   UNL     1       3.565   6.811  -9.594  0.00  0.00    -0.016 A 
ATOM     10  C   UNL     1       3.962   7.043 -10.905  0.00  0.00    +0.036 A 
ENDROOT
BRANCH   1  12
ATOM     11  C   UNL     1       4.279   5.298 -13.175  0.00  0.00    +0.253 C 
ATOM     12  O   UNL     1       5.174   6.032 -12.698  0.00  0.00    -0.468 OA
ENDBRANCH   1  12
BRANCH   2  13
ATOM     13  O   UNL     1       7.069   5.156 -10.952  0.00  0.00    -0.468 OA
ATOM     14  C   UNL     1       8.314   5.670 -11.363  0.00  0.00    +0.253 C 
ENDBRANCH   2  13
BRANCH   6  15
ATOM     15  C   UNL     1       1.218   6.181  -7.014  0.00  0.00    +0.008 C 
BRANCH  15  16
ATOM     16  C   UNL     1       0.236   5.168  -6.537  0.00  0.00    +0.003 C 
ATOM     17  C   UNL     1       0.815   4.598  -5.245  0.00  0.00    +0.017 C 
ATOM     18  C   UNL     1       1.356   5.816  -4.502  0.00  0.00    +0.072 C 
ATOM     19  N   UNL     1       0.221   6.670  -4.163  0.00  0.00    -0.269 NA
ATOM     20  C   UNL     1      -0.494   7.130  -5.337  0.00  0.00    +0.072 C 
ATOM     21  C   UNL     1      -1.018   5.915  -6.096  0.00  0.00    +0.017 C 
BRANCH  19  22
ATOM     22  C   UNL     1      -0.710   5.820  -3.424  0.00  0.00    +0.099 C 
BRANCH  22  23
ATOM     23  C   UNL     1      -0.740   6.340  -2.043  0.00  0.00    -0.006 A 
ATOM     24  C   UNL     1      -1.882   7.016  -1.656  0.00  0.00    -0.003 A 
ATOM     25  C   UNL     1      -1.845   7.675  -0.453  0.00  0.00    -0.000 A 
ATOM     26  C   UNL     1      -0.715   7.633   0.322  0.00  0.00    -0.000 A 
ATOM     27  C   UNL     1       0.276   6.702   0.047  0.00  0.00    -0.000 A 
ATOM     28  C   UNL     1       0.082   5.849  -1.033  0.00  0.00    -0.003 A 
ENDBRANCH  22  23
ENDBRANCH  19  22
ENDBRANCH  15  16
ENDBRANCH   6  15
TORSDOF 6
ENDMDL
