MODEL 1
REMARK VINA RESULT:      -6.5      0.000      0.000
REMARK  Name = 
REMARK  0 active torsions:
REMARK  status: ('A' for Active; 'I' for Inactive)
REMARK                            x       y       z     vdW  Elec       q    Type
REMARK                         _______ _______ _______ _____ _____    ______ ____
ROOT
ATOM      1  C   UNL     1       6.819   7.076 -11.816  0.00  0.00    +0.000 C 
ATOM      2  C   UNL     1       6.704   7.140 -11.344  0.00  0.00    +0.007 C 
ATOM      3  C   UNL     1       6.133   5.860 -11.462  0.00  0.00    +0.052 C 
ATOM      4  C   UNL     1       7.328   5.152 -12.044  0.00  0.00    +0.150 C 
ATOM      5  C   UNL     1       8.550   5.706 -11.462  0.00  0.00    +0.064 C 
ATOM      6  O   UNL     1       7.285   4.762 -13.214  0.00  0.00    -0.296 OA
ATOM      7  C   UNL     1       4.884   5.676 -12.205  0.00  0.00    +0.007 C 
ATOM      8  C   UNL     1       6.035   5.397 -10.057  0.00  0.00    +0.007 C 
ATOM      9  C   UNL     1       7.298   5.739  -9.441  0.00  0.00    +0.001 C 
ATOM     10  C   UNL     1       8.002   6.841 -10.422  0.00  0.00    +0.008 C 
ATOM     11  C   UNL     1       6.378   8.460 -11.539  0.00  0.00    +0.000 C 
ENDROOT
TORSDOF 0
ENDMDL
MODEL 2
REMARK VINA RESULT:      -6.1      1.316      2.516
REMARK  Name = 
REMARK  0 active torsions:
REMARK  status: ('A' for Active; 'I' for Inactive)
REMARK                            x       y       z     vdW  Elec       q    Type
REMARK                         _______ _______ _______ _____ _____    ______ ____
ROOT
ATOM      1  C   UNL     1       7.838   5.673 -12.294  0.00  0.00    +0.000 C 
ATOM      2  C   UNL     1       7.967   6.124 -12.151  0.00  0.00    +0.007 C 
ATOM      3  C   UNL     1       6.911   6.530 -12.987  0.00  0.00    +0.052 C 
ATOM      4  C   UNL     1       5.838   5.642 -12.416  0.00  0.00    +0.150 C 
ATOM      5  C   UNL     1       6.041   5.503 -10.974  0.00  0.00    +0.064 C 
ATOM      6  O   UNL     1       5.397   4.715 -13.101  0.00  0.00    -0.296 OA
ATOM      7  C   UNL     1       7.057   6.464 -14.443  0.00  0.00    +0.007 C 
ATOM      8  C   UNL     1       6.600   7.898 -12.506  0.00  0.00    +0.007 C 
ATOM      9  C   UNL     1       6.591   7.814 -11.063  0.00  0.00    +0.001 C 
ATOM     10  C   UNL     1       7.359   6.423 -10.680  0.00  0.00    +0.008 C 
ATOM     11  C   UNL     1       9.307   5.827 -12.216  0.00  0.00    +0.000 C 
ENDROOT
TORSDOF 0
ENDMDL
MODEL 3
REMARK VINA RESULT:      -5.8      1.354      2.574
REMARK  Name = 
REMARK  0 active torsions:
REMARK  status: ('A' for Active; 'I' for Inactive)
REMARK                            x       y       z     vdW  Elec       q    Type
REMARK                         _______ _______ _______ _____ _____    ______ ____
ROOT
ATOM      1  C   UNL     1       6.081   7.249 -11.421  0.00  0.00    +0.000 C 
ATOM      2  C   UNL     1       6.528   7.281 -11.620  0.00  0.00    +0.007 C 
ATOM      3  C   UNL     1       6.716   6.015 -11.037  0.00  0.00    +0.052 C 
ATOM      4  C   UNL     1       5.492   5.343 -11.600  0.00  0.00    +0.150 C 
ATOM      5  C   UNL     1       5.236   5.850 -12.947  0.00  0.00    +0.064 C 
ATOM      6  O   UNL     1       4.571   5.034 -10.837  0.00  0.00    -0.296 OA
ATOM      7  C   UNL     1       6.879   5.887  -9.587  0.00  0.00    +0.007 C 
ATOM      8  C   UNL     1       7.864   5.457 -11.792  0.00  0.00    +0.007 C 
ATOM      9  C   UNL     1       7.600   5.750 -13.183  0.00  0.00    +0.001 C 
ATOM     10  C   UNL     1       6.452   6.914 -13.196  0.00  0.00    +0.008 C 
ATOM     11  C   UNL     1       6.641   8.613 -11.302  0.00  0.00    +0.000 C 
ENDROOT
TORSDOF 0
ENDMDL
MODEL 4
REMARK VINA RESULT:      -5.8      1.422      2.552
REMARK  Name = 
REMARK  0 active torsions:
REMARK  status: ('A' for Active; 'I' for Inactive)
REMARK                            x       y       z     vdW  Elec       q    Type
REMARK                         _______ _______ _______ _____ _____    ______ ____
ROOT
ATOM      1  C   UNL     1       6.775   7.262 -10.799  0.00  0.00    +0.000 C 
ATOM      2  C   UNL     1       6.461   7.243 -11.175  0.00  0.00    +0.007 C 
ATOM      3  C   UNL     1       7.105   6.027 -11.461  0.00  0.00    +0.052 C 
ATOM      4  C   UNL     1       6.971   5.394 -10.102  0.00  0.00    +0.150 C 
ATOM      5  C   UNL     1       5.696   5.791  -9.505  0.00  0.00    +0.064 C 
ATOM      6  O   UNL     1       7.984   5.224  -9.415  0.00  0.00    -0.296 OA
ATOM      7  C   UNL     1       8.462   6.023 -12.013  0.00  0.00    +0.007 C 
ATOM      8  C   UNL     1       6.133   5.321 -12.331  0.00  0.00    +0.007 C 
ATOM      9  C   UNL     1       4.842   5.501 -11.706  0.00  0.00    +0.001 C 
ATOM     10  C   UNL     1       5.014   6.738 -10.650  0.00  0.00    +0.008 C 
ATOM     11  C   UNL     1       6.589   8.587 -11.428  0.00  0.00    +0.000 C 
ENDROOT
TORSDOF 0
ENDMDL
MODEL 5
REMARK VINA RESULT:      -5.8     10.437     11.425
REMARK  Name = 
REMARK  0 active torsions:
REMARK  status: ('A' for Active; 'I' for Inactive)
REMARK                            x       y       z     vdW  Elec       q    Type
REMARK                         _______ _______ _______ _____ _____    ______ ____
ROOT
ATOM      1  C   UNL     1      -1.431   7.293  -4.219  0.00  0.00    +0.000 C 
ATOM      2  C   UNL     1      -1.894   7.307  -4.060  0.00  0.00    +0.007 C 
ATOM      3  C   UNL     1      -1.934   5.977  -4.516  0.00  0.00    +0.052 C 
ATOM      4  C   UNL     1      -0.715   5.472  -3.792  0.00  0.00    +0.150 C 
ATOM      5  C   UNL     1      -0.615   6.133  -2.490  0.00  0.00    +0.064 C 
ATOM      6  O   UNL     1       0.289   5.167  -4.443  0.00  0.00    -0.296 OA
ATOM      7  C   UNL     1      -1.961   5.690  -5.952  0.00  0.00    +0.007 C 
ATOM      8  C   UNL     1      -3.096   5.403  -3.796  0.00  0.00    +0.007 C 
ATOM      9  C   UNL     1      -2.976   5.856  -2.429  0.00  0.00    +0.001 C 
ATOM     10  C   UNL     1      -1.925   7.109  -2.453  0.00  0.00    +0.008 C 
ATOM     11  C   UNL     1      -2.081   8.585  -4.527  0.00  0.00    +0.000 C 
ENDROOT
TORSDOF 0
ENDMDL
MODEL 6
REMARK VINA RESULT:      -5.7     10.266     11.493
REMARK  Name = 
REMARK  0 active torsions:
REMARK  status: ('A' for Active; 'I' for Inactive)
REMARK                            x       y       z     vdW  Elec       q    Type
REMARK                         _______ _______ _______ _____ _____    ______ ____
ROOT
ATOM      1  C   UNL     1      -2.152   7.089  -4.072  0.00  0.00    +0.000 C 
ATOM      2  C   UNL     1      -1.834   7.136  -4.443  0.00  0.00    +0.007 C 
ATOM      3  C   UNL     1      -1.158   6.082  -3.803  0.00  0.00    +0.052 C 
ATOM      4  C   UNL     1      -2.318   5.130  -3.686  0.00  0.00    +0.150 C 
ATOM      5  C   UNL     1      -3.177   5.265  -4.863  0.00  0.00    +0.064 C 
ATOM      6  O   UNL     1      -2.783   4.881  -2.569  0.00  0.00    -0.296 OA
ATOM      7  C   UNL     1      -0.429   6.322  -2.555  0.00  0.00    +0.007 C 
ATOM      8  C   UNL     1      -0.292   5.531  -4.873  0.00  0.00    +0.007 C 
ATOM      9  C   UNL     1      -1.126   5.449  -6.051  0.00  0.00    +0.001 C 
ATOM     10  C   UNL     1      -2.422   6.402  -5.762  0.00  0.00    +0.008 C 
ATOM     11  C   UNL     1      -1.912   8.507  -4.414  0.00  0.00    +0.000 C 
ENDROOT
TORSDOF 0
ENDMDL
MODEL 7
REMARK VINA RESULT:      -5.7     10.042     11.192
REMARK  Name = 
REMARK  0 active torsions:
REMARK  status: ('A' for Active; 'I' for Inactive)
REMARK                            x       y       z     vdW  Elec       q    Type
REMARK                         _______ _______ _______ _____ _____    ______ ____
ROOT
ATOM      1  C   UNL     1      -1.594   5.614  -5.148  0.00  0.00    +0.000 C 
ATOM      2  C   UNL     1      -1.825   6.020  -5.295  0.00  0.00    +0.007 C 
ATOM      3  C   UNL     1      -2.216   6.107  -3.946  0.00  0.00    +0.052 C 
ATOM      4  C   UNL     1      -0.850   5.985  -3.325  0.00  0.00    +0.150 C 
ATOM      5  C   UNL     1       0.132   6.654  -4.178  0.00  0.00    +0.064 C 
ATOM      6  O   UNL     1      -0.568   4.966  -2.687  0.00  0.00    -0.296 OA
ATOM      7  C   UNL     1      -3.222   5.187  -3.410  0.00  0.00    +0.007 C 
ATOM      8  C   UNL     1      -2.603   7.530  -3.792  0.00  0.00    +0.007 C 
ATOM      9  C   UNL     1      -1.569   8.293  -4.454  0.00  0.00    +0.001 C 
ATOM     10  C   UNL     1      -0.765   7.240  -5.412  0.00  0.00    +0.008 C 
ATOM     11  C   UNL     1      -2.229   5.439  -6.472  0.00  0.00    +0.000 C 
ENDROOT
TORSDOF 0
ENDMDL
MODEL 8
REMARK VINA RESULT:      -5.4      9.792     10.831
REMARK  Name = 
REMARK  0 active torsions:
REMARK  status: ('A' for Active; 'I' for Inactive)
REMARK                            x       y       z     vdW  Elec       q    Type
REMARK                         _______ _______ _______ _____ _____    ______ ____
ROOT
ATOM      1  C   UNL     1      -1.981   7.331  -4.835  0.00  0.00    +0.000 C 
ATOM      2  C   UNL     1      -1.634   7.378  -4.492  0.00  0.00    +0.007 C 
ATOM      3  C   UNL     1      -2.010   6.069  -4.142  0.00  0.00    +0.052 C 
ATOM      4  C   UNL     1      -1.893   5.445  -5.508  0.00  0.00    +0.150 C 
ATOM      5  C   UNL     1      -0.777   6.059  -6.227  0.00  0.00    +0.064 C 
ATOM      6  O   UNL     1      -2.917   5.078  -6.091  0.00  0.00    -0.296 OA
ATOM      7  C   UNL     1      -3.284   5.825  -3.460  0.00  0.00    +0.007 C 
ATOM      8  C   UNL     1      -0.845   5.571  -3.371  0.00  0.00    +0.007 C 
ATOM      9  C   UNL     1       0.323   5.975  -4.121  0.00  0.00    +0.001 C 
ATOM     10  C   UNL     1      -0.176   7.138  -5.156  0.00  0.00    +0.008 C 
ATOM     11  C   UNL     1      -1.984   8.679  -4.229  0.00  0.00    +0.000 C 
ENDROOT
TORSDOF 0
ENDMDL
MODEL 9
REMARK VINA RESULT:      -5.4     10.120     11.280
REMARK  Name = 
REMARK  0 active torsions:
REMARK  status: ('A' for Active; 'I' for Inactive)
REMARK                            x       y       z     vdW  Elec       q    Type
REMARK                         _______ _______ _______ _____ _____    ______ ____
ROOT
ATOM      1  C   UNL     1      -0.993   5.673  -4.742  0.00  0.00    +0.000 C 
ATOM      2  C   UNL     1      -0.915   6.105  -4.959  0.00  0.00    +0.007 C 
ATOM      3  C   UNL     1      -2.312   6.107  -5.123  0.00  0.00    +0.052 C 
ATOM      4  C   UNL     1      -2.691   5.837  -3.692  0.00  0.00    +0.150 C 
ATOM      5  C   UNL     1      -1.738   6.503  -2.804  0.00  0.00    +0.064 C 
ATOM      6  O   UNL     1      -3.201   4.751  -3.399  0.00  0.00    -0.296 OA
ATOM      7  C   UNL     1      -2.939   5.219  -6.106  0.00  0.00    +0.007 C 
ATOM      8  C   UNL     1      -2.627   7.536  -5.361  0.00  0.00    +0.007 C 
ATOM      9  C   UNL     1      -1.861   8.276  -4.384  0.00  0.00    +0.001 C 
ATOM     10  C   UNL     1      -0.712   7.252  -3.833  0.00  0.00    +0.008 C 
ATOM     11  C   UNL     1       0.219   5.654  -5.590  0.00  0.00    +0.000 C 
ENDROOT
TORSDOF 0
ENDMDL
