MODEL 1
REMARK VINA RESULT:      -6.9      0.000      0.000
REMARK  Name = 
REMARK  6 active torsions:
REMARK  status: ('A' for Active; 'I' for Inactive)
REMARK    1  A    between atoms: O_2  and  C_3
REMARK    2  A    between atoms: C_6  and  C_7
REMARK    3  A    between atoms: C_7  and  N_8
REMARK    4  A    between atoms: N_8  and  C_9
REMARK    5  A    between atoms: C_9  and  C_10
REMARK    6  A    between atoms: C_10  and  N_11
REMARK                            x       y       z     vdW  Elec       q    Type
REMARK                         _______ _______ _______ _____ _____    ______ ____
ROOT
ATOM      1  N   UNL     1       2.049   5.902  -7.572  0.00  0.00    -0.273 N 
ATOM      2  C   UNL     1       1.599   5.884  -8.933  0.00  0.00    +0.220 A 
ATOM      3  N   UNL     1       1.314   4.678  -9.463  0.00  0.00    -0.212 NA
ATOM      4  C   UNL     1       0.633   4.535 -10.624  0.00  0.00    +0.103 A 
ATOM      5  C   UNL     1       0.141   5.673 -11.199  0.00  0.00    +0.041 A 
ATOM      6  C   UNL     1       0.289   6.890 -10.559  0.00  0.00    +0.103 A 
ATOM      7  N   UNL     1       1.213   6.980  -9.591  0.00  0.00    -0.212 NA
ENDROOT
BRANCH   1   8
ATOM      8  C   UNL     1       1.192   5.266  -6.607  0.00  0.00    +0.120 C 
BRANCH   8  12
ATOM      9  C   UNL     1      -2.454   6.034  -4.860  0.00  0.00    +0.139 A 
ATOM     10  C   UNL     1      -1.448   6.977  -4.690  0.00  0.00    +0.037 A 
ATOM     11  C   UNL     1      -0.272   6.915  -5.430  0.00  0.00    +0.001 A 
ATOM     12  C   UNL     1      -0.116   5.976  -6.444  0.00  0.00    -0.002 A 
ATOM     13  C   UNL     1      -1.308   5.418  -6.896  0.00  0.00    +0.001 A 
ATOM     14  C   UNL     1      -2.448   5.405  -6.100  0.00  0.00    +0.037 A 
BRANCH   9  16
ATOM     15  C   UNL     1      -2.547   5.438  -2.472  0.00  0.00    +0.252 C 
ATOM     16  O   UNL     1      -3.110   5.463  -3.765  0.00  0.00    -0.471 OA
ENDBRANCH   9  16
ENDBRANCH   8  12
ENDBRANCH   1   8
BRANCH   1  17
ATOM     17  C   UNL     1       3.147   6.746  -7.172  0.00  0.00    +0.111 C 
BRANCH  17  18
ATOM     18  C   UNL     1       3.754   6.324  -5.860  0.00  0.00    +0.094 C 
BRANCH  18  19
ATOM     19  N   UNL     1       3.784   7.444  -4.961  0.00  0.00    -0.269 NA
ATOM     20  C   UNL     1       5.134   7.690  -4.461  0.00  0.00    +0.090 C 
ATOM     21  C   UNL     1       2.985   7.107  -3.800  0.00  0.00    +0.090 C 
ENDBRANCH  18  19
ENDBRANCH  17  18
ENDBRANCH   1  17
TORSDOF 6
ENDMDL
MODEL 2
REMARK VINA RESULT:      -6.8      4.190      7.768
REMARK  Name = 
REMARK  6 active torsions:
REMARK  status: ('A' for Active; 'I' for Inactive)
REMARK    1  A    between atoms: O_2  and  C_3
REMARK    2  A    between atoms: C_6  and  C_7
REMARK    3  A    between atoms: C_7  and  N_8
REMARK    4  A    between atoms: N_8  and  C_9
REMARK    5  A    between atoms: C_9  and  C_10
REMARK    6  A    between atoms: C_10  and  N_11
REMARK                            x       y       z     vdW  Elec       q    Type
REMARK                         _______ _______ _______ _____ _____    ______ ____
ROOT
ATOM      1  N   UNL     1       2.580   5.791  -7.864  0.00  0.00    -0.273 N 
ATOM      2  C   UNL     1       3.016   5.986  -6.512  0.00  0.00    +0.220 A 
ATOM      3  N   UNL     1       3.379   4.884  -5.827  0.00  0.00    -0.212 NA
ATOM      4  C   UNL     1       4.057   4.945  -4.656  0.00  0.00    +0.103 A 
ATOM      5  C   UNL     1       4.462   6.181  -4.237  0.00  0.00    +0.041 A 
ATOM      6  C   UNL     1       4.236   7.289  -5.033  0.00  0.00    +0.103 A 
ATOM      7  N   UNL     1       3.317   7.184  -6.005  0.00  0.00    -0.212 NA
ENDROOT
BRANCH   1   8
ATOM      8  C   UNL     1       3.489   5.096  -8.735  0.00  0.00    +0.120 C 
BRANCH   8  12
ATOM      9  C   UNL     1       6.916   6.013 -10.821  0.00  0.00    +0.139 A 
ATOM     10  C   UNL     1       5.800   6.816 -11.030  0.00  0.00    +0.037 A 
ATOM     11  C   UNL     1       4.684   6.725 -10.205  0.00  0.00    +0.001 A 
ATOM     12  C   UNL     1       4.696   5.913  -9.077  0.00  0.00    -0.002 A 
ATOM     13  C   UNL     1       5.968   5.547  -8.648  0.00  0.00    +0.001 A 
ATOM     14  C   UNL     1       7.054   5.552  -9.516  0.00  0.00    +0.037 A 
BRANCH   9  16
ATOM     15  C   UNL     1       8.817   5.811 -12.373  0.00  0.00    +0.252 C 
ATOM     16  O   UNL     1       7.567   5.380 -11.883  0.00  0.00    -0.471 OA
ENDBRANCH   9  16
ENDBRANCH   8  12
ENDBRANCH   1   8
BRANCH   1  17
ATOM     17  C   UNL     1       1.429   6.495  -8.373  0.00  0.00    +0.111 C 
BRANCH  17  18
ATOM     18  C   UNL     1       0.262   5.581  -8.636  0.00  0.00    +0.094 C 
BRANCH  18  19
ATOM     19  N   UNL     1      -0.111   5.661 -10.021  0.00  0.00    -0.269 NA
ATOM     20  C   UNL     1       0.309   4.471 -10.756  0.00  0.00    +0.090 C 
ATOM     21  C   UNL     1       0.609   6.771 -10.614  0.00  0.00    +0.090 C 
ENDBRANCH  18  19
ENDBRANCH  17  18
ENDBRANCH   1  17
TORSDOF 6
ENDMDL
MODEL 3
REMARK VINA RESULT:      -6.7      4.611      7.164
REMARK  Name = 
REMARK  6 active torsions:
REMARK  status: ('A' for Active; 'I' for Inactive)
REMARK    1  A    between atoms: O_2  and  C_3
REMARK    2  A    between atoms: C_6  and  C_7
REMARK    3  A    between atoms: C_7  and  N_8
REMARK    4  A    between atoms: N_8  and  C_9
REMARK    5  A    between atoms: C_9  and  C_10
REMARK    6  A    between atoms: C_10  and  N_11
REMARK                            x       y       z     vdW  Elec       q    Type
REMARK                         _______ _______ _______ _____ _____    ______ ____
ROOT
ATOM      1  N   UNL     1       3.068   5.929  -9.182  0.00  0.00    -0.273 N 
ATOM      2  C   UNL     1       1.934   5.739 -10.038  0.00  0.00    +0.220 A 
ATOM      3  N   UNL     1       2.112   5.998 -11.348  0.00  0.00    -0.212 NA
ATOM      4  C   UNL     1       1.225   5.609 -12.295  0.00  0.00    +0.103 A 
ATOM      5  C   UNL     1       0.176   4.836 -11.882  0.00  0.00    +0.041 A 
ATOM      6  C   UNL     1       0.095   4.429 -10.563  0.00  0.00    +0.103 A 
ATOM      7  N   UNL     1       0.829   5.092  -9.657  0.00  0.00    -0.212 NA
ENDROOT
BRANCH   1   8
ATOM      8  C   UNL     1       4.266   5.219  -9.541  0.00  0.00    +0.120 C 
BRANCH   8  12
ATOM      9  C   UNL     1       7.476   6.683 -11.659  0.00  0.00    +0.139 A 
ATOM     10  C   UNL     1       6.330   7.468 -11.603  0.00  0.00    +0.037 A 
ATOM     11  C   UNL     1       5.293   7.164 -10.728  0.00  0.00    +0.001 A 
ATOM     12  C   UNL     1       5.422   6.136  -9.800  0.00  0.00    -0.002 A 
ATOM     13  C   UNL     1       6.733   5.739  -9.563  0.00  0.00    +0.001 A 
ATOM     14  C   UNL     1       7.738   5.966 -10.497  0.00  0.00    +0.037 A 
BRANCH   9  16
ATOM     15  C   UNL     1       7.296   5.714 -13.916  0.00  0.00    +0.252 C 
ATOM     16  O   UNL     1       8.045   6.310 -12.881  0.00  0.00    -0.471 OA
ENDBRANCH   9  16
ENDBRANCH   8  12
ENDBRANCH   1   8
BRANCH   1  17
ATOM     17  C   UNL     1       2.920   6.569  -7.898  0.00  0.00    +0.111 C 
BRANCH  17  18
ATOM     18  C   UNL     1       3.239   5.645  -6.752  0.00  0.00    +0.094 C 
BRANCH  18  19
ATOM     19  N   UNL     1       2.098   5.541  -5.885  0.00  0.00    -0.269 NA
ATOM     20  C   UNL     1       1.391   4.279  -6.084  0.00  0.00    +0.090 C 
ATOM     21  C   UNL     1       1.162   6.585  -6.252  0.00  0.00    +0.090 C 
ENDBRANCH  18  19
ENDBRANCH  17  18
ENDBRANCH   1  17
TORSDOF 6
ENDMDL
MODEL 4
REMARK VINA RESULT:      -6.5      1.865      4.337
REMARK  Name = 
REMARK  6 active torsions:
REMARK  status: ('A' for Active; 'I' for Inactive)
REMARK    1  A    between atoms: O_2  and  C_3
REMARK    2  A    between atoms: C_6  and  C_7
REMARK    3  A    between atoms: C_7  and  N_8
REMARK    4  A    between atoms: N_8  and  C_9
REMARK    5  A    between atoms: C_9  and  C_10
REMARK    6  A    between atoms: C_10  and  N_11
REMARK                            x       y       z     vdW  Elec       q    Type
REMARK                         _______ _______ _______ _____ _____    ______ ____
ROOT
ATOM      1  N   UNL     1       2.229   6.321  -6.287  0.00  0.00    -0.273 N 
ATOM      2  C   UNL     1       3.084   6.078  -5.162  0.00  0.00    +0.220 A 
ATOM      3  N   UNL     1       2.489   5.993  -3.955  0.00  0.00    -0.212 NA
ATOM      4  C   UNL     1       3.125   5.505  -2.863  0.00  0.00    +0.103 A 
ATOM      5  C   UNL     1       4.378   4.993  -3.051  0.00  0.00    +0.041 A 
ATOM      6  C   UNL     1       4.912   4.926  -4.324  0.00  0.00    +0.103 A 
ATOM      7  N   UNL     1       4.355   5.687  -5.278  0.00  0.00    -0.212 NA
ENDROOT
BRANCH   1   8
ATOM      8  C   UNL     1       1.141   5.399  -6.474  0.00  0.00    +0.120 C 
BRANCH   8  12
ATOM      9  C   UNL     1      -2.561   6.018  -4.786  0.00  0.00    +0.139 A 
ATOM     10  C   UNL     1      -1.597   7.002  -4.602  0.00  0.00    +0.037 A 
ATOM     11  C   UNL     1      -0.408   6.988  -5.323  0.00  0.00    +0.001 A 
ATOM     12  C   UNL     1      -0.198   6.054  -6.333  0.00  0.00    -0.002 A 
ATOM     13  C   UNL     1      -1.358   5.448  -6.802  0.00  0.00    +0.001 A 
ATOM     14  C   UNL     1      -2.510   5.389  -6.025  0.00  0.00    +0.037 A 
BRANCH   9  16
ATOM     15  C   UNL     1      -2.742   5.544  -2.376  0.00  0.00    +0.252 C 
ATOM     16  O   UNL     1      -3.210   5.422  -3.700  0.00  0.00    -0.471 OA
ENDBRANCH   9  16
ENDBRANCH   8  12
ENDBRANCH   1   8
BRANCH   1  17
ATOM     17  C   UNL     1       2.612   7.261  -7.310  0.00  0.00    +0.111 C 
BRANCH  17  18
ATOM     18  C   UNL     1       2.666   6.636  -8.679  0.00  0.00    +0.094 C 
BRANCH  18  19
ATOM     19  N   UNL     1       4.004   6.190  -8.953  0.00  0.00    -0.269 NA
ATOM     20  C   UNL     1       4.493   6.721 -10.223  0.00  0.00    +0.090 C 
ATOM     21  C   UNL     1       3.972   4.750  -9.109  0.00  0.00    +0.090 C 
ENDBRANCH  18  19
ENDBRANCH  17  18
ENDBRANCH   1  17
TORSDOF 6
ENDMDL
MODEL 5
REMARK VINA RESULT:      -6.5      2.499      4.904
REMARK  Name = 
REMARK  6 active torsions:
REMARK  status: ('A' for Active; 'I' for Inactive)
REMARK    1  A    between atoms: O_2  and  C_3
REMARK    2  A    between atoms: C_6  and  C_7
REMARK    3  A    between atoms: C_7  and  N_8
REMARK    4  A    between atoms: N_8  and  C_9
REMARK    5  A    between atoms: C_9  and  C_10
REMARK    6  A    between atoms: C_10  and  N_11
REMARK                            x       y       z     vdW  Elec       q    Type
REMARK                         _______ _______ _______ _____ _____    ______ ____
ROOT
ATOM      1  N   UNL     1       2.680   5.856  -5.136  0.00  0.00    -0.273 N 
ATOM      2  C   UNL     1       1.252   5.766  -5.219  0.00  0.00    +0.220 A 
ATOM      3  N   UNL     1       0.550   6.830  -4.781  0.00  0.00    -0.212 NA
ATOM      4  C   UNL     1      -0.767   6.992  -5.047  0.00  0.00    +0.103 A 
ATOM      5  C   UNL     1      -1.351   6.079  -5.879  0.00  0.00    +0.041 A 
ATOM      6  C   UNL     1      -0.583   5.088  -6.462  0.00  0.00    +0.103 A 
ATOM      7  N   UNL     1       0.617   4.825  -5.922  0.00  0.00    -0.212 NA
ENDROOT
BRANCH   1   8
ATOM      8  C   UNL     1       3.288   6.990  -5.778  0.00  0.00    +0.120 C 
BRANCH   8  12
ATOM      9  C   UNL     1       1.926   5.579  -9.396  0.00  0.00    +0.139 A 
ATOM     10  C   UNL     1       1.593   6.883  -9.047  0.00  0.00    +0.037 A 
ATOM     11  C   UNL     1       2.198   7.514  -7.965  0.00  0.00    +0.001 A 
ATOM     12  C   UNL     1       3.236   6.901  -7.272  0.00  0.00    -0.002 A 
ATOM     13  C   UNL     1       3.849   5.860  -7.961  0.00  0.00    +0.001 A 
ATOM     14  C   UNL     1       3.189   5.177  -8.977  0.00  0.00    +0.037 A 
BRANCH   9  16
ATOM     15  C   UNL     1       0.215   4.701 -10.935  0.00  0.00    +0.252 C 
ATOM     16  O   UNL     1       0.944   4.641  -9.729  0.00  0.00    -0.471 OA
ENDBRANCH   9  16
ENDBRANCH   8  12
ENDBRANCH   1   8
BRANCH   1  17
ATOM     17  C   UNL     1       3.462   4.733  -4.679  0.00  0.00    +0.111 C 
BRANCH  17  18
ATOM     18  C   UNL     1       4.456   5.115  -3.615  0.00  0.00    +0.094 C 
BRANCH  18  19
ATOM     19  N   UNL     1       3.763   5.652  -2.477  0.00  0.00    -0.269 NA
ATOM     20  C   UNL     1       4.350   6.917  -2.043  0.00  0.00    +0.090 C 
ATOM     21  C   UNL     1       3.938   4.731  -1.372  0.00  0.00    +0.090 C 
ENDBRANCH  18  19
ENDBRANCH  17  18
ENDBRANCH   1  17
TORSDOF 6
ENDMDL
MODEL 6
REMARK VINA RESULT:      -6.5      3.823      7.254
REMARK  Name = 
REMARK  6 active torsions:
REMARK  status: ('A' for Active; 'I' for Inactive)
REMARK    1  A    between atoms: O_2  and  C_3
REMARK    2  A    between atoms: C_6  and  C_7
REMARK    3  A    between atoms: C_7  and  N_8
REMARK    4  A    between atoms: N_8  and  C_9
REMARK    5  A    between atoms: C_9  and  C_10
REMARK    6  A    between atoms: C_10  and  N_11
REMARK                            x       y       z     vdW  Elec       q    Type
REMARK                         _______ _______ _______ _____ _____    ______ ____
ROOT
ATOM      1  N   UNL     1       2.337   5.570  -6.847  0.00  0.00    -0.273 N 
ATOM      2  C   UNL     1       3.093   5.930  -5.683  0.00  0.00    +0.220 A 
ATOM      3  N   UNL     1       3.776   4.941  -5.072  0.00  0.00    -0.212 NA
ATOM      4  C   UNL     1       4.731   5.182  -4.144  0.00  0.00    +0.103 A 
ATOM      5  C   UNL     1       5.062   6.489  -3.917  0.00  0.00    +0.041 A 
ATOM      6  C   UNL     1       4.479   7.489  -4.673  0.00  0.00    +0.103 A 
ATOM      7  N   UNL     1       3.354   7.194  -5.341  0.00  0.00    -0.212 NA
ENDROOT
BRANCH   1   8
ATOM      8  C   UNL     1       3.061   4.913  -7.902  0.00  0.00    +0.120 C 
BRANCH   8  12
ATOM      9  C   UNL     1       5.978   5.937 -10.617  0.00  0.00    +0.139 A 
ATOM     10  C   UNL     1       4.814   6.696 -10.606  0.00  0.00    +0.037 A 
ATOM     11  C   UNL     1       3.885   6.573  -9.579  0.00  0.00    +0.001 A 
ATOM     12  C   UNL     1       4.147   5.771  -8.474  0.00  0.00    -0.002 A 
ATOM     13  C   UNL     1       5.491   5.455  -8.301  0.00  0.00    +0.001 A 
ATOM     14  C   UNL     1       6.385   5.493  -9.364  0.00  0.00    +0.037 A 
BRANCH   9  16
ATOM     15  C   UNL     1       7.799   5.255 -12.129  0.00  0.00    +0.252 C 
ATOM     16  O   UNL     1       6.433   5.319 -11.786  0.00  0.00    -0.471 OA
ENDBRANCH   9  16
ENDBRANCH   8  12
ENDBRANCH   1   8
BRANCH   1  17
ATOM     17  C   UNL     1       1.006   6.087  -7.047  0.00  0.00    +0.111 C 
BRANCH  17  18
ATOM     18  C   UNL     1       0.020   5.554  -6.041  0.00  0.00    +0.094 C 
BRANCH  18  19
ATOM     19  N   UNL     1      -1.089   6.459  -5.927  0.00  0.00    -0.269 NA
ATOM     20  C   UNL     1      -1.143   7.070  -4.602  0.00  0.00    +0.090 C 
ATOM     21  C   UNL     1      -2.310   5.689  -6.061  0.00  0.00    +0.090 C 
ENDBRANCH  18  19
ENDBRANCH  17  18
ENDBRANCH   1  17
TORSDOF 6
ENDMDL
MODEL 7
REMARK VINA RESULT:      -6.4      2.935      6.076
REMARK  Name = 
REMARK  6 active torsions:
REMARK  status: ('A' for Active; 'I' for Inactive)
REMARK    1  A    between atoms: O_2  and  C_3
REMARK    2  A    between atoms: C_6  and  C_7
REMARK    3  A    between atoms: C_7  and  N_8
REMARK    4  A    between atoms: N_8  and  C_9
REMARK    5  A    between atoms: C_9  and  C_10
REMARK    6  A    between atoms: C_10  and  N_11
REMARK                            x       y       z     vdW  Elec       q    Type
REMARK                         _______ _______ _______ _____ _____    ______ ____
ROOT
ATOM      1  N   UNL     1       1.181   5.374  -4.630  0.00  0.00    -0.273 N 
ATOM      2  C   UNL     1       2.480   5.769  -4.172  0.00  0.00    +0.220 A 
ATOM      3  N   UNL     1       3.433   4.816  -4.151  0.00  0.00    -0.212 NA
ATOM      4  C   UNL     1       4.748   5.103  -4.006  0.00  0.00    +0.103 A 
ATOM      5  C   UNL     1       5.097   6.424  -3.988  0.00  0.00    +0.041 A 
ATOM      6  C   UNL     1       4.132   7.395  -4.185  0.00  0.00    +0.103 A 
ATOM      7  N   UNL     1       2.848   7.044  -4.022  0.00  0.00    -0.212 NA
ENDROOT
BRANCH   1   8
ATOM      8  C   UNL     1       1.119   4.759  -5.928  0.00  0.00    +0.120 C 
BRANCH   8  12
ATOM      9  C   UNL     1       1.179   6.343  -9.726  0.00  0.00    +0.139 A 
ATOM     10  C   UNL     1       0.016   5.704  -9.313  0.00  0.00    +0.037 A 
ATOM     11  C   UNL     1      -0.176   5.349  -7.983  0.00  0.00    +0.001 A 
ATOM     12  C   UNL     1       0.738   5.727  -7.005  0.00  0.00    -0.002 A 
ATOM     13  C   UNL     1       1.582   6.766  -7.382  0.00  0.00    +0.001 A 
ATOM     14  C   UNL     1       1.836   7.043  -8.720  0.00  0.00    +0.037 A 
BRANCH   9  16
ATOM     15  C   UNL     1       1.535   6.501 -12.158  0.00  0.00    +0.252 C 
ATOM     16  O   UNL     1       1.846   5.960 -10.893  0.00  0.00    -0.471 OA
ENDBRANCH   9  16
ENDBRANCH   8  12
ENDBRANCH   1   8
BRANCH   1  17
ATOM     17  C   UNL     1      -0.006   5.822  -3.944  0.00  0.00    +0.111 C 
BRANCH  17  18
ATOM     18  C   UNL     1      -0.059   5.357  -2.513  0.00  0.00    +0.094 C 
BRANCH  18  19
ATOM     19  N   UNL     1      -1.412   5.026  -2.163  0.00  0.00    -0.269 NA
ATOM     20  C   UNL     1      -2.339   5.362  -3.241  0.00  0.00    +0.090 C 
ATOM     21  C   UNL     1      -1.796   5.853  -1.036  0.00  0.00    +0.090 C 
ENDBRANCH  18  19
ENDBRANCH  17  18
ENDBRANCH   1  17
TORSDOF 6
ENDMDL
MODEL 8
REMARK VINA RESULT:      -6.3      3.458      5.909
REMARK  Name = 
REMARK  6 active torsions:
REMARK  status: ('A' for Active; 'I' for Inactive)
REMARK    1  A    between atoms: O_2  and  C_3
REMARK    2  A    between atoms: C_6  and  C_7
REMARK    3  A    between atoms: C_7  and  N_8
REMARK    4  A    between atoms: N_8  and  C_9
REMARK    5  A    between atoms: C_9  and  C_10
REMARK    6  A    between atoms: C_10  and  N_11
REMARK                            x       y       z     vdW  Elec       q    Type
REMARK                         _______ _______ _______ _____ _____    ______ ____
ROOT
ATOM      1  N   UNL     1       3.402   6.430 -10.087  0.00  0.00    -0.273 N 
ATOM      2  C   UNL     1       4.747   6.495 -10.578  0.00  0.00    +0.220 A 
ATOM      3  N   UNL     1       5.207   7.712 -10.929  0.00  0.00    -0.212 NA
ATOM      4  C   UNL     1       6.521   7.959 -11.146  0.00  0.00    +0.103 A 
ATOM      5  C   UNL     1       7.395   6.941 -10.889  0.00  0.00    +0.041 A 
ATOM      6  C   UNL     1       6.931   5.749 -10.363  0.00  0.00    +0.103 A 
ATOM      7  N   UNL     1       5.619   5.490 -10.461  0.00  0.00    -0.212 NA
ENDROOT
BRANCH   1   8
ATOM      8  C   UNL     1       3.086   7.282  -8.972  0.00  0.00    +0.120 C 
BRANCH   8  12
ATOM      9  C   UNL     1       3.781   6.695  -4.959  0.00  0.00    +0.139 A 
ATOM     10  C   UNL     1       2.472   6.937  -5.357  0.00  0.00    +0.037 A 
ATOM     11  C   UNL     1       2.113   6.914  -6.700  0.00  0.00    +0.001 A 
ATOM     12  C   UNL     1       3.028   6.535  -7.676  0.00  0.00    -0.002 A 
ATOM     13  C   UNL     1       4.126   5.834  -7.190  0.00  0.00    +0.001 A 
ATOM     14  C   UNL     1       4.527   5.946  -5.863  0.00  0.00    +0.037 A 
BRANCH   9  16
ATOM     15  C   UNL     1       3.739   7.929  -2.828  0.00  0.00    +0.252 C 
ATOM     16  O   UNL     1       4.405   7.484  -3.988  0.00  0.00    -0.471 OA
ENDBRANCH   9  16
ENDBRANCH   8  12
ENDBRANCH   1   8
BRANCH   1  17
ATOM     17  C   UNL     1       2.515   5.375 -10.511  0.00  0.00    +0.111 C 
BRANCH  17  18
ATOM     18  C   UNL     1       1.804   5.700 -11.798  0.00  0.00    +0.094 C 
BRANCH  18  19
ATOM     19  N   UNL     1       0.383   5.643 -11.591  0.00  0.00    -0.269 NA
ATOM     20  C   UNL     1      -0.147   6.939 -11.176  0.00  0.00    +0.090 C 
ATOM     21  C   UNL     1       0.128   4.736 -10.489  0.00  0.00    +0.090 C 
ENDBRANCH  18  19
ENDBRANCH  17  18
ENDBRANCH   1  17
TORSDOF 6
ENDMDL
MODEL 9
REMARK VINA RESULT:      -6.3      1.317      4.762
REMARK  Name = 
REMARK  6 active torsions:
REMARK  status: ('A' for Active; 'I' for Inactive)
REMARK    1  A    between atoms: O_2  and  C_3
REMARK    2  A    between atoms: C_6  and  C_7
REMARK    3  A    between atoms: C_7  and  N_8
REMARK    4  A    between atoms: N_8  and  C_9
REMARK    5  A    between atoms: C_9  and  C_10
REMARK    6  A    between atoms: C_10  and  N_11
REMARK                            x       y       z     vdW  Elec       q    Type
REMARK                         _______ _______ _______ _____ _____    ______ ____
ROOT
ATOM      1  N   UNL     1       2.600   6.267  -7.196  0.00  0.00    -0.273 N 
ATOM      2  C   UNL     1       3.593   6.234  -6.164  0.00  0.00    +0.220 A 
ATOM      3  N   UNL     1       3.925   7.413  -5.602  0.00  0.00    -0.212 NA
ATOM      4  C   UNL     1       4.633   7.498  -4.451  0.00  0.00    +0.103 A 
ATOM      5  C   UNL     1       4.916   6.326  -3.808  0.00  0.00    +0.041 A 
ATOM      6  C   UNL     1       4.423   5.132  -4.301  0.00  0.00    +0.103 A 
ATOM      7  N   UNL     1       3.999   5.107  -5.573  0.00  0.00    -0.212 NA
ENDROOT
BRANCH   1   8
ATOM      8  C   UNL     1       1.344   6.881  -6.856  0.00  0.00    +0.120 C 
BRANCH   8  12
ATOM      9  C   UNL     1      -1.953   5.811  -4.639  0.00  0.00    +0.139 A 
ATOM     10  C   UNL     1      -1.991   5.569  -6.007  0.00  0.00    +0.037 A 
ATOM     11  C   UNL     1      -0.846   5.680  -6.789  0.00  0.00    +0.001 A 
ATOM     12  C   UNL     1       0.393   5.924  -6.207  0.00  0.00    -0.002 A 
ATOM     13  C   UNL     1       0.449   5.655  -4.844  0.00  0.00    +0.001 A 
ATOM     14  C   UNL     1      -0.700   5.643  -4.060  0.00  0.00    +0.037 A 
BRANCH   9  16
ATOM     15  C   UNL     1      -3.535   6.175  -2.786  0.00  0.00    +0.252 C 
ATOM     16  O   UNL     1      -2.945   6.567  -4.006  0.00  0.00    -0.471 OA
ENDBRANCH   9  16
ENDBRANCH   8  12
ENDBRANCH   1   8
BRANCH   1  17
ATOM     17  C   UNL     1       2.762   5.485  -8.397  0.00  0.00    +0.111 C 
BRANCH  17  18
ATOM     18  C   UNL     1       2.807   6.335  -9.639  0.00  0.00    +0.094 C 
BRANCH  18  19
ATOM     19  N   UNL     1       1.648   6.070 -10.447  0.00  0.00    -0.269 NA
ATOM     20  C   UNL     1       1.039   4.789 -10.100  0.00  0.00    +0.090 C 
ATOM     21  C   UNL     1       2.084   5.945 -11.824  0.00  0.00    +0.090 C 
ENDBRANCH  18  19
ENDBRANCH  17  18
ENDBRANCH   1  17
TORSDOF 6
ENDMDL
