MODEL 1
REMARK VINA RESULT:      -8.5      0.000      0.000
REMARK  Name = 
REMARK  0 active torsions:
REMARK  status: ('A' for Active; 'I' for Inactive)
REMARK                            x       y       z     vdW  Elec       q    Type
REMARK                         _______ _______ _______ _____ _____    ______ ____
ROOT
ATOM      1  C   UNL     1       3.622   5.002  -3.081  0.00  0.00    +0.090 C 
ATOM      2  N   UNL     1       3.352   5.355  -3.551  0.00  0.00    -0.268 NA
ATOM      3  C   UNL     1       2.016   5.938  -3.657  0.00  0.00    +0.097 C 
ATOM      4  C   UNL     1       1.300   5.040  -4.857  0.00  0.00    +0.112 C 
ATOM      5  N   UNL     1       1.907   5.983  -5.985  0.00  0.00    -0.289 N 
ATOM      6  C   UNL     1       1.490   5.768  -7.335  0.00  0.00    +0.128 A 
ATOM      7  C   UNL     1       0.216   5.620  -7.846  0.00  0.00    +0.014 A 
ATOM      8  C   UNL     1      -1.015   5.231  -7.137  0.00  0.00    +0.055 C 
ATOM      9  C   UNL     1      -1.065   5.705  -5.736  0.00  0.00    -0.020 A 
ATOM     10  C   UNL     1      -2.383   5.629  -5.303  0.00  0.00    -0.004 A 
ATOM     11  C   UNL     1      -2.716   5.445  -3.973  0.00  0.00    -0.000 A 
ATOM     12  C   UNL     1      -1.762   5.787  -3.037  0.00  0.00    -0.000 A 
ATOM     13  C   UNL     1      -0.453   5.840  -3.450  0.00  0.00    -0.003 A 
ATOM     14  C   UNL     1       0.025   5.774  -9.211  0.00  0.00    +0.000 A 
ATOM     15  C   UNL     1       1.004   6.311 -10.012  0.00  0.00    +0.020 A 
ATOM     16  C   UNL     1       2.261   6.486  -9.457  0.00  0.00    +0.100 A 
ATOM     17  N   UNL     1       2.459   6.199  -8.168  0.00  0.00    -0.229 NA
ATOM     18  C   UNL     1       3.366   5.932  -5.944  0.00  0.00    +0.110 C 
ATOM     19  C   UNL     1      -0.072   5.918  -4.784  0.00  0.00    -0.007 A 
ATOM     20  C   UNL     1       3.865   5.008  -4.873  0.00  0.00    +0.094 C 
ENDROOT
TORSDOF 0
ENDMDL
MODEL 2
REMARK VINA RESULT:      -8.4      1.704      4.686
REMARK  Name = 
REMARK  0 active torsions:
REMARK  status: ('A' for Active; 'I' for Inactive)
REMARK                            x       y       z     vdW  Elec       q    Type
REMARK                         _______ _______ _______ _____ _____    ______ ____
ROOT
ATOM      1  C   UNL     1       4.157   4.541  -8.919  0.00  0.00    +0.090 C 
ATOM      2  N   UNL     1       3.675   4.899  -8.679  0.00  0.00    -0.268 NA
ATOM      3  C   UNL     1       3.683   5.961  -7.675  0.00  0.00    +0.097 C 
ATOM      4  C   UNL     1       2.901   5.271  -6.382  0.00  0.00    +0.112 C 
ATOM      5  N   UNL     1       1.481   5.696  -6.959  0.00  0.00    -0.289 N 
ATOM      6  C   UNL     1       0.330   5.472  -6.141  0.00  0.00    +0.128 A 
ATOM      7  C   UNL     1       0.123   5.791  -4.814  0.00  0.00    +0.014 A 
ATOM      8  C   UNL     1       1.126   6.060  -3.769  0.00  0.00    +0.055 C 
ATOM      9  C   UNL     1       2.350   6.717  -4.280  0.00  0.00    -0.020 A 
ATOM     10  C   UNL     1       3.030   7.261  -3.198  0.00  0.00    -0.004 A 
ATOM     11  C   UNL     1       4.403   7.434  -3.197  0.00  0.00    -0.000 A 
ATOM     12  C   UNL     1       5.026   7.486  -4.427  0.00  0.00    -0.000 A 
ATOM     13  C   UNL     1       4.373   6.928  -5.498  0.00  0.00    -0.003 A 
ATOM     14  C   UNL     1      -1.176   5.802  -4.327  0.00  0.00    +0.000 A 
ATOM     15  C   UNL     1      -2.255   5.758  -5.177  0.00  0.00    +0.020 A 
ATOM     16  C   UNL     1      -2.010   5.477  -6.511  0.00  0.00    +0.100 A 
ATOM     17  N   UNL     1      -0.751   5.331  -6.934  0.00  0.00    -0.229 NA
ATOM     18  C   UNL     1       1.255   5.051  -8.249  0.00  0.00    +0.110 C 
ATOM     19  C   UNL     1       3.013   6.640  -5.501  0.00  0.00    -0.007 A 
ATOM     20  C   UNL     1       2.408   4.176  -8.648  0.00  0.00    +0.094 C 
ENDROOT
TORSDOF 0
ENDMDL
MODEL 3
REMARK VINA RESULT:      -8.4      1.045      4.315
REMARK  Name = 
REMARK  0 active torsions:
REMARK  status: ('A' for Active; 'I' for Inactive)
REMARK                            x       y       z     vdW  Elec       q    Type
REMARK                         _______ _______ _______ _____ _____    ______ ____
ROOT
ATOM      1  C   UNL     1       1.713   6.361  -9.861  0.00  0.00    +0.090 C 
ATOM      2  N   UNL     1       1.821   6.010  -9.329  0.00  0.00    -0.268 NA
ATOM      3  C   UNL     1       0.891   5.406  -8.378  0.00  0.00    +0.097 C 
ATOM      4  C   UNL     1       1.111   6.307  -7.001  0.00  0.00    +0.112 C 
ATOM      5  N   UNL     1       2.326   5.389  -6.542  0.00  0.00    -0.289 N 
ATOM      6  C   UNL     1       2.886   5.615  -5.246  0.00  0.00    +0.128 A 
ATOM      7  C   UNL     1       2.250   5.748  -4.028  0.00  0.00    +0.014 A 
ATOM      8  C   UNL     1       0.847   6.107  -3.762  0.00  0.00    +0.055 C 
ATOM      9  C   UNL     1      -0.095   5.615  -4.792  0.00  0.00    -0.020 A 
ATOM     10  C   UNL     1      -1.378   5.664  -4.261  0.00  0.00    -0.004 A 
ATOM     11  C   UNL     1      -2.501   5.825  -5.052  0.00  0.00    -0.000 A 
ATOM     12  C   UNL     1      -2.380   5.487  -6.384  0.00  0.00    -0.000 A 
ATOM     13  C   UNL     1      -1.118   5.461  -6.925  0.00  0.00    -0.003 A 
ATOM     14  C   UNL     1       2.998   5.609  -2.869  0.00  0.00    +0.000 A 
ATOM     15  C   UNL     1       4.274   5.098  -2.901  0.00  0.00    +0.020 A 
ATOM     16  C   UNL     1       4.869   4.937  -4.142  0.00  0.00    +0.100 A 
ATOM     17  N   UNL     1       4.172   5.210  -5.248  0.00  0.00    -0.229 NA
ATOM     18  C   UNL     1       3.404   5.463  -7.524  0.00  0.00    +0.110 C 
ATOM     19  C   UNL     1       0.042   5.406  -6.161  0.00  0.00    -0.007 A 
ATOM     20  C   UNL     1       3.064   6.381  -8.661  0.00  0.00    +0.094 C 
ENDROOT
TORSDOF 0
ENDMDL
MODEL 4
REMARK VINA RESULT:      -8.3      1.713      4.614
REMARK  Name = 
REMARK  0 active torsions:
REMARK  status: ('A' for Active; 'I' for Inactive)
REMARK                            x       y       z     vdW  Elec       q    Type
REMARK                         _______ _______ _______ _____ _____    ______ ____
ROOT
ATOM      1  C   UNL     1       5.051   7.479  -3.793  0.00  0.00    +0.090 C 
ATOM      2  N   UNL     1       4.583   7.061  -3.951  0.00  0.00    -0.268 NA
ATOM      3  C   UNL     1       4.495   6.098  -5.046  0.00  0.00    +0.097 C 
ATOM      4  C   UNL     1       3.313   6.735  -6.023  0.00  0.00    +0.112 C 
ATOM      5  N   UNL     1       2.169   6.023  -5.177  0.00  0.00    -0.289 N 
ATOM      6  C   UNL     1       0.827   6.102  -5.663  0.00  0.00    +0.128 A 
ATOM      7  C   UNL     1       0.338   5.855  -6.930  0.00  0.00    +0.014 A 
ATOM      8  C   UNL     1       1.069   5.849  -8.208  0.00  0.00    +0.055 C 
ATOM      9  C   UNL     1       2.467   5.381  -8.087  0.00  0.00    -0.020 A 
ATOM     10  C   UNL     1       2.922   5.051  -9.358  0.00  0.00    -0.004 A 
ATOM     11  C   UNL     1       4.258   5.123  -9.709  0.00  0.00    -0.000 A 
ATOM     12  C   UNL     1       5.176   5.088  -8.679  0.00  0.00    -0.000 A 
ATOM     13  C   UNL     1       4.743   5.438  -7.424  0.00  0.00    -0.003 A 
ATOM     14  C   UNL     1      -1.025   5.652  -7.088  0.00  0.00    +0.000 A 
ATOM     15  C   UNL     1      -1.845   5.439  -6.006  0.00  0.00    +0.020 A 
ATOM     16  C   UNL     1      -1.311   5.656  -4.745  0.00  0.00    +0.100 A 
ATOM     17  N   UNL     1      -0.023   5.989  -4.622  0.00  0.00    -0.229 NA
ATOM     18  C   UNL     1       2.187   6.517  -3.803  0.00  0.00    +0.110 C 
ATOM     19  C   UNL     1       3.402   5.480  -7.061  0.00  0.00    -0.007 A 
ATOM     20  C   UNL     1       3.256   7.548  -3.591  0.00  0.00    +0.094 C 
ENDROOT
TORSDOF 0
ENDMDL
MODEL 5
REMARK VINA RESULT:      -8.2      3.206      7.682
REMARK  Name = 
REMARK  0 active torsions:
REMARK  status: ('A' for Active; 'I' for Inactive)
REMARK                            x       y       z     vdW  Elec       q    Type
REMARK                         _______ _______ _______ _____ _____    ______ ____
ROOT
ATOM      1  C   UNL     1       1.789   5.427 -12.911  0.00  0.00    +0.090 C 
ATOM      2  N   UNL     1       2.004   5.755 -12.396  0.00  0.00    -0.268 NA
ATOM      3  C   UNL     1       3.343   6.233 -12.062  0.00  0.00    +0.097 C 
ATOM      4  C   UNL     1       3.783   5.275 -10.779  0.00  0.00    +0.112 C 
ATOM      5  N   UNL     1       3.071   6.254  -9.747  0.00  0.00    -0.289 N 
ATOM      6  C   UNL     1       3.243   5.998  -8.351  0.00  0.00    +0.128 A 
ATOM      7  C   UNL     1       4.401   5.749  -7.642  0.00  0.00    +0.014 A 
ATOM      8  C   UNL     1       5.699   5.272  -8.147  0.00  0.00    +0.055 C 
ATOM      9  C   UNL     1       6.014   5.750  -9.511  0.00  0.00    -0.020 A 
ATOM     10  C   UNL     1       7.376   5.575  -9.724  0.00  0.00    -0.004 A 
ATOM     11  C   UNL     1       7.909   5.376 -10.986  0.00  0.00    -0.000 A 
ATOM     12  C   UNL     1       7.150   5.796 -12.058  0.00  0.00    -0.000 A 
ATOM     13  C   UNL     1       5.798   5.947 -11.864  0.00  0.00    -0.003 A 
ATOM     14  C   UNL     1       4.375   5.878  -6.261  0.00  0.00    +0.000 A 
ATOM     15  C   UNL     1       3.321   6.484  -5.621  0.00  0.00    +0.020 A 
ATOM     16  C   UNL     1       2.188   6.759  -6.371  0.00  0.00    +0.100 A 
ATOM     17  N   UNL     1       2.184   6.497  -7.680  0.00  0.00    -0.229 NA
ATOM     18  C   UNL     1       1.639   6.316 -10.027  0.00  0.00    +0.110 C 
ATOM     19  C   UNL     1       5.211   6.045 -10.608  0.00  0.00    -0.007 A 
ATOM     20  C   UNL     1       1.256   5.440 -11.183  0.00  0.00    +0.094 C 
ENDROOT
TORSDOF 0
ENDMDL
MODEL 6
REMARK VINA RESULT:      -8.2      1.640      4.562
REMARK  Name = 
REMARK  0 active torsions:
REMARK  status: ('A' for Active; 'I' for Inactive)
REMARK                            x       y       z     vdW  Elec       q    Type
REMARK                         _______ _______ _______ _____ _____    ______ ____
ROOT
ATOM      1  C   UNL     1       4.272   5.723  -3.626  0.00  0.00    +0.090 C 
ATOM      2  N   UNL     1       3.680   5.463  -3.610  0.00  0.00    -0.268 NA
ATOM      3  C   UNL     1       2.858   4.897  -4.677  0.00  0.00    +0.097 C 
ATOM      4  C   UNL     1       1.627   6.000  -4.840  0.00  0.00    +0.112 C 
ATOM      5  N   UNL     1       0.786   5.296  -3.687  0.00  0.00    -0.289 N 
ATOM      6  C   UNL     1      -0.544   5.761  -3.448  0.00  0.00    +0.128 A 
ATOM      7  C   UNL     1      -1.567   5.991  -4.346  0.00  0.00    +0.014 A 
ATOM      8  C   UNL     1      -1.476   6.224  -5.797  0.00  0.00    +0.055 C 
ATOM      9  C   UNL     1      -0.366   5.491  -6.445  0.00  0.00    -0.020 A 
ATOM     10  C   UNL     1      -0.606   5.470  -7.814  0.00  0.00    -0.004 A 
ATOM     11  C   UNL     1       0.416   5.393  -8.743  0.00  0.00    -0.000 A 
ATOM     12  C   UNL     1       1.623   4.888  -8.304  0.00  0.00    -0.000 A 
ATOM     13  C   UNL     1       1.880   4.928  -6.956  0.00  0.00    -0.003 A 
ATOM     14  C   UNL     1      -2.863   6.099  -3.864  0.00  0.00    +0.000 A 
ATOM     15  C   UNL     1      -3.178   5.735  -2.577  0.00  0.00    +0.020 A 
ATOM     16  C   UNL     1      -2.128   5.470  -1.711  0.00  0.00    +0.100 A 
ATOM     17  N   UNL     1      -0.873   5.507  -2.165  0.00  0.00    -0.229 NA
ATOM     18  C   UNL     1       1.523   5.353  -2.428  0.00  0.00    +0.110 C 
ATOM     19  C   UNL     1       0.894   5.111  -5.993  0.00  0.00    -0.007 A 
ATOM     20  C   UNL     1       2.838   6.061  -2.579  0.00  0.00    +0.094 C 
ENDROOT
TORSDOF 0
ENDMDL
MODEL 7
REMARK VINA RESULT:      -8.1      2.148      4.320
REMARK  Name = 
REMARK  0 active torsions:
REMARK  status: ('A' for Active; 'I' for Inactive)
REMARK                            x       y       z     vdW  Elec       q    Type
REMARK                         _______ _______ _______ _____ _____    ______ ____
ROOT
ATOM      1  C   UNL     1      -1.631   6.174  -0.626  0.00  0.00    +0.090 C 
ATOM      2  N   UNL     1      -1.157   6.359  -1.025  0.00  0.00    -0.268 NA
ATOM      3  C   UNL     1      -1.179   6.673  -2.452  0.00  0.00    +0.097 C 
ATOM      4  C   UNL     1      -0.334   5.417  -3.135  0.00  0.00    +0.112 C 
ATOM      5  N   UNL     1       1.051   6.161  -2.894  0.00  0.00    -0.289 N 
ATOM      6  C   UNL     1       2.233   5.574  -3.445  0.00  0.00    +0.128 A 
ATOM      7  C   UNL     1       2.464   5.103  -4.722  0.00  0.00    +0.014 A 
ATOM      8  C   UNL     1       1.481   4.692  -5.738  0.00  0.00    +0.055 C 
ATOM      9  C   UNL     1       0.218   5.461  -5.685  0.00  0.00    -0.020 A 
ATOM     10  C   UNL     1      -0.453   5.270  -6.887  0.00  0.00    -0.004 A 
ATOM     11  C   UNL     1      -1.831   5.347  -6.986  0.00  0.00    -0.000 A 
ATOM     12  C   UNL     1      -2.490   6.048  -5.998  0.00  0.00    -0.000 A 
ATOM     13  C   UNL     1      -1.845   6.220  -4.797  0.00  0.00    -0.003 A 
ATOM     14  C   UNL     1       3.774   4.904  -5.130  0.00  0.00    +0.000 A 
ATOM     15  C   UNL     1       4.831   5.396  -4.401  0.00  0.00    +0.020 A 
ATOM     16  C   UNL     1       4.559   5.900  -3.139  0.00  0.00    +0.100 A 
ATOM     17  N   UNL     1       3.296   5.955  -2.708  0.00  0.00    -0.229 NA
ATOM     18  C   UNL     1       1.266   6.362  -1.464  0.00  0.00    +0.110 C 
ATOM     19  C   UNL     1      -0.476   6.049  -4.632  0.00  0.00    -0.007 A 
ATOM     20  C   UNL     1       0.139   5.806  -0.644  0.00  0.00    +0.094 C 
ENDROOT
TORSDOF 0
ENDMDL
MODEL 8
REMARK VINA RESULT:      -8.1      1.510      2.220
REMARK  Name = 
REMARK  0 active torsions:
REMARK  status: ('A' for Active; 'I' for Inactive)
REMARK                            x       y       z     vdW  Elec       q    Type
REMARK                         _______ _______ _______ _____ _____    ______ ____
ROOT
ATOM      1  C   UNL     1       3.027   5.410  -2.292  0.00  0.00    +0.090 C 
ATOM      2  N   UNL     1       3.083   5.650  -2.890  0.00  0.00    -0.268 NA
ATOM      3  C   UNL     1       2.072   6.182  -3.802  0.00  0.00    +0.097 C 
ATOM      4  C   UNL     1       2.000   5.038  -5.003  0.00  0.00    +0.112 C 
ATOM      5  N   UNL     1       3.204   5.721  -5.786  0.00  0.00    -0.289 N 
ATOM      6  C   UNL     1       3.536   5.213  -7.081  0.00  0.00    +0.128 A 
ATOM      7  C   UNL     1       2.712   4.944  -8.155  0.00  0.00    +0.014 A 
ATOM      8  C   UNL     1       1.258   4.705  -8.156  0.00  0.00    +0.055 C 
ATOM      9  C   UNL     1       0.533   5.470  -7.118  0.00  0.00    -0.020 A 
ATOM     10  C   UNL     1      -0.816   5.475  -7.451  0.00  0.00    -0.004 A 
ATOM     11  C   UNL     1      -1.814   5.580  -6.499  0.00  0.00    -0.000 A 
ATOM     12  C   UNL     1      -1.461   6.127  -5.283  0.00  0.00    -0.000 A 
ATOM     13  C   UNL     1      -0.133   6.104  -4.933  0.00  0.00    -0.003 A 
ATOM     14  C   UNL     1       3.282   4.796  -9.410  0.00  0.00    +0.000 A 
ATOM     15  C   UNL     1       4.586   5.158  -9.648  0.00  0.00    +0.020 A 
ATOM     16  C   UNL     1       5.377   5.463  -8.551  0.00  0.00    +0.100 A 
ATOM     17  N   UNL     1       4.838   5.464  -7.330  0.00  0.00    -0.229 NA
ATOM     18  C   UNL     1       4.410   5.696  -4.964  0.00  0.00    +0.110 C 
ATOM     19  C   UNL     1       0.896   5.895  -5.844  0.00  0.00    -0.007 A 
ATOM     20  C   UNL     1       4.172   5.031  -3.639  0.00  0.00    +0.094 C 
ENDROOT
TORSDOF 0
ENDMDL
MODEL 9
REMARK VINA RESULT:      -8.0      1.758      5.761
REMARK  Name = 
REMARK  0 active torsions:
REMARK  status: ('A' for Active; 'I' for Inactive)
REMARK                            x       y       z     vdW  Elec       q    Type
REMARK                         _______ _______ _______ _____ _____    ______ ____
ROOT
ATOM      1  C   UNL     1      -1.322   5.042  -6.758  0.00  0.00    +0.090 C 
ATOM      2  N   UNL     1      -0.844   5.460  -6.638  0.00  0.00    -0.268 NA
ATOM      3  C   UNL     1       0.258   5.917  -7.483  0.00  0.00    +0.097 C 
ATOM      4  C   UNL     1       1.595   5.235  -6.773  0.00  0.00    +0.112 C 
ATOM      5  N   UNL     1       1.735   6.456  -5.763  0.00  0.00    -0.289 N 
ATOM      6  C   UNL     1       2.887   6.499  -4.918  0.00  0.00    +0.128 A 
ATOM      7  C   UNL     1       4.219   6.340  -5.243  0.00  0.00    +0.014 A 
ATOM      8  C   UNL     1       4.800   5.687  -6.429  0.00  0.00    +0.055 C 
ATOM      9  C   UNL     1       3.978   5.837  -7.649  0.00  0.00    -0.020 A 
ATOM     10  C   UNL     1       4.777   5.539  -8.746  0.00  0.00    -0.004 A 
ATOM     11  C   UNL     1       4.257   5.038  -9.927  0.00  0.00    -0.000 A 
ATOM     12  C   UNL     1       2.917   5.262 -10.163  0.00  0.00    -0.000 A 
ATOM     13  C   UNL     1       2.113   5.532  -9.082  0.00  0.00    -0.003 A 
ATOM     14  C   UNL     1       5.180   6.767  -4.339  0.00  0.00    +0.000 A 
ATOM     15  C   UNL     1       4.848   7.560  -3.267  0.00  0.00    +0.020 A 
ATOM     16  C   UNL     1       3.501   7.734  -2.992  0.00  0.00    +0.100 A 
ATOM     17  N   UNL     1       2.587   7.195  -3.802  0.00  0.00    -0.229 NA
ATOM     18  C   UNL     1       0.547   6.542  -4.918  0.00  0.00    +0.110 C 
ATOM     19  C   UNL     1       2.603   5.936  -7.845  0.00  0.00    -0.007 A 
ATOM     20  C   UNL     1      -0.445   5.461  -5.234  0.00  0.00    +0.094 C 
ENDROOT
TORSDOF 0
ENDMDL
