MODEL 1
REMARK VINA RESULT:      -0.4      0.000      0.000
REMARK  Name = 
REMARK  2 active torsions:
REMARK  status: ('A' for Active; 'I' for Inactive)
REMARK    1  A    between atoms: C_20  and  C_21
REMARK    2  A    between atoms: C_30  and  C_31
REMARK                            x       y       z     vdW  Elec       q    Type
REMARK                         _______ _______ _______ _____ _____    ______ ____
ROOT
ATOM      1  C   UNL     1       4.757   5.210  -7.028  0.00  0.00    +0.032 C 
ATOM      2  C   UNL     1       4.646   4.682  -6.342  0.00  0.00    -0.005 C 
ATOM      3  C   UNL     1       4.247   5.042  -5.110  0.00  0.00    +0.124 C 
ATOM      4  C   UNL     1       4.396   4.377  -3.882  0.00  0.00    +0.280 C 
ATOM      5  O   UNL     1       4.883   3.254  -4.344  0.00  0.00    -0.267 OA
ATOM      6  N   UNL     1       5.168   4.940  -2.741  0.00  0.00    -0.191 NA
ATOM      7  C   UNL     1       3.747   4.928  -2.097  0.00  0.00    +0.194 C 
ATOM      8  C   UNL     1       4.042   5.570  -0.632  0.00  0.00    +0.337 C 
ATOM      9  O   UNL     1       5.049   5.162  -0.040  0.00  0.00    -0.248 OA
ATOM     10  O   UNL     1       2.781   5.450   0.020  0.00  0.00    -0.446 OA
ATOM     11  C   UNL     1       1.831   6.524  -0.539  0.00  0.00    +0.200 C 
ATOM     12  C   UNL     1       0.786   5.432  -1.195  0.00  0.00    +0.135 C 
ATOM     13  C   UNL     1      -0.080   6.207  -2.152  0.00  0.00    +0.246 C 
ATOM     14  N   UNL     1       0.137   6.148  -3.569  0.00  0.00    -0.198 NA
ATOM     15  C   UNL     1       0.230   7.521  -4.344  0.00  0.00    +0.173 C 
ATOM     16  C   UNL     1       1.204   6.923  -5.484  0.00  0.00    +0.262 C 
ATOM     17  N   UNL     1       2.595   7.254  -5.325  0.00  0.00    -0.195 NA
ATOM     18  C   UNL     1       3.044   6.786  -3.886  0.00  0.00    +0.185 C 
ATOM     19  C   UNL     1       2.606   8.194  -3.204  0.00  0.00    +0.100 C 
ATOM     20  S   UNL     1       3.828   9.125  -2.437  0.00  0.00    -0.080 S 
ATOM     21  S   UNL     1       3.347  10.235  -0.785  0.00  0.00    -0.082 S 
ATOM     22  C   UNL     1       3.316   9.147   0.676  0.00  0.00    +0.073 C 
ATOM     23  C   UNL     1       1.846   8.943   0.955  0.00  0.00    +0.038 C 
ATOM     24  C   UNL     1       1.561   7.601   1.544  0.00  0.00    -0.026 C 
ATOM     25  C   UNL     1       4.595   7.251  -3.976  0.00  0.00    +0.266 C 
ATOM     26  O   UNL     1       4.806   8.366  -4.508  0.00  0.00    -0.271 OA
ATOM     27  O   UNL     1       0.778   6.085  -6.276  0.00  0.00    -0.271 OA
ATOM     28  O   UNL     1      -1.235   6.255  -1.618  0.00  0.00    -0.273 OA
ATOM     29  C   UNL     1       0.989   6.611   0.844  0.00  0.00    +0.013 C 
ATOM     30  N   UNL     1       4.965   6.111  -4.481  0.00  0.00    -0.173 NA
ENDROOT
BRANCH   7  31
ATOM     31  C   UNL     1       3.909   3.392  -1.506  0.00  0.00    +0.031 C 
ATOM     32  C   UNL     1       2.894   2.921  -0.725  0.00  0.00    +0.002 C 
ATOM     33  C   UNL     1       5.094   3.335  -0.579  0.00  0.00    +0.002 C 
ENDBRANCH   7  31
BRANCH  15  34
ATOM     34  C   UNL     1      -1.141   7.293  -5.225  0.00  0.00    +0.029 C 
ATOM     35  C   UNL     1      -1.719   5.967  -4.975  0.00  0.00    +0.002 C 
ATOM     36  C   UNL     1      -2.120   8.305  -4.629  0.00  0.00    +0.002 C 
ENDBRANCH  15  34
TORSDOF 2
ENDMDL
MODEL 2
REMARK VINA RESULT:       0.9      2.701      5.904
REMARK  Name = 
REMARK  2 active torsions:
REMARK  status: ('A' for Active; 'I' for Inactive)
REMARK    1  A    between atoms: C_20  and  C_21
REMARK    2  A    between atoms: C_30  and  C_31
REMARK                            x       y       z     vdW  Elec       q    Type
REMARK                         _______ _______ _______ _____ _____    ______ ____
ROOT
ATOM      1  C   UNL     1      -1.752   9.083   1.359  0.00  0.00    +0.032 C 
ATOM      2  C   UNL     1      -1.003   9.465   1.125  0.00  0.00    -0.005 C 
ATOM      3  C   UNL     1       0.048   8.874   0.531  0.00  0.00    +0.124 C 
ATOM      4  C   UNL     1       1.391   9.278   0.460  0.00  0.00    +0.280 C 
ATOM      5  O   UNL     1       1.251  10.462   0.998  0.00  0.00    -0.267 OA
ATOM      6  N   UNL     1       2.511   8.485   1.039  0.00  0.00    -0.191 NA
ATOM      7  C   UNL     1       2.896   8.393  -0.471  0.00  0.00    +0.194 C 
ATOM      8  C   UNL     1       4.232   7.467  -0.415  0.00  0.00    +0.337 C 
ATOM      9  O   UNL     1       5.054   7.731   0.472  0.00  0.00    -0.248 OA
ATOM     10  O   UNL     1       4.672   7.475  -1.769  0.00  0.00    -0.446 OA
ATOM     11  C   UNL     1       3.759   6.550  -2.593  0.00  0.00    +0.200 C 
ATOM     12  C   UNL     1       3.168   7.768  -3.531  0.00  0.00    +0.135 C 
ATOM     13  C   UNL     1       1.944   7.214  -4.211  0.00  0.00    +0.246 C 
ATOM     14  N   UNL     1       0.624   7.550  -3.759  0.00  0.00    -0.198 NA
ATOM     15  C   UNL     1      -0.382   6.358  -3.513  0.00  0.00    +0.173 C 
ATOM     16  C   UNL     1      -1.199   7.155  -2.372  0.00  0.00    +0.262 C 
ATOM     17  N   UNL     1      -0.878   6.776  -1.022  0.00  0.00    -0.195 NA
ATOM     18  C   UNL     1       0.680   6.940  -0.829  0.00  0.00    +0.185 C 
ATOM     19  C   UNL     1       0.984   5.432  -1.351  0.00  0.00    +0.100 C 
ATOM     20  S   UNL     1       1.745   4.347  -0.260  0.00  0.00    -0.080 S 
ATOM     21  S   UNL     1       3.038   2.938  -0.991  0.00  0.00    -0.082 S 
ATOM     22  C   UNL     1       4.659   3.714  -1.287  0.00  0.00    +0.073 C 
ATOM     23  C   UNL     1       4.722   3.882  -2.786  0.00  0.00    +0.038 C 
ATOM     24  C   UNL     1       5.510   5.084  -3.190  0.00  0.00    -0.026 C 
ATOM     25  C   UNL     1       0.761   6.477   0.723  0.00  0.00    +0.266 C 
ATOM     26  O   UNL     1       0.061   5.487   1.039  0.00  0.00    -0.271 OA
ATOM     27  O   UNL     1      -1.869   8.141  -2.674  0.00  0.00    -0.271 OA
ATOM     28  O   UNL     1       2.255   7.079  -5.438  0.00  0.00    -0.273 OA
ATOM     29  C   UNL     1       4.935   6.203  -3.654  0.00  0.00    +0.013 C 
ATOM     30  N   UNL     1       0.563   7.688   1.152  0.00  0.00    -0.173 NA
ENDROOT
BRANCH   7  31
ATOM     31  C   UNL     1       3.799   9.777  -0.437  0.00  0.00    +0.031 C 
ATOM     32  C   UNL     1       3.891  10.425   0.761  0.00  0.00    +0.002 C 
ATOM     33  C   UNL     1       3.161  10.813  -1.324  0.00  0.00    +0.002 C 
ENDBRANCH   7  31
BRANCH  15  34
ATOM     34  C   UNL     1      -1.418   6.780  -4.720  0.00  0.00    +0.029 C 
ATOM     35  C   UNL     1      -0.918   6.339  -6.028  0.00  0.00    +0.002 C 
ATOM     36  C   UNL     1      -2.662   5.939  -4.433  0.00  0.00    +0.002 C 
ENDBRANCH  15  34
TORSDOF 2
ENDMDL
MODEL 3
REMARK VINA RESULT:       2.4      2.620      5.653
REMARK  Name = 
REMARK  2 active torsions:
REMARK  status: ('A' for Active; 'I' for Inactive)
REMARK    1  A    between atoms: C_20  and  C_21
REMARK    2  A    between atoms: C_30  and  C_31
REMARK                            x       y       z     vdW  Elec       q    Type
REMARK                         _______ _______ _______ _____ _____    ______ ____
ROOT
ATOM      1  C   UNL     1      -3.449   6.703  -2.292  0.00  0.00    +0.032 C 
ATOM      2  C   UNL     1      -2.968   7.306  -1.884  0.00  0.00    -0.005 C 
ATOM      3  C   UNL     1      -1.658   7.227  -1.592  0.00  0.00    +0.124 C 
ATOM      4  C   UNL     1      -0.900   7.930  -0.643  0.00  0.00    +0.280 C 
ATOM      5  O   UNL     1      -1.823   8.778  -0.268  0.00  0.00    -0.267 OA
ATOM      6  N   UNL     1      -0.199   7.267   0.491  0.00  0.00    -0.191 NA
ATOM      7  C   UNL     1       1.042   7.810  -0.284  0.00  0.00    +0.194 C 
ATOM      8  C   UNL     1       2.269   7.263   0.632  0.00  0.00    +0.337 C 
ATOM      9  O   UNL     1       2.141   7.378   1.857  0.00  0.00    -0.248 OA
ATOM     10  O   UNL     1       3.407   7.855   0.013  0.00  0.00    -0.446 OA
ATOM     11  C   UNL     1       3.710   7.098  -1.293  0.00  0.00    +0.200 C 
ATOM     12  C   UNL     1       3.405   8.397  -2.259  0.00  0.00    +0.135 C 
ATOM     13  C   UNL     1       3.259   7.852  -3.655  0.00  0.00    +0.246 C 
ATOM     14  N   UNL     1       1.969   7.689  -4.260  0.00  0.00    -0.198 NA
ATOM     15  C   UNL     1       1.649   6.288  -4.916  0.00  0.00    +0.173 C 
ATOM     16  C   UNL     1       0.063   6.414  -4.644  0.00  0.00    +0.262 C 
ATOM     17  N   UNL     1      -0.418   5.665  -3.513  0.00  0.00    -0.195 NA
ATOM     18  C   UNL     1       0.416   6.107  -2.248  0.00  0.00    +0.185 C 
ATOM     19  C   UNL     1       1.572   4.999  -2.522  0.00  0.00    +0.100 C 
ATOM     20  S   UNL     1       1.836   3.805  -1.317  0.00  0.00    -0.080 S 
ATOM     21  S   UNL     1       3.732   3.091  -1.018  0.00  0.00    -0.082 S 
ATOM     22  C   UNL     1       4.660   4.275   0.008  0.00  0.00    +0.073 C 
ATOM     23  C   UNL     1       5.574   4.976  -0.968  0.00  0.00    +0.038 C 
ATOM     24  C   UNL     1       5.845   6.390  -0.577  0.00  0.00    -0.026 C 
ATOM     25  C   UNL     1      -0.314   5.155  -1.157  0.00  0.00    +0.266 C 
ATOM     26  O   UNL     1      -0.561   3.983  -1.528  0.00  0.00    -0.271 OA
ATOM     27  O   UNL     1      -0.597   7.258  -5.246  0.00  0.00    -0.271 OA
ATOM     28  O   UNL     1       4.291   8.239  -4.292  0.00  0.00    -0.273 OA
ATOM     29  C   UNL     1       5.294   7.435  -1.213  0.00  0.00    +0.013 C 
ATOM     30  N   UNL     1      -1.218   6.053  -0.897  0.00  0.00    -0.173 NA
ENDROOT
BRANCH   7  31
ATOM     31  C   UNL     1       1.038   9.262   0.508  0.00  0.00    +0.031 C 
ATOM     32  C   UNL     1       2.208   9.962   0.519  0.00  0.00    +0.002 C 
ATOM     33  C   UNL     1       0.778   9.031   1.973  0.00  0.00    +0.002 C 
ENDBRANCH   7  31
BRANCH  15  34
ATOM     34  C   UNL     1       1.552   6.859  -6.456  0.00  0.00    +0.029 C 
ATOM     35  C   UNL     1       2.883   7.162  -6.995  0.00  0.00    +0.002 C 
ATOM     36  C   UNL     1       1.034   5.658  -7.249  0.00  0.00    +0.002 C 
ENDBRANCH  15  34
TORSDOF 2
ENDMDL
