MODEL 1
REMARK VINA RESULT:      -5.3      0.000      0.000
REMARK  Name = 
REMARK  5 active torsions:
REMARK  status: ('A' for Active; 'I' for Inactive)
REMARK    1  A    between atoms: O_2  and  C_3
REMARK    2  A    between atoms: C_8  and  O_9
REMARK    3  A    between atoms: O_9  and  C_10
REMARK    4  A    between atoms: C_10  and  C_11
REMARK    5  A    between atoms: C_11  and  C_13
REMARK                            x       y       z     vdW  Elec       q    Type
REMARK                         _______ _______ _______ _____ _____    ______ ____
ROOT
ATOM      1  C   UNL     1      -0.176   5.280  -4.889  0.00  0.00    +0.172 A 
ATOM      2  C   UNL     1      -0.158   5.241  -6.276  0.00  0.00    +0.172 A 
ATOM      3  C   UNL     1      -1.384   5.335  -6.926  0.00  0.00    +0.040 A 
ATOM      4  C   UNL     1      -2.512   5.841  -6.292  0.00  0.00    +0.003 A 
ATOM      5  C   UNL     1      -2.346   6.366  -5.026  0.00  0.00    +0.003 A 
ATOM      6  C   UNL     1      -1.283   5.866  -4.300  0.00  0.00    +0.040 A 
ENDROOT
BRANCH   1   8
ATOM      7  C   UNL     1       1.228   5.801  -3.061  0.00  0.00    +0.253 C 
ATOM      8  O   UNL     1       1.072   5.246  -4.258  0.00  0.00    -0.468 OA
ENDBRANCH   1   8
BRANCH   2   9
ATOM      9  O   UNL     1       0.986   5.140  -7.029  0.00  0.00    -0.470 OA
BRANCH   9  10
ATOM     10  C   UNL     1       1.425   6.121  -7.966  0.00  0.00    +0.241 C 
BRANCH  10  11
ATOM     11  C   UNL     1       1.791   7.376  -6.936  0.00  0.00    +0.228 C 
ATOM     12  O   UNL     1       2.288   8.245  -8.093  0.00  0.00    -0.216 OA
BRANCH  11  13
ATOM     13  C   UNL     1       3.324   6.792  -6.656  0.00  0.00    +0.219 C 
ATOM     14  O   UNL     1       3.589   7.466  -5.469  0.00  0.00    -0.217 OA
ENDBRANCH  11  13
ENDBRANCH  10  11
ENDBRANCH   9  10
ENDBRANCH   2   9
TORSDOF 5
ENDMDL
MODEL 2
REMARK VINA RESULT:      -5.2      2.311      4.258
REMARK  Name = 
REMARK  5 active torsions:
REMARK  status: ('A' for Active; 'I' for Inactive)
REMARK    1  A    between atoms: O_2  and  C_3
REMARK    2  A    between atoms: C_8  and  O_9
REMARK    3  A    between atoms: O_9  and  C_10
REMARK    4  A    between atoms: C_10  and  C_11
REMARK    5  A    between atoms: C_11  and  C_13
REMARK                            x       y       z     vdW  Elec       q    Type
REMARK                         _______ _______ _______ _____ _____    ______ ____
ROOT
ATOM      1  C   UNL     1       0.048   5.028  -5.752  0.00  0.00    +0.172 A 
ATOM      2  C   UNL     1      -0.154   5.545  -4.480  0.00  0.00    +0.172 A 
ATOM      3  C   UNL     1      -1.116   6.542  -4.349  0.00  0.00    +0.040 A 
ATOM      4  C   UNL     1      -2.101   6.739  -5.309  0.00  0.00    +0.003 A 
ATOM      5  C   UNL     1      -2.170   5.828  -6.344  0.00  0.00    +0.003 A 
ATOM      6  C   UNL     1      -0.993   5.176  -6.654  0.00  0.00    +0.040 A 
ENDROOT
BRANCH   1   8
ATOM      7  C   UNL     1       2.147   4.188  -6.440  0.00  0.00    +0.253 C 
ATOM      8  O   UNL     1       0.974   3.985  -5.850  0.00  0.00    -0.468 OA
ENDBRANCH   1   8
BRANCH   2   9
ATOM      9  O   UNL     1       0.515   5.118  -3.360  0.00  0.00    -0.470 OA
BRANCH   9  10
ATOM     10  C   UNL     1       1.155   5.982  -2.423  0.00  0.00    +0.241 C 
BRANCH  10  11
ATOM     11  C   UNL     1       1.497   4.901  -1.205  0.00  0.00    +0.228 C 
ATOM     12  O   UNL     1       1.580   6.023  -0.166  0.00  0.00    -0.216 OA
BRANCH  11  13
ATOM     13  C   UNL     1       3.133   4.985  -1.494  0.00  0.00    +0.219 C 
ATOM     14  O   UNL     1       3.529   5.539  -0.281  0.00  0.00    -0.217 OA
ENDBRANCH  11  13
ENDBRANCH  10  11
ENDBRANCH   9  10
ENDBRANCH   2   9
TORSDOF 5
ENDMDL
MODEL 3
REMARK VINA RESULT:      -5.2      2.618      4.861
REMARK  Name = 
REMARK  5 active torsions:
REMARK  status: ('A' for Active; 'I' for Inactive)
REMARK    1  A    between atoms: O_2  and  C_3
REMARK    2  A    between atoms: C_8  and  O_9
REMARK    3  A    between atoms: O_9  and  C_10
REMARK    4  A    between atoms: C_10  and  C_11
REMARK    5  A    between atoms: C_11  and  C_13
REMARK                            x       y       z     vdW  Elec       q    Type
REMARK                         _______ _______ _______ _____ _____    ______ ____
ROOT
ATOM      1  C   UNL     1      -0.145   6.718  -5.417  0.00  0.00    +0.172 A 
ATOM      2  C   UNL     1      -1.335   7.059  -4.791  0.00  0.00    +0.172 A 
ATOM      3  C   UNL     1      -2.512   6.778  -5.475  0.00  0.00    +0.040 A 
ATOM      4  C   UNL     1      -2.551   5.859  -6.517  0.00  0.00    +0.003 A 
ATOM      5  C   UNL     1      -1.402   5.139  -6.771  0.00  0.00    +0.003 A 
ATOM      6  C   UNL     1      -0.217   5.739  -6.394  0.00  0.00    +0.040 A 
ENDROOT
BRANCH   1   8
ATOM      7  C   UNL     1       1.812   5.939  -4.344  0.00  0.00    +0.253 C 
ATOM      8  O   UNL     1       1.024   6.952  -4.685  0.00  0.00    -0.468 OA
ENDBRANCH   1   8
BRANCH   2   9
ATOM      9  O   UNL     1      -1.413   7.628  -3.543  0.00  0.00    -0.470 OA
BRANCH   9  10
ATOM     10  C   UNL     1      -2.219   7.130  -2.478  0.00  0.00    +0.241 C 
BRANCH  10  11
ATOM     11  C   UNL     1      -1.346   5.781  -2.046  0.00  0.00    +0.228 C 
ATOM     12  O   UNL     1      -2.621   4.956  -1.855  0.00  0.00    -0.216 OA
BRANCH  11  13
ATOM     13  C   UNL     1      -1.332   6.217  -0.441  0.00  0.00    +0.219 C 
ATOM     14  O   UNL     1      -2.377   7.134  -0.467  0.00  0.00    -0.217 OA
ENDBRANCH  11  13
ENDBRANCH  10  11
ENDBRANCH   9  10
ENDBRANCH   2   9
TORSDOF 5
ENDMDL
MODEL 4
REMARK VINA RESULT:      -5.1      4.983      7.693
REMARK  Name = 
REMARK  5 active torsions:
REMARK  status: ('A' for Active; 'I' for Inactive)
REMARK    1  A    between atoms: O_2  and  C_3
REMARK    2  A    between atoms: C_8  and  O_9
REMARK    3  A    between atoms: O_9  and  C_10
REMARK    4  A    between atoms: C_10  and  C_11
REMARK    5  A    between atoms: C_11  and  C_13
REMARK                            x       y       z     vdW  Elec       q    Type
REMARK                         _______ _______ _______ _____ _____    ______ ____
ROOT
ATOM      1  C   UNL     1       5.210   5.828  -9.650  0.00  0.00    +0.172 A 
ATOM      2  C   UNL     1       4.861   6.641 -10.718  0.00  0.00    +0.172 A 
ATOM      3  C   UNL     1       5.801   7.580 -11.131  0.00  0.00    +0.040 A 
ATOM      4  C   UNL     1       7.144   7.467 -10.795  0.00  0.00    +0.003 A 
ATOM      5  C   UNL     1       7.540   6.320 -10.139  0.00  0.00    +0.003 A 
ATOM      6  C   UNL     1       6.564   5.679  -9.400  0.00  0.00    +0.040 A 
ENDROOT
BRANCH   1   8
ATOM      7  C   UNL     1       3.697   4.887  -8.097  0.00  0.00    +0.253 C 
ATOM      8  O   UNL     1       4.276   4.850  -9.292  0.00  0.00    -0.468 OA
ENDBRANCH   1   8
BRANCH   2   9
ATOM      9  O   UNL     1       3.669   6.555 -11.394  0.00  0.00    -0.470 OA
BRANCH   9  10
ATOM     10  C   UNL     1       3.465   5.786 -12.577  0.00  0.00    +0.241 C 
BRANCH  10  11
ATOM     11  C   UNL     1       1.911   6.238 -12.965  0.00  0.00    +0.228 C 
ATOM     12  O   UNL     1       1.342   5.507 -11.747  0.00  0.00    -0.216 OA
BRANCH  11  13
ATOM     13  C   UNL     1       1.688   4.902 -13.930  0.00  0.00    +0.219 C 
ATOM     14  O   UNL     1       2.993   4.755 -14.387  0.00  0.00    -0.217 OA
ENDBRANCH  11  13
ENDBRANCH  10  11
ENDBRANCH   9  10
ENDBRANCH   2   9
TORSDOF 5
ENDMDL
MODEL 5
REMARK VINA RESULT:      -5.0      3.933      7.177
REMARK  Name = 
REMARK  5 active torsions:
REMARK  status: ('A' for Active; 'I' for Inactive)
REMARK    1  A    between atoms: O_2  and  C_3
REMARK    2  A    between atoms: C_8  and  O_9
REMARK    3  A    between atoms: O_9  and  C_10
REMARK    4  A    between atoms: C_10  and  C_11
REMARK    5  A    between atoms: C_11  and  C_13
REMARK                            x       y       z     vdW  Elec       q    Type
REMARK                         _______ _______ _______ _____ _____    ______ ____
ROOT
ATOM      1  C   UNL     1       4.982   6.500 -10.775  0.00  0.00    +0.172 A 
ATOM      2  C   UNL     1       5.565   5.709  -9.796  0.00  0.00    +0.172 A 
ATOM      3  C   UNL     1       6.953   5.725  -9.714  0.00  0.00    +0.040 A 
ATOM      4  C   UNL     1       7.707   6.749 -10.275  0.00  0.00    +0.003 A 
ATOM      5  C   UNL     1       7.022   7.820 -10.812  0.00  0.00    +0.003 A 
ATOM      6  C   UNL     1       5.738   7.559 -11.249  0.00  0.00    +0.040 A 
ENDROOT
BRANCH   1   8
ATOM      7  C   UNL     1       2.925   5.864 -11.751  0.00  0.00    +0.253 C 
ATOM      8  O   UNL     1       3.583   6.516 -10.800  0.00  0.00    -0.468 OA
ENDBRANCH   1   8
BRANCH   2   9
ATOM      9  O   UNL     1       4.857   4.942  -8.904  0.00  0.00    -0.470 OA
BRANCH   9  10
ATOM     10  C   UNL     1       4.334   5.419  -7.665  0.00  0.00    +0.241 C 
BRANCH  10  11
ATOM     11  C   UNL     1       2.753   4.916  -7.794  0.00  0.00    +0.228 C 
ATOM     12  O   UNL     1       2.238   6.356  -7.725  0.00  0.00    -0.216 OA
BRANCH  11  13
ATOM     13  C   UNL     1       2.604   4.735  -6.147  0.00  0.00    +0.219 C 
ATOM     14  O   UNL     1       1.497   3.893  -6.131  0.00  0.00    -0.217 OA
ENDBRANCH  11  13
ENDBRANCH  10  11
ENDBRANCH   9  10
ENDBRANCH   2   9
TORSDOF 5
ENDMDL
MODEL 6
REMARK VINA RESULT:      -4.9      2.067      3.335
REMARK  Name = 
REMARK  5 active torsions:
REMARK  status: ('A' for Active; 'I' for Inactive)
REMARK    1  A    between atoms: O_2  and  C_3
REMARK    2  A    between atoms: C_8  and  O_9
REMARK    3  A    between atoms: O_9  and  C_10
REMARK    4  A    between atoms: C_10  and  C_11
REMARK    5  A    between atoms: C_11  and  C_13
REMARK                            x       y       z     vdW  Elec       q    Type
REMARK                         _______ _______ _______ _____ _____    ______ ____
ROOT
ATOM      1  C   UNL     1      -0.021   5.180  -5.984  0.00  0.00    +0.172 A 
ATOM      2  C   UNL     1      -0.054   5.900  -4.799  0.00  0.00    +0.172 A 
ATOM      3  C   UNL     1      -1.061   6.851  -4.665  0.00  0.00    +0.040 A 
ATOM      4  C   UNL     1      -2.203   6.823  -5.455  0.00  0.00    +0.003 A 
ATOM      5  C   UNL     1      -2.365   5.743  -6.299  0.00  0.00    +0.003 A 
ATOM      6  C   UNL     1      -1.205   5.111  -6.701  0.00  0.00    +0.040 A 
ENDROOT
BRANCH   1   8
ATOM      7  C   UNL     1       1.989   4.339  -6.899  0.00  0.00    +0.253 C 
ATOM      8  O   UNL     1       0.960   4.188  -6.073  0.00  0.00    -0.468 OA
ENDBRANCH   1   8
BRANCH   2   9
ATOM      9  O   UNL     1       0.824   5.713  -3.760  0.00  0.00    -0.470 OA
BRANCH   9  10
ATOM     10  C   UNL     1       1.978   6.515  -3.524  0.00  0.00    +0.241 C 
BRANCH  10  11
ATOM     11  C   UNL     1       3.080   5.339  -3.106  0.00  0.00    +0.228 C 
ATOM     12  O   UNL     1       3.711   6.239  -2.041  0.00  0.00    -0.216 OA
BRANCH  11  13
ATOM     13  C   UNL     1       4.169   5.854  -4.253  0.00  0.00    +0.219 C 
ATOM     14  O   UNL     1       4.882   4.670  -4.409  0.00  0.00    -0.217 OA
ENDBRANCH  11  13
ENDBRANCH  10  11
ENDBRANCH   9  10
ENDBRANCH   2   9
TORSDOF 5
ENDMDL
MODEL 7
REMARK VINA RESULT:      -4.9      1.646      2.367
REMARK  Name = 
REMARK  5 active torsions:
REMARK  status: ('A' for Active; 'I' for Inactive)
REMARK    1  A    between atoms: O_2  and  C_3
REMARK    2  A    between atoms: C_8  and  O_9
REMARK    3  A    between atoms: O_9  and  C_10
REMARK    4  A    between atoms: C_10  and  C_11
REMARK    5  A    between atoms: C_11  and  C_13
REMARK                            x       y       z     vdW  Elec       q    Type
REMARK                         _______ _______ _______ _____ _____    ______ ____
ROOT
ATOM      1  C   UNL     1      -1.257   5.764  -4.198  0.00  0.00    +0.172 A 
ATOM      2  C   UNL     1      -0.051   5.627  -4.869  0.00  0.00    +0.172 A 
ATOM      3  C   UNL     1      -0.105   5.142  -6.172  0.00  0.00    +0.040 A 
ATOM      4  C   UNL     1      -1.278   5.171  -6.916  0.00  0.00    +0.003 A 
ATOM      5  C   UNL     1      -2.365   5.815  -6.361  0.00  0.00    +0.003 A 
ATOM      6  C   UNL     1      -2.394   5.872  -4.981  0.00  0.00    +0.040 A 
ENDROOT
BRANCH   1   8
ATOM      7  C   UNL     1      -2.062   7.235  -2.532  0.00  0.00    +0.253 C 
ATOM      8  O   UNL     1      -1.186   6.312  -2.913  0.00  0.00    -0.468 OA
ENDBRANCH   1   8
BRANCH   2   9
ATOM      9  O   UNL     1       1.169   5.960  -4.335  0.00  0.00    -0.470 OA
BRANCH   9  10
ATOM     10  C   UNL     1       2.426   5.622  -4.919  0.00  0.00    +0.241 C 
BRANCH  10  11
ATOM     11  C   UNL     1       3.269   7.032  -4.653  0.00  0.00    +0.228 C 
ATOM     12  O   UNL     1       3.174   7.424  -6.130  0.00  0.00    -0.216 OA
BRANCH  11  13
ATOM     13  C   UNL     1       4.734   6.284  -4.898  0.00  0.00    +0.219 C 
ATOM     14  O   UNL     1       4.662   5.347  -3.873  0.00  0.00    -0.217 OA
ENDBRANCH  11  13
ENDBRANCH  10  11
ENDBRANCH   9  10
ENDBRANCH   2   9
TORSDOF 5
ENDMDL
MODEL 8
REMARK VINA RESULT:      -4.9      5.439      8.613
REMARK  Name = 
REMARK  5 active torsions:
REMARK  status: ('A' for Active; 'I' for Inactive)
REMARK    1  A    between atoms: O_2  and  C_3
REMARK    2  A    between atoms: C_8  and  O_9
REMARK    3  A    between atoms: O_9  and  C_10
REMARK    4  A    between atoms: C_10  and  C_11
REMARK    5  A    between atoms: C_11  and  C_13
REMARK                            x       y       z     vdW  Elec       q    Type
REMARK                         _______ _______ _______ _____ _____    ______ ____
ROOT
ATOM      1  C   UNL     1       5.997   5.324 -12.217  0.00  0.00    +0.172 A 
ATOM      2  C   UNL     1       6.396   5.742 -10.956  0.00  0.00    +0.172 A 
ATOM      3  C   UNL     1       7.764   5.780 -10.706  0.00  0.00    +0.040 A 
ATOM      4  C   UNL     1       8.695   5.803 -11.737  0.00  0.00    +0.003 A 
ATOM      5  C   UNL     1       8.213   5.911 -13.025  0.00  0.00    +0.003 A 
ATOM      6  C   UNL     1       6.932   5.440 -13.233  0.00  0.00    +0.040 A 
ENDROOT
BRANCH   1   8
ATOM      7  C   UNL     1       4.171   5.405 -13.716  0.00  0.00    +0.253 C 
ATOM      8  O   UNL     1       4.621   5.352 -12.467  0.00  0.00    -0.468 OA
ENDBRANCH   1   8
BRANCH   2   9
ATOM      9  O   UNL     1       5.529   6.134  -9.965  0.00  0.00    -0.470 OA
BRANCH   9  10
ATOM     10  C   UNL     1       5.247   5.375  -8.792  0.00  0.00    +0.241 C 
BRANCH  10  11
ATOM     11  C   UNL     1       3.758   5.995  -8.385  0.00  0.00    +0.228 C 
ATOM     12  O   UNL     1       3.608   5.007  -7.226  0.00  0.00    -0.216 OA
BRANCH  11  13
ATOM     13  C   UNL     1       2.966   4.967  -9.426  0.00  0.00    +0.219 C 
ATOM     14  O   UNL     1       3.232   3.767  -8.774  0.00  0.00    -0.217 OA
ENDBRANCH  11  13
ENDBRANCH  10  11
ENDBRANCH   9  10
ENDBRANCH   2   9
TORSDOF 5
ENDMDL
MODEL 9
REMARK VINA RESULT:      -4.9      4.735      6.274
REMARK  Name = 
REMARK  5 active torsions:
REMARK  status: ('A' for Active; 'I' for Inactive)
REMARK    1  A    between atoms: O_2  and  C_3
REMARK    2  A    between atoms: C_8  and  O_9
REMARK    3  A    between atoms: O_9  and  C_10
REMARK    4  A    between atoms: C_10  and  C_11
REMARK    5  A    between atoms: C_11  and  C_13
REMARK                            x       y       z     vdW  Elec       q    Type
REMARK                         _______ _______ _______ _____ _____    ______ ____
ROOT
ATOM      1  C   UNL     1       1.932   6.230  -9.747  0.00  0.00    +0.172 A 
ATOM      2  C   UNL     1       2.643   6.147 -10.936  0.00  0.00    +0.172 A 
ATOM      3  C   UNL     1       1.928   5.803 -12.078  0.00  0.00    +0.040 A 
ATOM      4  C   UNL     1       0.545   5.927 -12.140  0.00  0.00    +0.003 A 
ATOM      5  C   UNL     1      -0.087   6.524 -11.069  0.00  0.00    +0.003 A 
ATOM      6  C   UNL     1       0.567   6.435  -9.855  0.00  0.00    +0.040 A 
ENDROOT
BRANCH   1   8
ATOM      7  C   UNL     1       2.194   7.610  -7.847  0.00  0.00    +0.253 C 
ATOM      8  O   UNL     1       2.658   6.638  -8.624  0.00  0.00    -0.468 OA
ENDBRANCH   1   8
BRANCH   2   9
ATOM      9  O   UNL     1       3.987   6.405 -11.048  0.00  0.00    -0.470 OA
BRANCH   9  10
ATOM     10  C   UNL     1       4.992   5.404 -11.198  0.00  0.00    +0.241 C 
BRANCH  10  11
ATOM     11  C   UNL     1       5.742   5.939 -12.585  0.00  0.00    +0.228 C 
ATOM     12  O   UNL     1       5.305   4.694 -13.360  0.00  0.00    -0.216 OA
BRANCH  11  13
ATOM     13  C   UNL     1       7.185   5.228 -12.162  0.00  0.00    +0.219 C 
ATOM     14  O   UNL     1       7.586   4.808 -13.426  0.00  0.00    -0.217 OA
ENDBRANCH  11  13
ENDBRANCH  10  11
ENDBRANCH   9  10
ENDBRANCH   2   9
TORSDOF 5
ENDMDL
