MODEL 1
REMARK VINA RESULT:      -9.4      0.000      0.000
REMARK  Name = 
REMARK  5 active torsions:
REMARK  status: ('A' for Active; 'I' for Inactive)
REMARK    1  A    between atoms: C_2  and  O_3
REMARK    2  A    between atoms: C_2  and  C_16
REMARK    3  A    between atoms: O_3  and  C_4
REMARK    4  A    between atoms: C_16  and  C_18
REMARK    5  A    between atoms: C_16  and  C_24
REMARK                            x       y       z     vdW  Elec       q    Type
REMARK                         _______ _______ _______ _____ _____    ______ ____
ROOT
ATOM      1  O   UNL     1       2.817   7.008  -9.346  0.00  0.00    -0.247 OA
ATOM      2  C   UNL     1       3.027   6.779  -9.276  0.00  0.00    +0.353 C 
ENDROOT
BRANCH   2   3
ATOM      3  C   UNL     1       3.709   5.962 -10.297  0.00  0.00    +0.252 C 
ATOM      4  O   UNL     1       3.653   4.616  -9.897  0.00  0.00    -0.205 OA
BRANCH   3   5
ATOM      5  C   UNL     1       5.110   6.427 -10.339  0.00  0.00    +0.019 A 
ATOM      6  C   UNL     1       5.560   7.466 -11.104  0.00  0.00    -0.001 A 
ATOM      7  C   UNL     1       6.859   7.905 -10.979  0.00  0.00    -0.000 A 
ATOM      8  C   UNL     1       7.761   7.052 -10.376  0.00  0.00    -0.000 A 
ATOM      9  C   UNL     1       7.348   5.992  -9.578  0.00  0.00    -0.000 A 
ATOM     10  C   UNL     1       6.029   5.656  -9.672  0.00  0.00    -0.001 A 
ENDBRANCH   3   5
BRANCH   3  11
ATOM     11  C   UNL     1       3.156   6.030 -11.639  0.00  0.00    +0.019 A 
ATOM     12  C   UNL     1       1.850   6.443 -11.909  0.00  0.00    -0.001 A 
ATOM     13  C   UNL     1       1.246   6.048 -13.091  0.00  0.00    -0.000 A 
ATOM     14  C   UNL     1       1.935   5.321 -14.050  0.00  0.00    -0.000 A 
ATOM     15  C   UNL     1       3.276   5.032 -13.856  0.00  0.00    -0.000 A 
ATOM     16  C   UNL     1       3.862   5.548 -12.732  0.00  0.00    -0.001 A 
ENDBRANCH   3  11
ENDBRANCH   2   3
BRANCH   2  17
ATOM     17  O   UNL     1       2.449   6.421  -8.109  0.00  0.00    -0.450 OA
BRANCH  17  18
ATOM     18  C   UNL     1       3.280   6.624  -6.820  0.00  0.00    +0.180 C 
ATOM     19  C   UNL     1       3.419   5.019  -6.577  0.00  0.00    +0.099 C 
ATOM     20  C   UNL     1       3.314   4.757  -4.958  0.00  0.00    +0.062 C 
ATOM     21  N   UNL     1       3.670   6.168  -4.466  0.00  0.00    +0.289 N 
ATOM     22  C   UNL     1       2.404   7.028  -4.450  0.00  0.00    +0.062 C 
ATOM     23  C   UNL     1       1.522   5.785  -3.820  0.00  0.00    +0.061 C 
ATOM     24  C   UNL     1       3.780   5.886  -3.023  0.00  0.00    +0.108 C 
ATOM     25  C   UNL     1       4.355   7.179  -2.472  0.00  0.00    +0.067 C 
ATOM     26  C   UNL     1       5.060   7.739  -3.690  0.00  0.00    +0.067 C 
ATOM     27  C   UNL     1       4.839   6.698  -4.774  0.00  0.00    +0.108 C 
ATOM     28  C   UNL     1       1.673   4.882  -4.943  0.00  0.00    +0.061 C 
ATOM     29  C   UNL     1       1.881   6.770  -5.985  0.00  0.00    +0.099 C 
ENDBRANCH  17  18
ENDBRANCH   2  17
TORSDOF 5
ENDMDL
MODEL 2
REMARK VINA RESULT:      -9.3      2.640      5.777
REMARK  Name = 
REMARK  5 active torsions:
REMARK  status: ('A' for Active; 'I' for Inactive)
REMARK    1  A    between atoms: C_2  and  O_3
REMARK    2  A    between atoms: C_2  and  C_16
REMARK    3  A    between atoms: O_3  and  C_4
REMARK    4  A    between atoms: C_16  and  C_18
REMARK    5  A    between atoms: C_16  and  C_24
REMARK                            x       y       z     vdW  Elec       q    Type
REMARK                         _______ _______ _______ _____ _____    ______ ____
ROOT
ATOM      1  O   UNL     1       1.916   5.181  -6.678  0.00  0.00    -0.247 OA
ATOM      2  C   UNL     1       1.918   5.475  -6.802  0.00  0.00    +0.353 C 
ENDROOT
BRANCH   2   3
ATOM      3  C   UNL     1       3.069   6.392  -6.696  0.00  0.00    +0.252 C 
ATOM      4  O   UNL     1       2.590   7.711  -6.760  0.00  0.00    -0.205 OA
BRANCH   3   5
ATOM      5  C   UNL     1       3.941   6.105  -7.852  0.00  0.00    +0.019 A 
ATOM      6  C   UNL     1       5.120   5.416  -7.783  0.00  0.00    -0.001 A 
ATOM      7  C   UNL     1       5.799   5.090  -8.936  0.00  0.00    -0.000 A 
ATOM      8  C   UNL     1       5.475   5.788 -10.081  0.00  0.00    -0.000 A 
ATOM      9  C   UNL     1       4.280   6.489 -10.201  0.00  0.00    -0.000 A 
ATOM     10  C   UNL     1       3.600   6.707  -9.038  0.00  0.00    -0.001 A 
ENDBRANCH   3   5
BRANCH   3  11
ATOM     11  C   UNL     1       3.857   6.285  -5.480  0.00  0.00    +0.019 A 
ATOM     12  C   UNL     1       3.970   5.106  -4.741  0.00  0.00    -0.001 A 
ATOM     13  C   UNL     1       4.316   5.177  -3.402  0.00  0.00    -0.000 A 
ATOM     14  C   UNL     1       4.635   6.384  -2.798  0.00  0.00    -0.000 A 
ATOM     15  C   UNL     1       4.669   7.541  -3.560  0.00  0.00    -0.000 A 
ATOM     16  C   UNL     1       4.441   7.403  -4.902  0.00  0.00    -0.001 A 
ENDBRANCH   3  11
ENDBRANCH   2   3
BRANCH   2  17
ATOM     17  O   UNL     1       0.597   5.702  -6.635  0.00  0.00    -0.450 OA
BRANCH  17  18
ATOM     18  C   UNL     1       0.044   5.603  -5.194  0.00  0.00    +0.180 C 
ATOM     19  C   UNL     1      -1.417   5.103  -5.717  0.00  0.00    +0.099 C 
ATOM     20  C   UNL     1      -2.549   5.803  -4.754  0.00  0.00    +0.062 C 
ATOM     21  N   UNL     1      -1.660   6.135  -3.546  0.00  0.00    +0.289 N 
ATOM     22  C   UNL     1      -0.973   7.482  -3.785  0.00  0.00    +0.062 C 
ATOM     23  C   UNL     1      -2.363   8.127  -4.396  0.00  0.00    +0.061 C 
ATOM     24  C   UNL     1      -2.708   6.572  -2.605  0.00  0.00    +0.108 C 
ATOM     25  C   UNL     1      -1.948   6.707  -1.297  0.00  0.00    +0.067 C 
ATOM     26  C   UNL     1      -0.791   5.756  -1.521  0.00  0.00    +0.067 C 
ATOM     27  C   UNL     1      -1.038   5.168  -2.900  0.00  0.00    +0.108 C 
ATOM     28  C   UNL     1      -2.471   7.247  -5.542  0.00  0.00    +0.061 C 
ATOM     29  C   UNL     1      -0.322   7.196  -5.265  0.00  0.00    +0.099 C 
ENDBRANCH  17  18
ENDBRANCH   2  17
TORSDOF 5
ENDMDL
MODEL 3
REMARK VINA RESULT:      -9.3      2.636      3.790
REMARK  Name = 
REMARK  5 active torsions:
REMARK  status: ('A' for Active; 'I' for Inactive)
REMARK    1  A    between atoms: C_2  and  O_3
REMARK    2  A    between atoms: C_2  and  C_16
REMARK    3  A    between atoms: O_3  and  C_4
REMARK    4  A    between atoms: C_16  and  C_18
REMARK    5  A    between atoms: C_16  and  C_24
REMARK                            x       y       z     vdW  Elec       q    Type
REMARK                         _______ _______ _______ _____ _____    ______ ____
ROOT
ATOM      1  O   UNL     1       2.323   6.662  -7.138  0.00  0.00    -0.247 OA
ATOM      2  C   UNL     1       2.144   6.400  -7.176  0.00  0.00    +0.353 C 
ENDROOT
BRANCH   2   3
ATOM      3  C   UNL     1       2.314   5.458  -8.298  0.00  0.00    +0.252 C 
ATOM      4  O   UNL     1       2.333   4.152  -7.779  0.00  0.00    -0.205 OA
BRANCH   3   5
ATOM      5  C   UNL     1       3.611   5.781  -8.924  0.00  0.00    +0.019 A 
ATOM      6  C   UNL     1       3.761   6.545 -10.047  0.00  0.00    -0.001 A 
ATOM      7  C   UNL     1       5.021   6.896 -10.482  0.00  0.00    -0.000 A 
ATOM      8  C   UNL     1       6.084   6.159 -10.002  0.00  0.00    -0.000 A 
ATOM      9  C   UNL     1       5.980   5.381  -8.855  0.00  0.00    -0.000 A 
ATOM     10  C   UNL     1       4.712   5.139  -8.413  0.00  0.00    -0.001 A 
ENDBRANCH   3   5
BRANCH   3  11
ATOM     11  C   UNL     1       1.281   5.494  -9.320  0.00  0.00    +0.019 A 
ATOM     12  C   UNL     1       0.950   4.392 -10.112  0.00  0.00    -0.001 A 
ATOM     13  C   UNL     1       0.334   4.600 -11.335  0.00  0.00    -0.000 A 
ATOM     14  C   UNL     1      -0.038   5.868 -11.754  0.00  0.00    -0.000 A 
ATOM     15  C   UNL     1       0.154   6.951 -10.911  0.00  0.00    -0.000 A 
ATOM     16  C   UNL     1       0.653   6.681  -9.665  0.00  0.00    -0.001 A 
ENDBRANCH   3  11
ENDBRANCH   2   3
BRANCH   2  17
ATOM     17  O   UNL     1       1.024   6.923  -6.630  0.00  0.00    -0.450 OA
BRANCH  17  18
ATOM     18  C   UNL     1       0.552   6.323  -5.284  0.00  0.00    +0.180 C 
ATOM     19  C   UNL     1      -0.522   5.344  -6.021  0.00  0.00    +0.099 C 
ATOM     20  C   UNL     1      -1.862   5.283  -5.072  0.00  0.00    +0.062 C 
ATOM     21  N   UNL     1      -1.234   5.737  -3.745  0.00  0.00    +0.289 N 
ATOM     22  C   UNL     1      -1.219   7.267  -3.696  0.00  0.00    +0.062 C 
ATOM     23  C   UNL     1      -2.741   7.341  -4.326  0.00  0.00    +0.061 C 
ATOM     24  C   UNL     1      -2.380   5.486  -2.853  0.00  0.00    +0.108 C 
ATOM     25  C   UNL     1      -1.780   5.691  -1.473  0.00  0.00    +0.067 C 
ATOM     26  C   UNL     1      -0.316   5.403  -1.734  0.00  0.00    +0.067 C 
ATOM     27  C   UNL     1      -0.254   5.037  -3.206  0.00  0.00    +0.108 C 
ATOM     28  C   UNL     1      -2.426   6.735  -5.604  0.00  0.00    +0.061 C 
ATOM     29  C   UNL     1      -0.487   7.578  -5.132  0.00  0.00    +0.099 C 
ENDBRANCH  17  18
ENDBRANCH   2  17
TORSDOF 5
ENDMDL
MODEL 4
REMARK VINA RESULT:      -9.3      2.685      4.972
REMARK  Name = 
REMARK  5 active torsions:
REMARK  status: ('A' for Active; 'I' for Inactive)
REMARK    1  A    between atoms: C_2  and  O_3
REMARK    2  A    between atoms: C_2  and  C_16
REMARK    3  A    between atoms: O_3  and  C_4
REMARK    4  A    between atoms: C_16  and  C_18
REMARK    5  A    between atoms: C_16  and  C_24
REMARK                            x       y       z     vdW  Elec       q    Type
REMARK                         _______ _______ _______ _____ _____    ______ ____
ROOT
ATOM      1  O   UNL     1       2.285   6.570  -7.046  0.00  0.00    -0.247 OA
ATOM      2  C   UNL     1       2.096   6.537  -7.302  0.00  0.00    +0.353 C 
ENDROOT
BRANCH   2   3
ATOM      3  C   UNL     1       2.577   6.681  -8.688  0.00  0.00    +0.252 C 
ATOM      4  O   UNL     1       2.702   8.052  -8.972  0.00  0.00    -0.205 OA
BRANCH   3   5
ATOM      5  C   UNL     1       1.550   6.070  -9.554  0.00  0.00    +0.019 A 
ATOM      6  C   UNL     1       1.389   4.724  -9.735  0.00  0.00    -0.001 A 
ATOM      7  C   UNL     1       0.322   4.247 -10.464  0.00  0.00    -0.000 A 
ATOM      8  C   UNL     1      -0.325   5.137 -11.296  0.00  0.00    -0.000 A 
ATOM      9  C   UNL     1      -0.202   6.512 -11.139  0.00  0.00    -0.000 A 
ATOM     10  C   UNL     1       0.817   6.930 -10.334  0.00  0.00    -0.001 A 
ENDBRANCH   3   5
BRANCH   3  11
ATOM     11  C   UNL     1       3.861   6.068  -8.984  0.00  0.00    +0.019 A 
ATOM     12  C   UNL     1       4.539   5.239  -8.087  0.00  0.00    -0.001 A 
ATOM     13  C   UNL     1       5.908   5.081  -8.215  0.00  0.00    -0.000 A 
ATOM     14  C   UNL     1       6.611   5.659  -9.261  0.00  0.00    -0.000 A 
ATOM     15  C   UNL     1       5.926   6.362 -10.239  0.00  0.00    -0.000 A 
ATOM     16  C   UNL     1       4.561   6.387 -10.138  0.00  0.00    -0.001 A 
ENDBRANCH   3  11
ENDBRANCH   2   3
BRANCH   2  17
ATOM     17  O   UNL     1       0.980   7.009  -6.706  0.00  0.00    -0.450 OA
BRANCH  17  18
ATOM     18  C   UNL     1       0.582   6.372  -5.354  0.00  0.00    +0.180 C 
ATOM     19  C   UNL     1      -0.492   5.373  -6.064  0.00  0.00    +0.099 C 
ATOM     20  C   UNL     1      -1.790   5.254  -5.063  0.00  0.00    +0.062 C 
ATOM     21  N   UNL     1      -1.122   5.705  -3.755  0.00  0.00    +0.289 N 
ATOM     22  C   UNL     1      -1.150   7.234  -3.678  0.00  0.00    +0.062 C 
ATOM     23  C   UNL     1      -2.699   7.272  -4.245  0.00  0.00    +0.061 C 
ATOM     24  C   UNL     1      -2.222   5.404  -2.821  0.00  0.00    +0.108 C 
ATOM     25  C   UNL     1      -1.573   5.604  -1.463  0.00  0.00    +0.067 C 
ATOM     26  C   UNL     1      -0.113   5.366  -1.788  0.00  0.00    +0.067 C 
ATOM     27  C   UNL     1      -0.100   5.027  -3.269  0.00  0.00    +0.108 C 
ATOM     28  C   UNL     1      -2.419   6.697  -5.545  0.00  0.00    +0.061 C 
ATOM     29  C   UNL     1      -0.488   7.591  -5.137  0.00  0.00    +0.099 C 
ENDBRANCH  17  18
ENDBRANCH   2  17
TORSDOF 5
ENDMDL
MODEL 5
REMARK VINA RESULT:      -9.2      2.460      4.910
REMARK  Name = 
REMARK  5 active torsions:
REMARK  status: ('A' for Active; 'I' for Inactive)
REMARK    1  A    between atoms: C_2  and  O_3
REMARK    2  A    between atoms: C_2  and  C_16
REMARK    3  A    between atoms: O_3  and  C_4
REMARK    4  A    between atoms: C_16  and  C_18
REMARK    5  A    between atoms: C_16  and  C_24
REMARK                            x       y       z     vdW  Elec       q    Type
REMARK                         _______ _______ _______ _____ _____    ______ ____
ROOT
ATOM      1  O   UNL     1       2.035   7.040  -7.431  0.00  0.00    -0.247 OA
ATOM      2  C   UNL     1       2.068   6.836  -7.188  0.00  0.00    +0.353 C 
ENDROOT
BRANCH   2   3
ATOM      3  C   UNL     1       3.059   5.743  -7.178  0.00  0.00    +0.252 C 
ATOM      4  O   UNL     1       2.368   4.520  -7.202  0.00  0.00    -0.205 OA
BRANCH   3   5
ATOM      5  C   UNL     1       3.820   5.878  -5.921  0.00  0.00    +0.019 A 
ATOM      6  C   UNL     1       3.996   4.875  -5.009  0.00  0.00    -0.001 A 
ATOM      7  C   UNL     1       4.829   5.062  -3.927  0.00  0.00    -0.000 A 
ATOM      8  C   UNL     1       5.152   6.361  -3.594  0.00  0.00    -0.000 A 
ATOM      9  C   UNL     1       5.004   7.409  -4.494  0.00  0.00    -0.000 A 
ATOM     10  C   UNL     1       4.243   7.143  -5.596  0.00  0.00    -0.001 A 
ENDBRANCH   3   5
BRANCH   3  11
ATOM     11  C   UNL     1       3.996   5.724  -8.289  0.00  0.00    +0.019 A 
ATOM     12  C   UNL     1       5.269   5.158  -8.208  0.00  0.00    -0.001 A 
ATOM     13  C   UNL     1       6.251   5.573  -9.091  0.00  0.00    -0.000 A 
ATOM     14  C   UNL     1       5.979   6.475 -10.108  0.00  0.00    -0.000 A 
ATOM     15  C   UNL     1       4.683   6.931 -10.289  0.00  0.00    -0.000 A 
ATOM     16  C   UNL     1       3.723   6.399  -9.470  0.00  0.00    -0.001 A 
ENDBRANCH   3  11
ENDBRANCH   2   3
BRANCH   2  17
ATOM     17  O   UNL     1       0.767   6.844  -6.824  0.00  0.00    -0.450 OA
BRANCH  17  18
ATOM     18  C   UNL     1       0.423   6.271  -5.429  0.00  0.00    +0.180 C 
ATOM     19  C   UNL     1      -0.751   5.317  -6.037  0.00  0.00    +0.099 C 
ATOM     20  C   UNL     1      -1.984   5.305  -4.951  0.00  0.00    +0.062 C 
ATOM     21  N   UNL     1      -1.207   5.752  -3.704  0.00  0.00    +0.289 N 
ATOM     22  C   UNL     1      -1.142   7.281  -3.675  0.00  0.00    +0.062 C 
ATOM     23  C   UNL     1      -2.720   7.395  -4.142  0.00  0.00    +0.061 C 
ATOM     24  C   UNL     1      -2.259   5.544  -2.692  0.00  0.00    +0.108 C 
ATOM     25  C   UNL     1      -1.511   5.743  -1.386  0.00  0.00    +0.067 C 
ATOM     26  C   UNL     1      -0.091   5.409  -1.796  0.00  0.00    +0.067 C 
ATOM     27  C   UNL     1      -0.196   5.028  -3.263  0.00  0.00    +0.108 C 
ATOM     28  C   UNL     1      -2.560   6.769  -5.439  0.00  0.00    +0.061 C 
ATOM     29  C   UNL     1      -0.557   7.557  -5.184  0.00  0.00    +0.099 C 
ENDBRANCH  17  18
ENDBRANCH   2  17
TORSDOF 5
ENDMDL
MODEL 6
REMARK VINA RESULT:      -9.2      2.208      7.519
REMARK  Name = 
REMARK  5 active torsions:
REMARK  status: ('A' for Active; 'I' for Inactive)
REMARK    1  A    between atoms: C_2  and  O_3
REMARK    2  A    between atoms: C_2  and  C_16
REMARK    3  A    between atoms: O_3  and  C_4
REMARK    4  A    between atoms: C_16  and  C_18
REMARK    5  A    between atoms: C_16  and  C_24
REMARK                            x       y       z     vdW  Elec       q    Type
REMARK                         _______ _______ _______ _____ _____    ______ ____
ROOT
ATOM      1  O   UNL     1       2.219   6.743  -8.450  0.00  0.00    -0.247 OA
ATOM      2  C   UNL     1       2.401   6.487  -8.393  0.00  0.00    +0.353 C 
ENDROOT
BRANCH   2   3
ATOM      3  C   UNL     1       2.224   5.608  -7.222  0.00  0.00    +0.252 C 
ATOM      4  O   UNL     1       2.237   4.274  -7.665  0.00  0.00    -0.205 OA
BRANCH   3   5
ATOM      5  C   UNL     1       0.908   5.944  -6.642  0.00  0.00    +0.019 A 
ATOM      6  C   UNL     1       0.719   6.796  -5.590  0.00  0.00    -0.001 A 
ATOM      7  C   UNL     1      -0.556   7.143  -5.202  0.00  0.00    -0.000 A 
ATOM      8  C   UNL     1      -1.590   6.337  -5.630  0.00  0.00    -0.000 A 
ATOM      9  C   UNL     1      -1.447   5.467  -6.705  0.00  0.00    -0.000 A 
ATOM     10  C   UNL     1      -0.166   5.227  -7.108  0.00  0.00    -0.001 A 
ENDBRANCH   3   5
BRANCH   3  11
ATOM     11  C   UNL     1       3.234   5.721  -6.183  0.00  0.00    +0.019 A 
ATOM     12  C   UNL     1       3.549   4.681  -5.306  0.00  0.00    -0.001 A 
ATOM     13  C   UNL     1       4.139   4.979  -4.089  0.00  0.00    -0.000 A 
ATOM     14  C   UNL     1       4.500   6.275  -3.755  0.00  0.00    -0.000 A 
ATOM     15  C   UNL     1       4.325   7.293  -4.679  0.00  0.00    -0.000 A 
ATOM     16  C   UNL     1       3.854   6.932  -5.913  0.00  0.00    -0.001 A 
ENDBRANCH   3  11
ENDBRANCH   2   3
BRANCH   2  17
ATOM     17  O   UNL     1       3.523   6.994  -8.948  0.00  0.00    -0.450 OA
BRANCH  17  18
ATOM     18  C   UNL     1       4.012   6.346 -10.265  0.00  0.00    +0.180 C 
ATOM     19  C   UNL     1       5.095   5.413  -9.482  0.00  0.00    +0.099 C 
ATOM     20  C   UNL     1       6.442   5.332 -10.420  0.00  0.00    +0.062 C 
ATOM     21  N   UNL     1       5.816   5.722 -11.768  0.00  0.00    +0.289 N 
ATOM     22  C   UNL     1       5.779   7.247 -11.881  0.00  0.00    +0.062 C 
ATOM     23  C   UNL     1       7.297   7.370 -11.246  0.00  0.00    +0.061 C 
ATOM     24  C   UNL     1       6.971   5.450 -12.643  0.00  0.00    +0.108 C 
ATOM     25  C   UNL     1       6.377   5.589 -14.033  0.00  0.00    +0.067 C 
ATOM     26  C   UNL     1       4.915   5.291 -13.769  0.00  0.00    +0.067 C 
ATOM     27  C   UNL     1       4.849   4.986 -12.282  0.00  0.00    +0.108 C 
ATOM     28  C   UNL     1       6.983   6.813  -9.945  0.00  0.00    +0.061 C 
ATOM     29  C   UNL     1       5.034   7.608 -10.463  0.00  0.00    +0.099 C 
ENDBRANCH  17  18
ENDBRANCH   2  17
TORSDOF 5
ENDMDL
MODEL 7
REMARK VINA RESULT:      -9.1      2.278      7.035
REMARK  Name = 
REMARK  5 active torsions:
REMARK  status: ('A' for Active; 'I' for Inactive)
REMARK    1  A    between atoms: C_2  and  O_3
REMARK    2  A    between atoms: C_2  and  C_16
REMARK    3  A    between atoms: O_3  and  C_4
REMARK    4  A    between atoms: C_16  and  C_18
REMARK    5  A    between atoms: C_16  and  C_24
REMARK                            x       y       z     vdW  Elec       q    Type
REMARK                         _______ _______ _______ _____ _____    ______ ____
ROOT
ATOM      1  O   UNL     1       2.709   6.198  -8.481  0.00  0.00    -0.247 OA
ATOM      2  C   UNL     1       2.834   6.135  -8.195  0.00  0.00    +0.353 C 
ENDROOT
BRANCH   2   3
ATOM      3  C   UNL     1       2.261   6.636  -6.932  0.00  0.00    +0.252 C 
ATOM      4  O   UNL     1       2.145   8.034  -7.022  0.00  0.00    -0.205 OA
BRANCH   3   5
ATOM      5  C   UNL     1       3.212   6.268  -5.864  0.00  0.00    +0.019 A 
ATOM      6  C   UNL     1       3.345   5.011  -5.343  0.00  0.00    -0.001 A 
ATOM      7  C   UNL     1       4.348   4.740  -4.439  0.00  0.00    -0.000 A 
ATOM      8  C   UNL     1       4.938   5.815  -3.806  0.00  0.00    -0.000 A 
ATOM      9  C   UNL     1       4.842   7.107  -4.309  0.00  0.00    -0.000 A 
ATOM     10  C   UNL     1       3.892   7.302  -5.269  0.00  0.00    -0.001 A 
ENDBRANCH   3   5
BRANCH   3  11
ATOM     11  C   UNL     1       0.947   6.124  -6.582  0.00  0.00    +0.019 A 
ATOM     12  C   UNL     1       0.236   5.228  -7.383  0.00  0.00    -0.001 A 
ATOM     13  C   UNL     1      -1.141   5.151  -7.254  0.00  0.00    -0.000 A 
ATOM     14  C   UNL     1      -1.822   5.881  -6.291  0.00  0.00    -0.000 A 
ATOM     15  C   UNL     1      -1.110   6.662  -5.395  0.00  0.00    -0.000 A 
ATOM     16  C   UNL     1       0.256   6.611  -5.482  0.00  0.00    -0.001 A 
ENDBRANCH   3  11
ENDBRANCH   2   3
BRANCH   2  17
ATOM     17  O   UNL     1       4.116   6.082  -8.617  0.00  0.00    -0.450 OA
BRANCH  17  18
ATOM     18  C   UNL     1       4.350   5.789 -10.117  0.00  0.00    +0.180 C 
ATOM     19  C   UNL     1       5.808   5.120  -9.828  0.00  0.00    +0.099 C 
ATOM     20  C   UNL     1       6.805   5.565 -11.056  0.00  0.00    +0.062 C 
ATOM     21  N   UNL     1       5.743   5.930 -12.104  0.00  0.00    +0.289 N 
ATOM     22  C   UNL     1       5.300   7.379 -11.884  0.00  0.00    +0.062 C 
ATOM     23  C   UNL     1       6.856   7.855 -11.618  0.00  0.00    +0.061 C 
ATOM     24  C   UNL     1       6.628   6.130 -13.266  0.00  0.00    +0.108 C 
ATOM     25  C   UNL     1       5.644   6.274 -14.414  0.00  0.00    +0.067 C 
ATOM     26  C   UNL     1       4.441   5.527 -13.877  0.00  0.00    +0.067 C 
ATOM     27  C   UNL     1       4.882   5.019 -12.515  0.00  0.00    +0.108 C 
ATOM     28  C   UNL     1       7.076   7.062 -10.426  0.00  0.00    +0.061 C 
ATOM     29  C   UNL     1       4.928   7.310 -10.286  0.00  0.00    +0.099 C 
ENDBRANCH  17  18
ENDBRANCH   2  17
TORSDOF 5
ENDMDL
MODEL 8
REMARK VINA RESULT:      -9.1      2.168      6.704
REMARK  Name = 
REMARK  5 active torsions:
REMARK  status: ('A' for Active; 'I' for Inactive)
REMARK    1  A    between atoms: C_2  and  O_3
REMARK    2  A    between atoms: C_2  and  C_16
REMARK    3  A    between atoms: O_3  and  C_4
REMARK    4  A    between atoms: C_16  and  C_18
REMARK    5  A    between atoms: C_16  and  C_24
REMARK                            x       y       z     vdW  Elec       q    Type
REMARK                         _______ _______ _______ _____ _____    ______ ____
ROOT
ATOM      1  O   UNL     1       1.929   5.048  -8.087  0.00  0.00    -0.247 OA
ATOM      2  C   UNL     1       2.122   5.287  -8.000  0.00  0.00    +0.353 C 
ENDROOT
BRANCH   2   3
ATOM      3  C   UNL     1       1.813   6.216  -6.896  0.00  0.00    +0.252 C 
ATOM      4  O   UNL     1       1.877   7.529  -7.393  0.00  0.00    -0.205 OA
BRANCH   3   5
ATOM      5  C   UNL     1       2.850   6.005  -5.868  0.00  0.00    +0.019 A 
ATOM      6  C   UNL     1       2.943   4.894  -5.076  0.00  0.00    -0.001 A 
ATOM      7  C   UNL     1       4.021   4.733  -4.233  0.00  0.00    -0.000 A 
ATOM      8  C   UNL     1       4.764   5.856  -3.935  0.00  0.00    -0.000 A 
ATOM      9  C   UNL     1       4.712   7.001  -4.721  0.00  0.00    -0.000 A 
ATOM     10  C   UNL     1       3.675   7.070  -5.604  0.00  0.00    -0.001 A 
ENDBRANCH   3   5
BRANCH   3  11
ATOM     11  C   UNL     1       0.506   6.059  -6.279  0.00  0.00    +0.019 A 
ATOM     12  C   UNL     1      -0.485   5.219  -6.790  0.00  0.00    -0.001 A 
ATOM     13  C   UNL     1      -1.809   5.459  -6.463  0.00  0.00    -0.000 A 
ATOM     14  C   UNL     1      -2.167   6.462  -5.575  0.00  0.00    -0.000 A 
ATOM     15  C   UNL     1      -1.179   7.207  -4.950  0.00  0.00    -0.000 A 
ATOM     16  C   UNL     1       0.117   6.852  -5.210  0.00  0.00    -0.001 A 
ENDBRANCH   3  11
ENDBRANCH   2   3
BRANCH   2  17
ATOM     17  O   UNL     1       2.610   5.525  -9.237  0.00  0.00    -0.450 OA
BRANCH  17  18
ATOM     18  C   UNL     1       4.146   5.626  -9.379  0.00  0.00    +0.180 C 
ATOM     19  C   UNL     1       4.071   7.197  -9.807  0.00  0.00    +0.099 C 
ATOM     20  C   UNL     1       5.214   7.446 -10.961  0.00  0.00    +0.062 C 
ATOM     21  N   UNL     1       6.112   6.234 -10.672  0.00  0.00    +0.289 N 
ATOM     22  C   UNL     1       5.564   5.016 -11.420  0.00  0.00    +0.062 C 
ATOM     23  C   UNL     1       5.267   5.925 -12.763  0.00  0.00    +0.061 C 
ATOM     24  C   UNL     1       7.239   6.567 -11.562  0.00  0.00    +0.108 C 
ATOM     25  C   UNL     1       8.286   5.538 -11.175  0.00  0.00    +0.067 C 
ATOM     26  C   UNL     1       7.874   5.206  -9.756  0.00  0.00    +0.067 C 
ATOM     27  C   UNL     1       6.674   6.098  -9.487  0.00  0.00    +0.108 C 
ATOM     28  C   UNL     1       4.286   6.805 -12.160  0.00  0.00    +0.061 C 
ATOM     29  C   UNL     1       4.005   5.060 -10.907  0.00  0.00    +0.099 C 
ENDBRANCH  17  18
ENDBRANCH   2  17
TORSDOF 5
ENDMDL
MODEL 9
REMARK VINA RESULT:      -9.0      0.901      3.530
REMARK  Name = 
REMARK  5 active torsions:
REMARK  status: ('A' for Active; 'I' for Inactive)
REMARK    1  A    between atoms: C_2  and  O_3
REMARK    2  A    between atoms: C_2  and  C_16
REMARK    3  A    between atoms: O_3  and  C_4
REMARK    4  A    between atoms: C_16  and  C_18
REMARK    5  A    between atoms: C_16  and  C_24
REMARK                            x       y       z     vdW  Elec       q    Type
REMARK                         _______ _______ _______ _____ _____    ______ ____
ROOT
ATOM      1  O   UNL     1       3.576   4.647  -9.365  0.00  0.00    -0.247 OA
ATOM      2  C   UNL     1       3.360   4.854  -9.476  0.00  0.00    +0.353 C 
ENDROOT
BRANCH   2   3
ATOM      3  C   UNL     1       3.715   6.061 -10.246  0.00  0.00    +0.252 C 
ATOM      4  O   UNL     1       2.913   7.124  -9.797  0.00  0.00    -0.205 OA
BRANCH   3   5
ATOM      5  C   UNL     1       3.420   5.757 -11.660  0.00  0.00    +0.019 A 
ATOM      6  C   UNL     1       4.332   5.274 -12.557  0.00  0.00    -0.001 A 
ATOM      7  C   UNL     1       3.929   4.902 -13.820  0.00  0.00    -0.000 A 
ATOM      8  C   UNL     1       2.714   5.379 -14.264  0.00  0.00    -0.000 A 
ATOM      9  C   UNL     1       1.751   5.865 -13.387  0.00  0.00    -0.000 A 
ATOM     10  C   UNL     1       2.182   6.132 -12.120  0.00  0.00    -0.001 A 
ENDBRANCH   3   5
BRANCH   3  11
ATOM     11  C   UNL     1       5.097   6.499 -10.142  0.00  0.00    +0.019 A 
ATOM     12  C   UNL     1       5.608   7.594 -10.842  0.00  0.00    -0.001 A 
ATOM     13  C   UNL     1       6.970   7.672 -11.074  0.00  0.00    -0.000 A 
ATOM     14  C   UNL     1       7.850   6.733 -10.557  0.00  0.00    -0.000 A 
ATOM     15  C   UNL     1       7.369   5.724  -9.739  0.00  0.00    -0.000 A 
ATOM     16  C   UNL     1       6.034   5.758  -9.437  0.00  0.00    -0.001 A 
ENDBRANCH   3  11
ENDBRANCH   2   3
BRANCH   2  17
ATOM     17  O   UNL     1       2.481   4.686  -8.465  0.00  0.00    -0.450 OA
BRANCH  17  18
ATOM     18  C   UNL     1       3.003   4.930  -7.030  0.00  0.00    +0.180 C 
ATOM     19  C   UNL     1       1.888   3.933  -6.382  0.00  0.00    +0.099 C 
ATOM     20  C   UNL     1       1.400   4.601  -4.961  0.00  0.00    +0.062 C 
ATOM     21  N   UNL     1       2.600   5.526  -4.709  0.00  0.00    +0.289 N 
ATOM     22  C   UNL     1       2.380   6.846  -5.451  0.00  0.00    +0.062 C 
ATOM     23  C   UNL     1       0.794   6.880  -5.001  0.00  0.00    +0.061 C 
ATOM     24  C   UNL     1       2.264   5.967  -3.343  0.00  0.00    +0.108 C 
ATOM     25  C   UNL     1       3.516   6.713  -2.915  0.00  0.00    +0.067 C 
ATOM     26  C   UNL     1       4.567   6.068  -3.794  0.00  0.00    +0.067 C 
ATOM     27  C   UNL     1       3.811   5.017  -4.588  0.00  0.00    +0.108 C 
ATOM     28  C   UNL     1       0.392   5.675  -5.698  0.00  0.00    +0.061 C 
ATOM     29  C   UNL     1       2.058   6.263  -6.952  0.00  0.00    +0.099 C 
ENDBRANCH  17  18
ENDBRANCH   2  17
TORSDOF 5
ENDMDL
