MODEL 1
REMARK VINA RESULT:      -9.1      0.000      0.000
REMARK  Name = 
REMARK  7 active torsions:
REMARK  status: ('A' for Active; 'I' for Inactive)
REMARK    1  A    between atoms: C_2  and  C_3
REMARK    2  A    between atoms: C_2  and  C_16
REMARK    3  A    between atoms: C_5  and  C_6
REMARK    4  A    between atoms: C_9  and  C_10
REMARK    5  A    between atoms: C_16  and  C_18
REMARK    6  A    between atoms: C_16  and  C_24
REMARK    7  A    between atoms: C_18  and  N_19
REMARK                            x       y       z     vdW  Elec       q    Type
REMARK                         _______ _______ _______ _____ _____    ______ ____
ROOT
ATOM      1  C   UNL     1       2.702   5.679  -4.150  0.00  0.00    +0.175 C 
ATOM      2  O   UNL     1       3.756   4.807  -4.500  0.00  0.00    -0.219 OA
ENDROOT
BRANCH   1   3
ATOM      3  C   UNL     1       2.837   6.036  -2.769  0.00  0.00    +0.037 A 
ATOM      4  C   UNL     1       3.706   5.259  -2.004  0.00  0.00    +0.139 A 
ATOM      5  F   UNL     1       4.418   4.229  -2.554  0.00  0.00    -0.204 F 
ATOM      6  C   UNL     1       4.265   5.750  -0.828  0.00  0.00    +0.032 A 
ATOM      7  C   UNL     1       4.175   7.103  -0.531  0.00  0.00    +0.032 A 
ATOM      8  C   UNL     1       3.636   7.958  -1.483  0.00  0.00    +0.140 A 
ATOM      9  F   UNL     1       4.026   9.265  -1.559  0.00  0.00    -0.204 F 
ATOM     10  C   UNL     1       2.772   7.373  -2.382  0.00  0.00    +0.030 A 
ENDBRANCH   1   3
BRANCH   1  12
ATOM     11  C   UNL     1       4.708   6.465  -5.251  0.00  0.00    +0.010 C 
ATOM     12  C   UNL     1       3.113   6.913  -5.151  0.00  0.00    +0.080 C 
BRANCH  12  13
ATOM     13  C   UNL     1       2.750   6.136  -6.543  0.00  0.00    +0.091 A 
ATOM     14  S   UNL     1       1.625   6.890  -7.603  0.00  0.00    -0.070 S 
ATOM     15  C   UNL     1       2.492   6.676  -9.071  0.00  0.00    +0.056 A 
ATOM     16  C   UNL     1       3.647   6.053  -8.620  0.00  0.00    +0.088 A 
ATOM     17  N   UNL     1       3.814   6.078  -7.336  0.00  0.00    -0.243 NA
BRANCH  16  18
ATOM     18  C   UNL     1       4.827   6.010  -9.516  0.00  0.00    +0.018 A 
ATOM     19  C   UNL     1       6.028   5.668  -8.903  0.00  0.00    +0.002 A 
ATOM     20  C   UNL     1       7.219   5.804  -9.586  0.00  0.00    +0.010 A 
ATOM     21  C   UNL     1       7.305   6.520 -10.772  0.00  0.00    +0.068 A 
ATOM     22  C   UNL     1       6.185   7.277 -11.092  0.00  0.00    +0.010 A 
ATOM     23  C   UNL     1       4.980   7.022 -10.460  0.00  0.00    +0.002 A 
BRANCH  21  24
ATOM     24  C   UNL     1       8.260   6.142 -11.791  0.00  0.00    +0.100 C 
ATOM     25  N   UNL     1       9.176   5.846 -12.429  0.00  0.00    -0.191 NA
ENDBRANCH  21  24
ENDBRANCH  16  18
ENDBRANCH  12  13
ENDBRANCH   1  12
BRANCH   1  26
ATOM     26  C   UNL     1       1.486   5.017  -4.617  0.00  0.00    +0.164 C 
BRANCH  26  27
ATOM     27  N   UNL     1       0.278   5.603  -4.040  0.00  0.00    -0.227 N 
ATOM     28  N   UNL     1      -0.325   4.999  -3.013  0.00  0.00    -0.145 NA
ATOM     29  C   UNL     1      -1.590   5.407  -2.946  0.00  0.00    +0.221 A 
ATOM     30  N   UNL     1      -1.883   6.078  -4.086  0.00  0.00    -0.201 NA
ATOM     31  C   UNL     1      -0.705   6.257  -4.683  0.00  0.00    +0.197 A 
ENDBRANCH  26  27
ENDBRANCH   1  26
TORSDOF 7
ENDMDL
MODEL 2
REMARK VINA RESULT:      -8.8      2.381      4.018
REMARK  Name = 
REMARK  7 active torsions:
REMARK  status: ('A' for Active; 'I' for Inactive)
REMARK    1  A    between atoms: C_2  and  C_3
REMARK    2  A    between atoms: C_2  and  C_16
REMARK    3  A    between atoms: C_5  and  C_6
REMARK    4  A    between atoms: C_9  and  C_10
REMARK    5  A    between atoms: C_16  and  C_18
REMARK    6  A    between atoms: C_16  and  C_24
REMARK    7  A    between atoms: C_18  and  N_19
REMARK                            x       y       z     vdW  Elec       q    Type
REMARK                         _______ _______ _______ _____ _____    ______ ____
ROOT
ATOM      1  C   UNL     1       0.968   6.010  -5.341  0.00  0.00    +0.175 C 
ATOM      2  O   UNL     1       1.486   7.007  -4.486  0.00  0.00    -0.219 OA
ENDROOT
BRANCH   1   3
ATOM      3  C   UNL     1      -0.394   5.752  -4.979  0.00  0.00    +0.037 A 
ATOM      4  C   UNL     1      -0.647   5.513  -3.628  0.00  0.00    +0.139 A 
ATOM      5  F   UNL     1       0.351   5.557  -2.694  0.00  0.00    -0.204 F 
ATOM      6  C   UNL     1      -1.916   5.703  -3.089  0.00  0.00    +0.032 A 
ATOM      7  C   UNL     1      -2.885   6.375  -3.820  0.00  0.00    +0.032 A 
ATOM      8  C   UNL     1      -2.523   6.956  -5.028  0.00  0.00    +0.140 A 
ATOM      9  F   UNL     1      -3.163   8.068  -5.496  0.00  0.00    -0.204 F 
ATOM     10  C   UNL     1      -1.431   6.393  -5.651  0.00  0.00    +0.030 A 
ENDBRANCH   1   3
BRANCH   1  12
ATOM     11  C   UNL     1       2.679   7.259  -6.511  0.00  0.00    +0.010 C 
ATOM     12  C   UNL     1       1.085   6.856  -6.742  0.00  0.00    +0.080 C 
BRANCH  12  13
ATOM     13  C   UNL     1       1.487   5.580  -7.683  0.00  0.00    +0.091 A 
ATOM     14  S   UNL     1       0.583   5.343  -9.127  0.00  0.00    -0.070 S 
ATOM     15  C   UNL     1       1.900   5.059 -10.193  0.00  0.00    +0.056 A 
ATOM     16  C   UNL     1       2.983   5.212  -9.340  0.00  0.00    +0.088 A 
ATOM     17  N   UNL     1       2.703   5.741  -8.192  0.00  0.00    -0.243 NA
BRANCH  16  18
ATOM     18  C   UNL     1       4.331   5.402  -9.930  0.00  0.00    +0.018 A 
ATOM     19  C   UNL     1       5.390   5.328  -9.031  0.00  0.00    +0.002 A 
ATOM     20  C   UNL     1       6.660   5.699  -9.423  0.00  0.00    +0.010 A 
ATOM     21  C   UNL     1       6.887   6.398 -10.600  0.00  0.00    +0.068 A 
ATOM     22  C   UNL     1       5.751   6.899 -11.223  0.00  0.00    +0.010 A 
ATOM     23  C   UNL     1       4.504   6.409 -10.876  0.00  0.00    +0.002 A 
BRANCH  21  24
ATOM     24  C   UNL     1       8.116   6.211 -11.339  0.00  0.00    +0.100 C 
ATOM     25  N   UNL     1       9.010   5.851 -11.978  0.00  0.00    -0.191 NA
ENDBRANCH  21  24
ENDBRANCH  16  18
ENDBRANCH  12  13
ENDBRANCH   1  12
BRANCH   1  26
ATOM     26  C   UNL     1       1.950   4.928  -5.307  0.00  0.00    +0.164 C 
BRANCH  26  27
ATOM     27  N   UNL     1       3.090   5.240  -4.448  0.00  0.00    -0.227 N 
ATOM     28  N   UNL     1       4.332   5.050  -4.902  0.00  0.00    -0.145 NA
ATOM     29  C   UNL     1       5.166   4.949  -3.870  0.00  0.00    +0.221 A 
ATOM     30  N   UNL     1       4.431   4.813  -2.739  0.00  0.00    -0.201 NA
ATOM     31  C   UNL     1       3.182   5.086  -3.115  0.00  0.00    +0.197 A 
ENDBRANCH  26  27
ENDBRANCH   1  26
TORSDOF 7
ENDMDL
MODEL 3
REMARK VINA RESULT:      -8.7      1.682      2.115
REMARK  Name = 
REMARK  7 active torsions:
REMARK  status: ('A' for Active; 'I' for Inactive)
REMARK    1  A    between atoms: C_2  and  C_3
REMARK    2  A    between atoms: C_2  and  C_16
REMARK    3  A    between atoms: C_5  and  C_6
REMARK    4  A    between atoms: C_9  and  C_10
REMARK    5  A    between atoms: C_16  and  C_18
REMARK    6  A    between atoms: C_16  and  C_24
REMARK    7  A    between atoms: C_18  and  N_19
REMARK                            x       y       z     vdW  Elec       q    Type
REMARK                         _______ _______ _______ _____ _____    ______ ____
ROOT
ATOM      1  C   UNL     1       1.866   6.030  -4.476  0.00  0.00    +0.175 C 
ATOM      2  O   UNL     1       1.789   4.771  -5.112  0.00  0.00    -0.219 OA
ENDROOT
BRANCH   1   3
ATOM      3  C   UNL     1       2.013   5.827  -3.066  0.00  0.00    +0.037 A 
ATOM      4  C   UNL     1       2.654   6.839  -2.352  0.00  0.00    +0.139 A 
ATOM      5  F   UNL     1       3.090   7.981  -2.964  0.00  0.00    -0.204 F 
ATOM      6  C   UNL     1       2.461   6.987  -0.982  0.00  0.00    +0.032 A 
ATOM      7  C   UNL     1       1.436   6.299  -0.349  0.00  0.00    +0.032 A 
ATOM      8  C   UNL     1       0.542   5.574  -1.127  0.00  0.00    +0.140 A 
ATOM      9  F   UNL     1      -0.749   5.383  -0.725  0.00  0.00    -0.204 F 
ATOM     10  C   UNL     1       1.025   5.157  -2.347  0.00  0.00    +0.030 A 
ENDBRANCH   1   3
BRANCH   1  12
ATOM     11  C   UNL     1       4.022   5.065  -5.001  0.00  0.00    +0.010 C 
ATOM     12  C   UNL     1       3.263   6.530  -5.177  0.00  0.00    +0.080 C 
BRANCH  12  13
ATOM     13  C   UNL     1       2.823   6.180  -6.712  0.00  0.00    +0.091 A 
ATOM     14  S   UNL     1       2.023   7.411  -7.609  0.00  0.00    -0.070 S 
ATOM     15  C   UNL     1       2.920   7.270  -9.068  0.00  0.00    +0.056 A 
ATOM     16  C   UNL     1       3.830   6.276  -8.737  0.00  0.00    +0.088 A 
ATOM     17  N   UNL     1       3.894   5.994  -7.474  0.00  0.00    -0.243 NA
BRANCH  16  18
ATOM     18  C   UNL     1       5.026   6.094  -9.594  0.00  0.00    +0.018 A 
ATOM     19  C   UNL     1       6.167   5.644  -8.937  0.00  0.00    +0.002 A 
ATOM     20  C   UNL     1       7.385   5.644  -9.584  0.00  0.00    +0.010 A 
ATOM     21  C   UNL     1       7.580   6.322 -10.779  0.00  0.00    +0.068 A 
ATOM     22  C   UNL     1       6.554   7.182 -11.148  0.00  0.00    +0.010 A 
ATOM     23  C   UNL     1       5.311   7.065 -10.550  0.00  0.00    +0.002 A 
BRANCH  21  24
ATOM     24  C   UNL     1       8.521   5.827 -11.760  0.00  0.00    +0.100 C 
ATOM     25  N   UNL     1       9.291   5.657 -12.604  0.00  0.00    -0.191 NA
ENDBRANCH  21  24
ENDBRANCH  16  18
ENDBRANCH  12  13
ENDBRANCH   1  12
BRANCH   1  26
ATOM     26  C   UNL     1       0.728   6.789  -4.990  0.00  0.00    +0.164 C 
BRANCH  26  27
ATOM     27  N   UNL     1      -0.449   5.950  -5.202  0.00  0.00    -0.227 N 
ATOM     28  N   UNL     1      -0.913   5.762  -6.440  0.00  0.00    -0.145 NA
ATOM     29  C   UNL     1      -2.187   5.381  -6.379  0.00  0.00    +0.221 A 
ATOM     30  N   UNL     1      -2.628   5.572  -5.112  0.00  0.00    -0.201 NA
ATOM     31  C   UNL     1      -1.527   5.830  -4.407  0.00  0.00    +0.197 A 
ENDBRANCH  26  27
ENDBRANCH   1  26
TORSDOF 7
ENDMDL
MODEL 4
REMARK VINA RESULT:      -8.6      2.731      4.360
REMARK  Name = 
REMARK  7 active torsions:
REMARK  status: ('A' for Active; 'I' for Inactive)
REMARK    1  A    between atoms: C_2  and  C_3
REMARK    2  A    between atoms: C_2  and  C_16
REMARK    3  A    between atoms: C_5  and  C_6
REMARK    4  A    between atoms: C_9  and  C_10
REMARK    5  A    between atoms: C_16  and  C_18
REMARK    6  A    between atoms: C_16  and  C_24
REMARK    7  A    between atoms: C_18  and  N_19
REMARK                            x       y       z     vdW  Elec       q    Type
REMARK                         _______ _______ _______ _____ _____    ______ ____
ROOT
ATOM      1  C   UNL     1       1.179   5.850  -6.231  0.00  0.00    +0.175 C 
ATOM      2  O   UNL     1       2.171   6.852  -6.154  0.00  0.00    -0.219 OA
ENDROOT
BRANCH   1   3
ATOM      3  C   UNL     1      -0.110   6.475  -6.219  0.00  0.00    +0.037 A 
ATOM      4  C   UNL     1      -1.196   5.675  -6.574  0.00  0.00    +0.139 A 
ATOM      5  F   UNL     1      -1.039   4.352  -6.885  0.00  0.00    -0.204 F 
ATOM      6  C   UNL     1      -2.489   5.997  -6.175  0.00  0.00    +0.032 A 
ATOM      7  C   UNL     1      -2.692   6.971  -5.208  0.00  0.00    +0.032 A 
ATOM      8  C   UNL     1      -1.586   7.512  -4.566  0.00  0.00    +0.140 A 
ATOM      9  F   UNL     1      -1.671   7.977  -3.285  0.00  0.00    -0.204 F 
ATOM     10  C   UNL     1      -0.406   7.454  -5.274  0.00  0.00    +0.030 A 
ENDBRANCH   1   3
BRANCH   1  12
ATOM     11  C   UNL     1       0.924   6.576  -8.525  0.00  0.00    +0.010 C 
ATOM     12  C   UNL     1       1.575   5.280  -7.718  0.00  0.00    +0.080 C 
BRANCH  12  13
ATOM     13  C   UNL     1       3.073   5.935  -7.762  0.00  0.00    +0.091 A 
ATOM     14  S   UNL     1       4.399   4.908  -7.377  0.00  0.00    -0.070 S 
ATOM     15  C   UNL     1       5.433   5.350  -8.676  0.00  0.00    +0.056 A 
ATOM     16  C   UNL     1       4.641   6.260  -9.362  0.00  0.00    +0.088 A 
ATOM     17  N   UNL     1       3.396   6.278  -9.003  0.00  0.00    -0.243 NA
BRANCH  16  18
ATOM     18  C   UNL     1       5.013   6.619 -10.752  0.00  0.00    +0.018 A 
ATOM     19  C   UNL     1       5.016   5.564 -11.658  0.00  0.00    +0.002 A 
ATOM     20  C   UNL     1       5.549   5.736 -12.920  0.00  0.00    +0.010 A 
ATOM     21  C   UNL     1       6.326   6.839 -13.242  0.00  0.00    +0.068 A 
ATOM     22  C   UNL     1       6.723   7.622 -12.165  0.00  0.00    +0.010 A 
ATOM     23  C   UNL     1       6.077   7.494 -10.948  0.00  0.00    +0.002 A 
BRANCH  21  24
ATOM     24  C   UNL     1       6.318   7.377 -14.585  0.00  0.00    +0.100 C 
ATOM     25  N   UNL     1       6.175   7.972 -15.565  0.00  0.00    -0.191 NA
ENDBRANCH  21  24
ENDBRANCH  16  18
ENDBRANCH  12  13
ENDBRANCH   1  12
BRANCH   1  26
ATOM     26  C   UNL     1       1.531   4.882  -5.195  0.00  0.00    +0.164 C 
BRANCH  26  27
ATOM     27  N   UNL     1       2.312   5.482  -4.116  0.00  0.00    -0.227 N 
ATOM     28  N   UNL     1       3.547   5.038  -3.866  0.00  0.00    -0.145 NA
ATOM     29  C   UNL     1       3.888   5.367  -2.623  0.00  0.00    +0.221 A 
ATOM     30  N   UNL     1       2.779   5.797  -1.975  0.00  0.00    -0.201 NA
ATOM     31  C   UNL     1       1.864   5.941  -2.933  0.00  0.00    +0.197 A 
ENDBRANCH  26  27
ENDBRANCH   1  26
TORSDOF 7
ENDMDL
MODEL 5
REMARK VINA RESULT:      -8.6      2.309      3.696
REMARK  Name = 
REMARK  7 active torsions:
REMARK  status: ('A' for Active; 'I' for Inactive)
REMARK    1  A    between atoms: C_2  and  C_3
REMARK    2  A    between atoms: C_2  and  C_16
REMARK    3  A    between atoms: C_5  and  C_6
REMARK    4  A    between atoms: C_9  and  C_10
REMARK    5  A    between atoms: C_16  and  C_18
REMARK    6  A    between atoms: C_16  and  C_24
REMARK    7  A    between atoms: C_18  and  N_19
REMARK                            x       y       z     vdW  Elec       q    Type
REMARK                         _______ _______ _______ _____ _____    ______ ____
ROOT
ATOM      1  C   UNL     1       1.193   6.616  -5.505  0.00  0.00    +0.175 C 
ATOM      2  O   UNL     1       1.667   7.409  -4.437  0.00  0.00    -0.219 OA
ENDROOT
BRANCH   1   3
ATOM      3  C   UNL     1      -0.218   6.823  -5.645  0.00  0.00    +0.037 A 
ATOM      4  C   UNL     1      -0.969   5.734  -6.085  0.00  0.00    +0.139 A 
ATOM      5  F   UNL     1      -0.391   4.521  -6.337  0.00  0.00    -0.204 F 
ATOM      6  C   UNL     1      -2.335   5.652  -5.831  0.00  0.00    +0.032 A 
ATOM      7  C   UNL     1      -2.923   6.518  -4.920  0.00  0.00    +0.032 A 
ATOM      8  C   UNL     1      -2.105   7.365  -4.185  0.00  0.00    +0.140 A 
ATOM      9  F   UNL     1      -2.462   7.781  -2.935  0.00  0.00    -0.204 F 
ATOM     10  C   UNL     1      -0.892   7.667  -4.765  0.00  0.00    +0.030 A 
ENDBRANCH   1   3
BRANCH   1  12
ATOM     11  C   UNL     1       3.505   7.197  -5.922  0.00  0.00    +0.010 C 
ATOM     12  C   UNL     1       2.046   7.348  -6.701  0.00  0.00    +0.080 C 
BRANCH  12  13
ATOM     13  C   UNL     1       2.312   5.994  -7.578  0.00  0.00    +0.091 A 
ATOM     14  S   UNL     1       1.278   5.704  -8.922  0.00  0.00    -0.070 S 
ATOM     15  C   UNL     1       2.485   5.286 -10.071  0.00  0.00    +0.056 A 
ATOM     16  C   UNL     1       3.643   5.444  -9.324  0.00  0.00    +0.088 A 
ATOM     17  N   UNL     1       3.485   6.061  -8.197  0.00  0.00    -0.243 NA
BRANCH  16  18
ATOM     18  C   UNL     1       4.941   5.529 -10.036  0.00  0.00    +0.018 A 
ATOM     19  C   UNL     1       6.068   5.525  -9.220  0.00  0.00    +0.002 A 
ATOM     20  C   UNL     1       7.309   5.814  -9.750  0.00  0.00    +0.010 A 
ATOM     21  C   UNL     1       7.454   6.372 -11.013  0.00  0.00    +0.068 A 
ATOM     22  C   UNL     1       6.281   6.832 -11.597  0.00  0.00    +0.010 A 
ATOM     23  C   UNL     1       5.057   6.419 -11.100  0.00  0.00    +0.002 A 
BRANCH  21  24
ATOM     24  C   UNL     1       8.615   6.069 -11.821  0.00  0.00    +0.100 C 
ATOM     25  N   UNL     1       9.654   5.819 -12.261  0.00  0.00    -0.191 NA
ENDBRANCH  21  24
ENDBRANCH  16  18
ENDBRANCH  12  13
ENDBRANCH   1  12
BRANCH   1  26
ATOM     26  C   UNL     1       1.712   5.275  -5.246  0.00  0.00    +0.164 C 
BRANCH  26  27
ATOM     27  N   UNL     1       1.758   4.963  -3.819  0.00  0.00    -0.227 N 
ATOM     28  N   UNL     1       0.631   4.973  -3.103  0.00  0.00    -0.145 NA
ATOM     29  C   UNL     1       0.931   5.120  -1.815  0.00  0.00    +0.221 A 
ATOM     30  N   UNL     1       2.237   5.467  -1.717  0.00  0.00    -0.201 NA
ATOM     31  C   UNL     1       2.728   5.273  -2.941  0.00  0.00    +0.197 A 
ENDBRANCH  26  27
ENDBRANCH   1  26
TORSDOF 7
ENDMDL
MODEL 6
REMARK VINA RESULT:      -8.5      3.581      8.607
REMARK  Name = 
REMARK  7 active torsions:
REMARK  status: ('A' for Active; 'I' for Inactive)
REMARK    1  A    between atoms: C_2  and  C_3
REMARK    2  A    between atoms: C_2  and  C_16
REMARK    3  A    between atoms: C_5  and  C_6
REMARK    4  A    between atoms: C_9  and  C_10
REMARK    5  A    between atoms: C_16  and  C_18
REMARK    6  A    between atoms: C_16  and  C_24
REMARK    7  A    between atoms: C_18  and  N_19
REMARK                            x       y       z     vdW  Elec       q    Type
REMARK                         _______ _______ _______ _____ _____    ______ ____
ROOT
ATOM      1  C   UNL     1       2.910   6.225  -9.067  0.00  0.00    +0.175 C 
ATOM      2  O   UNL     1       2.226   7.449  -8.895  0.00  0.00    -0.219 OA
ENDROOT
BRANCH   1   3
ATOM      3  C   UNL     1       4.308   6.495  -9.226  0.00  0.00    +0.037 A 
ATOM      4  C   UNL     1       5.181   5.436  -8.980  0.00  0.00    +0.139 A 
ATOM      5  F   UNL     1       4.721   4.194  -8.637  0.00  0.00    -0.204 F 
ATOM      6  C   UNL     1       6.464   5.419  -9.520  0.00  0.00    +0.032 A 
ATOM      7  C   UNL     1       6.807   6.322 -10.516  0.00  0.00    +0.032 A 
ATOM      8  C   UNL     1       5.816   7.141 -11.041  0.00  0.00    +0.140 A 
ATOM      9  F   UNL     1       5.880   7.588 -12.330  0.00  0.00    -0.204 F 
ATOM     10  C   UNL     1       4.744   7.379 -10.210  0.00  0.00    +0.030 A 
ENDBRANCH   1   3
BRANCH   1  12
ATOM     11  C   UNL     1       3.237   6.851  -6.753  0.00  0.00    +0.010 C 
ATOM     12  C   UNL     1       2.567   5.587  -7.595  0.00  0.00    +0.080 C 
BRANCH  12  13
ATOM     13  C   UNL     1       1.068   6.227  -7.473  0.00  0.00    +0.091 A 
ATOM     14  S   UNL     1      -0.268   5.175  -7.732  0.00  0.00    -0.070 S 
ATOM     15  C   UNL     1      -1.218   5.651  -6.382  0.00  0.00    +0.056 A 
ATOM     16  C   UNL     1      -0.393   6.591  -5.782  0.00  0.00    +0.088 A 
ATOM     17  N   UNL     1       0.824   6.609  -6.225  0.00  0.00    -0.243 NA
BRANCH  16  18
ATOM     18  C   UNL     1      -0.675   6.995  -4.383  0.00  0.00    +0.018 A 
ATOM     19  C   UNL     1      -0.252   6.097  -3.409  0.00  0.00    +0.002 A 
ATOM     20  C   UNL     1      -0.648   6.261  -2.097  0.00  0.00    +0.010 A 
ATOM     21  C   UNL     1      -1.669   7.131  -1.743  0.00  0.00    +0.068 A 
ATOM     22  C   UNL     1      -2.412   7.637  -2.802  0.00  0.00    +0.010 A 
ATOM     23  C   UNL     1      -1.917   7.552  -4.092  0.00  0.00    +0.002 A 
BRANCH  21  24
ATOM     24  C   UNL     1      -1.649   7.806  -0.464  0.00  0.00    +0.100 C 
ATOM     25  N   UNL     1      -1.672   8.537   0.431  0.00  0.00    -0.191 NA
ENDBRANCH  21  24
ENDBRANCH  16  18
ENDBRANCH  12  13
ENDBRANCH   1  12
BRANCH   1  26
ATOM     26  C   UNL     1       2.178   5.523 -10.119  0.00  0.00    +0.164 C 
BRANCH  26  27
ATOM     27  N   UNL     1       1.618   6.437 -11.112  0.00  0.00    -0.227 N 
ATOM     28  N   UNL     1       0.330   6.784 -11.040  0.00  0.00    -0.145 NA
ATOM     29  C   UNL     1      -0.074   7.218 -12.231  0.00  0.00    +0.221 A 
ATOM     30  N   UNL     1       0.879   6.909 -13.144  0.00  0.00    -0.201 NA
ATOM     31  C   UNL     1       1.927   6.521 -12.418  0.00  0.00    +0.197 A 
ENDBRANCH  26  27
ENDBRANCH   1  26
TORSDOF 7
ENDMDL
MODEL 7
REMARK VINA RESULT:      -8.4      3.818      8.702
REMARK  Name = 
REMARK  7 active torsions:
REMARK  status: ('A' for Active; 'I' for Inactive)
REMARK    1  A    between atoms: C_2  and  C_3
REMARK    2  A    between atoms: C_2  and  C_16
REMARK    3  A    between atoms: C_5  and  C_6
REMARK    4  A    between atoms: C_9  and  C_10
REMARK    5  A    between atoms: C_16  and  C_18
REMARK    6  A    between atoms: C_16  and  C_24
REMARK    7  A    between atoms: C_18  and  N_19
REMARK                            x       y       z     vdW  Elec       q    Type
REMARK                         _______ _______ _______ _____ _____    ______ ____
ROOT
ATOM      1  C   UNL     1       4.030   6.522  -9.729  0.00  0.00    +0.175 C 
ATOM      2  O   UNL     1       3.238   7.628 -10.106  0.00  0.00    -0.219 OA
ENDROOT
BRANCH   1   3
ATOM      3  C   UNL     1       5.398   6.800 -10.052  0.00  0.00    +0.037 A 
ATOM      4  C   UNL     1       6.347   5.882  -9.601  0.00  0.00    +0.139 A 
ATOM      5  F   UNL     1       5.983   4.757  -8.915  0.00  0.00    -0.204 F 
ATOM      6  C   UNL     1       7.594   5.780 -10.209  0.00  0.00    +0.032 A 
ATOM      7  C   UNL     1       7.824   6.402 -11.427  0.00  0.00    +0.032 A 
ATOM      8  C   UNL     1       6.757   7.010 -12.076  0.00  0.00    +0.140 A 
ATOM      9  F   UNL     1       6.720   7.104 -13.437  0.00  0.00    -0.204 F 
ATOM     10  C   UNL     1       5.722   7.412 -11.261  0.00  0.00    +0.030 A 
ENDBRANCH   1   3
BRANCH   1  12
ATOM     11  C   UNL     1       2.654   7.846  -8.244  0.00  0.00    +0.010 C 
ATOM     12  C   UNL     1       3.748   6.604  -8.114  0.00  0.00    +0.080 C 
BRANCH  12  13
ATOM     13  C   UNL     1       2.556   5.484  -8.090  0.00  0.00    +0.091 A 
ATOM     14  S   UNL     1       2.929   3.945  -7.419  0.00  0.00    -0.070 S 
ATOM     15  C   UNL     1       1.531   3.762  -6.437  0.00  0.00    +0.056 A 
ATOM     16  C   UNL     1       0.871   4.960  -6.673  0.00  0.00    +0.088 A 
ATOM     17  N   UNL     1       1.578   5.862  -7.276  0.00  0.00    -0.243 NA
BRANCH  16  18
ATOM     18  C   UNL     1      -0.211   5.369  -5.744  0.00  0.00    +0.018 A 
ATOM     19  C   UNL     1      -1.491   5.377  -6.290  0.00  0.00    +0.002 A 
ATOM     20  C   UNL     1      -2.539   5.941  -5.591  0.00  0.00    +0.010 A 
ATOM     21  C   UNL     1      -2.329   6.743  -4.477  0.00  0.00    +0.068 A 
ATOM     22  C   UNL     1      -1.011   7.127  -4.262  0.00  0.00    +0.010 A 
ATOM     23  C   UNL     1       0.015   6.451  -4.899  0.00  0.00    +0.002 A 
BRANCH  21  24
ATOM     24  C   UNL     1      -3.295   6.773  -3.401  0.00  0.00    +0.100 C 
ATOM     25  N   UNL     1      -3.952   6.609  -2.465  0.00  0.00    -0.191 NA
ENDBRANCH  21  24
ENDBRANCH  16  18
ENDBRANCH  12  13
ENDBRANCH   1  12
BRANCH   1  26
ATOM     26  C   UNL     1       3.365   5.359 -10.312  0.00  0.00    +0.164 C 
BRANCH  26  27
ATOM     27  N   UNL     1       2.589   5.701 -11.501  0.00  0.00    -0.227 N 
ATOM     28  N   UNL     1       1.279   5.443 -11.533  0.00  0.00    -0.145 NA
ATOM     29  C   UNL     1       0.871   5.396 -12.799  0.00  0.00    +0.221 A 
ATOM     30  N   UNL     1       1.965   5.365 -13.599  0.00  0.00    -0.201 NA
ATOM     31  C   UNL     1       2.984   5.643 -12.786  0.00  0.00    +0.197 A 
ENDBRANCH  26  27
ENDBRANCH   1  26
TORSDOF 7
ENDMDL
MODEL 8
REMARK VINA RESULT:      -8.3      3.431      5.082
REMARK  Name = 
REMARK  7 active torsions:
REMARK  status: ('A' for Active; 'I' for Inactive)
REMARK    1  A    between atoms: C_2  and  C_3
REMARK    2  A    between atoms: C_2  and  C_16
REMARK    3  A    between atoms: C_5  and  C_6
REMARK    4  A    between atoms: C_9  and  C_10
REMARK    5  A    between atoms: C_16  and  C_18
REMARK    6  A    between atoms: C_16  and  C_24
REMARK    7  A    between atoms: C_18  and  N_19
REMARK                            x       y       z     vdW  Elec       q    Type
REMARK                         _______ _______ _______ _____ _____    ______ ____
ROOT
ATOM      1  C   UNL     1       0.895   5.816  -5.264  0.00  0.00    +0.175 C 
ATOM      2  O   UNL     1       1.279   6.958  -5.999  0.00  0.00    -0.219 OA
ENDROOT
BRANCH   1   3
ATOM      3  C   UNL     1      -0.430   6.017  -4.755  0.00  0.00    +0.037 A 
ATOM      4  C   UNL     1      -0.716   5.452  -3.512  0.00  0.00    +0.139 A 
ATOM      5  F   UNL     1       0.233   4.769  -2.802  0.00  0.00    -0.204 F 
ATOM      6  C   UNL     1      -1.754   5.936  -2.723  0.00  0.00    +0.032 A 
ATOM      7  C   UNL     1      -2.356   7.146  -3.037  0.00  0.00    +0.032 A 
ATOM      8  C   UNL     1      -1.818   7.910  -4.064  0.00  0.00    +0.140 A 
ATOM      9  F   UNL     1      -1.923   9.271  -4.061  0.00  0.00    -0.204 F 
ATOM     10  C   UNL     1      -1.105   7.208  -5.011  0.00  0.00    +0.030 A 
ENDBRANCH   1   3
BRANCH   1  12
ATOM     11  C   UNL     1      -0.355   5.450  -7.303  0.00  0.00    +0.010 C 
ATOM     12  C   UNL     1       0.922   4.747  -6.509  0.00  0.00    +0.080 C 
BRANCH  12  13
ATOM     13  C   UNL     1       2.009   5.566  -7.416  0.00  0.00    +0.091 A 
ATOM     14  S   UNL     1       3.530   4.815  -7.701  0.00  0.00    -0.070 S 
ATOM     15  C   UNL     1       3.637   5.117  -9.390  0.00  0.00    +0.056 A 
ATOM     16  C   UNL     1       2.432   5.763  -9.631  0.00  0.00    +0.088 A 
ATOM     17  N   UNL     1       1.573   5.693  -8.664  0.00  0.00    -0.243 NA
BRANCH  16  18
ATOM     18  C   UNL     1       1.959   5.882 -11.031  0.00  0.00    +0.018 A 
ATOM     19  C   UNL     1       0.832   5.128 -11.344  0.00  0.00    +0.002 A 
ATOM     20  C   UNL     1       0.431   4.993 -12.657  0.00  0.00    +0.010 A 
ATOM     21  C   UNL     1       1.253   5.356 -13.715  0.00  0.00    +0.068 A 
ATOM     22  C   UNL     1       2.571   5.634 -13.374  0.00  0.00    +0.010 A 
ATOM     23  C   UNL     1       2.903   5.878 -12.053  0.00  0.00    +0.002 A 
BRANCH  21  24
ATOM     24  C   UNL     1       0.687   5.853 -14.949  0.00  0.00    +0.100 C 
ATOM     25  N   UNL     1       0.197   6.446 -15.812  0.00  0.00    -0.191 NA
ENDBRANCH  21  24
ENDBRANCH  16  18
ENDBRANCH  12  13
ENDBRANCH   1  12
BRANCH   1  26
ATOM     26  C   UNL     1       2.000   5.564  -4.341  0.00  0.00    +0.164 C 
BRANCH  26  27
ATOM     27  N   UNL     1       2.833   6.747  -4.137  0.00  0.00    -0.227 N 
ATOM     28  N   UNL     1       4.060   6.791  -4.663  0.00  0.00    -0.145 NA
ATOM     29  C   UNL     1       4.786   7.693  -4.008  0.00  0.00    +0.221 A 
ATOM     30  N   UNL     1       4.113   8.050  -2.887  0.00  0.00    -0.201 NA
ATOM     31  C   UNL     1       2.897   7.529  -3.045  0.00  0.00    +0.197 A 
ENDBRANCH  26  27
ENDBRANCH   1  26
TORSDOF 7
ENDMDL
MODEL 9
REMARK VINA RESULT:      -8.3      3.432      8.328
REMARK  Name = 
REMARK  7 active torsions:
REMARK  status: ('A' for Active; 'I' for Inactive)
REMARK    1  A    between atoms: C_2  and  C_3
REMARK    2  A    between atoms: C_2  and  C_16
REMARK    3  A    between atoms: C_5  and  C_6
REMARK    4  A    between atoms: C_9  and  C_10
REMARK    5  A    between atoms: C_16  and  C_18
REMARK    6  A    between atoms: C_16  and  C_24
REMARK    7  A    between atoms: C_18  and  N_19
REMARK                            x       y       z     vdW  Elec       q    Type
REMARK                         _______ _______ _______ _____ _____    ______ ____
ROOT
ATOM      1  C   UNL     1       2.001   4.862  -8.352  0.00  0.00    +0.175 C 
ATOM      2  O   UNL     1       2.602   3.660  -8.784  0.00  0.00    -0.219 OA
ENDROOT
BRANCH   1   3
ATOM      3  C   UNL     1       0.957   5.212  -9.268  0.00  0.00    +0.037 A 
ATOM      4  C   UNL     1       0.760   6.574  -9.501  0.00  0.00    +0.139 A 
ATOM      5  F   UNL     1       1.548   7.522  -8.909  0.00  0.00    -0.204 F 
ATOM      6  C   UNL     1       0.131   7.022 -10.659  0.00  0.00    +0.032 A 
ATOM      7  C   UNL     1      -0.079   6.148 -11.715  0.00  0.00    +0.032 A 
ATOM      8  C   UNL     1       0.461   4.871 -11.640  0.00  0.00    +0.140 A 
ATOM      9  F   UNL     1       0.824   4.191 -12.766  0.00  0.00    -0.204 F 
ATOM     10  C   UNL     1       0.685   4.398 -10.365  0.00  0.00    +0.030 A 
ENDBRANCH   1   3
BRANCH   1  12
ATOM     11  C   UNL     1       2.909   4.089  -6.246  0.00  0.00    +0.010 C 
ATOM     12  C   UNL     1       1.410   4.298  -6.928  0.00  0.00    +0.080 C 
BRANCH  12  13
ATOM     13  C   UNL     1       1.231   5.762  -6.222  0.00  0.00    +0.091 A 
ATOM     14  S   UNL     1      -0.326   6.164  -5.613  0.00  0.00    -0.070 S 
ATOM     15  C   UNL     1       0.163   6.781  -4.086  0.00  0.00    +0.056 A 
ATOM     16  C   UNL     1       1.536   6.590  -4.138  0.00  0.00    +0.088 A 
ATOM     17  N   UNL     1       1.944   5.830  -5.104  0.00  0.00    -0.243 NA
BRANCH  16  18
ATOM     18  C   UNL     1       2.311   6.658  -2.876  0.00  0.00    +0.018 A 
ATOM     19  C   UNL     1       3.374   7.557  -2.878  0.00  0.00    +0.002 A 
ATOM     20  C   UNL     1       4.288   7.551  -1.845  0.00  0.00    +0.010 A 
ATOM     21  C   UNL     1       4.353   6.510  -0.930  0.00  0.00    +0.068 A 
ATOM     22  C   UNL     1       3.610   5.383  -1.258  0.00  0.00    +0.010 A 
ATOM     23  C   UNL     1       2.620   5.469  -2.222  0.00  0.00    +0.002 A 
BRANCH  21  24
ATOM     24  C   UNL     1       4.759   6.757   0.436  0.00  0.00    +0.100 C 
ATOM     25  N   UNL     1       4.888   6.839   1.582  0.00  0.00    -0.191 NA
ENDBRANCH  21  24
ENDBRANCH  16  18
ENDBRANCH  12  13
ENDBRANCH   1  12
BRANCH   1  26
ATOM     26  C   UNL     1       3.110   5.784  -8.122  0.00  0.00    +0.164 C 
BRANCH  26  27
ATOM     27  N   UNL     1       4.174   5.631  -9.111  0.00  0.00    -0.227 N 
ATOM     28  N   UNL     1       5.415   5.340  -8.709  0.00  0.00    -0.145 NA
ATOM     29  C   UNL     1       6.277   5.689  -9.661  0.00  0.00    +0.221 A 
ATOM     30  N   UNL     1       5.622   6.445 -10.575  0.00  0.00    -0.201 NA
ATOM     31  C   UNL     1       4.334   6.312 -10.260  0.00  0.00    +0.197 A 
ENDBRANCH  26  27
ENDBRANCH   1  26
TORSDOF 7
ENDMDL
