MODEL 1
REMARK VINA RESULT:      -4.7      0.000      0.000
REMARK  Name = 
REMARK  0 active torsions:
REMARK  status: ('A' for Active; 'I' for Inactive)
REMARK                            x       y       z     vdW  Elec       q    Type
REMARK                         _______ _______ _______ _____ _____    ______ ____
ROOT
ATOM      1  S   UNL     1       3.896   6.298 -10.960  0.00  0.00    -0.028 S 
ATOM      2  C   UNL     1       5.374   5.612 -10.758  0.00  0.00    +0.139 A 
ATOM      3  C   UNL     1       6.154   5.395 -11.888  0.00  0.00    +0.143 A 
ATOM      4  C   UNL     1       7.535   5.486 -11.768  0.00  0.00    +0.185 A 
ATOM      5  N   UNL     1       8.028   5.316 -13.020  0.00  0.00    -0.203 NA
ATOM      6  C   UNL     1       7.000   5.382 -13.894  0.00  0.00    +0.200 A 
ATOM      7  N   UNL     1       8.028   5.275 -10.525  0.00  0.00    -0.203 NA
ATOM      8  C   UNL     1       7.333   5.829  -9.503  0.00  0.00    +0.201 A 
ATOM      9  N   UNL     1       5.864   5.152 -13.190  0.00  0.00    -0.219 NA
ATOM     10  N   UNL     1       5.995   5.620  -9.553  0.00  0.00    -0.215 NA
ENDROOT
TORSDOF 0
ENDMDL
MODEL 2
REMARK VINA RESULT:      -4.5     10.107     11.541
REMARK  Name = 
REMARK  0 active torsions:
REMARK  status: ('A' for Active; 'I' for Inactive)
REMARK                            x       y       z     vdW  Elec       q    Type
REMARK                         _______ _______ _______ _____ _____    ______ ____
ROOT
ATOM      1  S   UNL     1       0.888   5.037  -5.253  0.00  0.00    -0.028 S 
ATOM      2  C   UNL     1       0.399   5.462  -3.744  0.00  0.00    +0.139 A 
ATOM      3  C   UNL     1      -0.967   5.476  -3.480  0.00  0.00    +0.143 A 
ATOM      4  C   UNL     1      -1.398   5.151  -2.200  0.00  0.00    +0.185 A 
ATOM      5  N   UNL     1      -2.752   5.163  -2.250  0.00  0.00    -0.203 NA
ATOM      6  C   UNL     1      -3.129   5.233  -3.546  0.00  0.00    +0.200 A 
ATOM      7  N   UNL     1      -0.490   5.338  -1.213  0.00  0.00    -0.203 NA
ATOM      8  C   UNL     1       0.784   4.971  -1.493  0.00  0.00    +0.201 A 
ATOM      9  N   UNL     1      -2.063   5.697  -4.245  0.00  0.00    -0.219 NA
ATOM     10  N   UNL     1       1.247   5.408  -2.688  0.00  0.00    -0.215 NA
ENDROOT
TORSDOF 0
ENDMDL
MODEL 3
REMARK VINA RESULT:      -4.5      1.500      2.080
REMARK  Name = 
REMARK  0 active torsions:
REMARK  status: ('A' for Active; 'I' for Inactive)
REMARK                            x       y       z     vdW  Elec       q    Type
REMARK                         _______ _______ _______ _____ _____    ______ ____
ROOT
ATOM      1  S   UNL     1       4.471   5.612 -13.927  0.00  0.00    -0.028 S 
ATOM      2  C   UNL     1       5.017   5.399 -12.393  0.00  0.00    +0.139 A 
ATOM      3  C   UNL     1       6.392   5.366 -12.188  0.00  0.00    +0.143 A 
ATOM      4  C   UNL     1       6.896   5.862 -10.992  0.00  0.00    +0.185 A 
ATOM      5  N   UNL     1       8.245   5.785 -11.098  0.00  0.00    -0.203 NA
ATOM      6  C   UNL     1       8.556   5.506 -12.383  0.00  0.00    +0.200 A 
ATOM      7  N   UNL     1       6.031   5.865  -9.951  0.00  0.00    -0.203 NA
ATOM      8  C   UNL     1       4.759   6.239 -10.229  0.00  0.00    +0.201 A 
ATOM      9  N   UNL     1       7.442   4.987 -12.957  0.00  0.00    -0.219 NA
ATOM     10  N   UNL     1       4.223   5.646 -11.323  0.00  0.00    -0.215 NA
ENDROOT
TORSDOF 0
ENDMDL
MODEL 4
REMARK VINA RESULT:      -4.5      1.320      2.761
REMARK  Name = 
REMARK  0 active torsions:
REMARK  status: ('A' for Active; 'I' for Inactive)
REMARK                            x       y       z     vdW  Elec       q    Type
REMARK                         _______ _______ _______ _____ _____    ______ ____
ROOT
ATOM      1  S   UNL     1       4.131   6.513  -9.995  0.00  0.00    -0.028 S 
ATOM      2  C   UNL     1       4.750   6.268 -11.496  0.00  0.00    +0.139 A 
ATOM      3  C   UNL     1       6.100   5.948 -11.602  0.00  0.00    +0.143 A 
ATOM      4  C   UNL     1       6.504   5.110 -12.633  0.00  0.00    +0.185 A 
ATOM      5  N   UNL     1       7.830   4.904 -12.446  0.00  0.00    -0.203 NA
ATOM      6  C   UNL     1       8.166   5.374 -11.224  0.00  0.00    +0.200 A 
ATOM      7  N   UNL     1       5.689   5.079 -13.714  0.00  0.00    -0.203 NA
ATOM      8  C   UNL     1       4.358   5.066 -13.460  0.00  0.00    +0.201 A 
ATOM      9  N   UNL     1       7.189   6.238 -10.849  0.00  0.00    -0.219 NA
ATOM     10  N   UNL     1       3.948   5.982 -12.550  0.00  0.00    -0.215 NA
ENDROOT
TORSDOF 0
ENDMDL
MODEL 5
REMARK VINA RESULT:      -4.4     10.304     11.636
REMARK  Name = 
REMARK  0 active torsions:
REMARK  status: ('A' for Active; 'I' for Inactive)
REMARK                            x       y       z     vdW  Elec       q    Type
REMARK                         _______ _______ _______ _____ _____    ______ ____
ROOT
ATOM      1  S   UNL     1      -0.108   6.657  -5.614  0.00  0.00    -0.028 S 
ATOM      2  C   UNL     1      -0.951   5.727  -4.555  0.00  0.00    +0.139 A 
ATOM      3  C   UNL     1      -0.387   5.482  -3.308  0.00  0.00    +0.143 A 
ATOM      4  C   UNL     1      -1.233   5.338  -2.215  0.00  0.00    +0.185 A 
ATOM      5  N   UNL     1      -0.424   5.195  -1.137  0.00  0.00    -0.203 NA
ATOM      6  C   UNL     1       0.839   5.499  -1.509  0.00  0.00    +0.200 A 
ATOM      7  N   UNL     1      -2.497   4.948  -2.502  0.00  0.00    -0.203 NA
ATOM      8  C   UNL     1      -3.068   5.520  -3.589  0.00  0.00    +0.201 A 
ATOM      9  N   UNL     1       0.889   5.398  -2.861  0.00  0.00    -0.219 NA
ATOM     10  N   UNL     1      -2.286   5.536  -4.695  0.00  0.00    -0.215 NA
ENDROOT
TORSDOF 0
ENDMDL
MODEL 6
REMARK VINA RESULT:      -4.3      9.743     11.409
REMARK  Name = 
REMARK  0 active torsions:
REMARK  status: ('A' for Active; 'I' for Inactive)
REMARK                            x       y       z     vdW  Elec       q    Type
REMARK                         _______ _______ _______ _____ _____    ______ ____
ROOT
ATOM      1  S   UNL     1       0.184   6.081  -0.744  0.00  0.00    -0.028 S 
ATOM      2  C   UNL     1       0.122   5.655  -2.328  0.00  0.00    +0.139 A 
ATOM      3  C   UNL     1      -1.127   5.434  -2.897  0.00  0.00    +0.143 A 
ATOM      4  C   UNL     1      -1.309   5.746  -4.239  0.00  0.00    +0.185 A 
ATOM      5  N   UNL     1      -2.619   5.515  -4.499  0.00  0.00    -0.203 NA
ATOM      6  C   UNL     1      -3.259   5.325  -3.324  0.00  0.00    +0.200 A 
ATOM      7  N   UNL     1      -0.186   5.754  -4.994  0.00  0.00    -0.203 NA
ATOM      8  C   UNL     1       0.913   6.306  -4.428  0.00  0.00    +0.201 A 
ATOM      9  N   UNL     1      -2.315   5.005  -2.404  0.00  0.00    -0.219 NA
ATOM     10  N   UNL     1       1.164   5.893  -3.162  0.00  0.00    -0.215 NA
ENDROOT
TORSDOF 0
ENDMDL
MODEL 7
REMARK VINA RESULT:      -4.3      9.759     11.701
REMARK  Name = 
REMARK  0 active torsions:
REMARK  status: ('A' for Active; 'I' for Inactive)
REMARK                            x       y       z     vdW  Elec       q    Type
REMARK                         _______ _______ _______ _____ _____    ______ ____
ROOT
ATOM      1  S   UNL     1       1.486   5.980  -3.659  0.00  0.00    -0.028 S 
ATOM      2  C   UNL     1       0.002   5.475  -4.149  0.00  0.00    +0.139 A 
ATOM      3  C   UNL     1      -1.010   5.403  -3.197  0.00  0.00    +0.143 A 
ATOM      4  C   UNL     1      -2.315   5.660  -3.598  0.00  0.00    +0.185 A 
ATOM      5  N   UNL     1      -3.066   5.604  -2.471  0.00  0.00    -0.203 NA
ATOM      6  C   UNL     1      -2.235   5.576  -1.406  0.00  0.00    +0.200 A 
ATOM      7  N   UNL     1      -2.573   5.462  -4.912  0.00  0.00    -0.203 NA
ATOM      8  C   UNL     1      -1.621   5.883  -5.779  0.00  0.00    +0.201 A 
ATOM      9  N   UNL     1      -1.021   5.179  -1.861  0.00  0.00    -0.219 NA
ATOM     10  N   UNL     1      -0.359   5.513  -5.455  0.00  0.00    -0.215 NA
ENDROOT
TORSDOF 0
ENDMDL
MODEL 8
REMARK VINA RESULT:      -4.1      1.429      3.012
REMARK  Name = 
REMARK  0 active torsions:
REMARK  status: ('A' for Active; 'I' for Inactive)
REMARK                            x       y       z     vdW  Elec       q    Type
REMARK                         _______ _______ _______ _____ _____    ______ ____
ROOT
ATOM      1  S   UNL     1       4.656   5.215 -13.225  0.00  0.00    -0.028 S 
ATOM      2  C   UNL     1       6.027   5.851 -12.585  0.00  0.00    +0.139 A 
ATOM      3  C   UNL     1       6.166   5.846 -11.201  0.00  0.00    +0.143 A 
ATOM      4  C   UNL     1       7.439   5.709 -10.663  0.00  0.00    +0.185 A 
ATOM      5  N   UNL     1       7.270   5.651  -9.320  0.00  0.00    -0.203 NA
ATOM      6  C   UNL     1       5.952   5.497  -9.063  0.00  0.00    +0.200 A 
ATOM      7  N   UNL     1       8.458   6.092 -11.469  0.00  0.00    -0.203 NA
ATOM      8  C   UNL     1       8.353   5.743 -12.773  0.00  0.00    +0.201 A 
ATOM      9  N   UNL     1       5.282   5.891 -10.174  0.00  0.00    -0.219 NA
ATOM     10  N   UNL     1       7.147   6.005 -13.332  0.00  0.00    -0.215 NA
ENDROOT
TORSDOF 0
ENDMDL
MODEL 9
REMARK VINA RESULT:      -4.1      2.879      3.970
REMARK  Name = 
REMARK  0 active torsions:
REMARK  status: ('A' for Active; 'I' for Inactive)
REMARK                            x       y       z     vdW  Elec       q    Type
REMARK                         _______ _______ _______ _____ _____    ______ ____
ROOT
ATOM      1  S   UNL     1       0.768   6.526 -10.547  0.00  0.00    -0.028 S 
ATOM      2  C   UNL     1       1.928   5.413 -10.213  0.00  0.00    +0.139 A 
ATOM      3  C   UNL     1       3.256   5.769 -10.427  0.00  0.00    +0.143 A 
ATOM      4  C   UNL     1       4.228   5.232  -9.593  0.00  0.00    +0.185 A 
ATOM      5  N   UNL     1       5.397   5.806  -9.969  0.00  0.00    -0.203 NA
ATOM      6  C   UNL     1       5.119   6.829 -10.808  0.00  0.00    +0.200 A 
ATOM      7  N   UNL     1       3.903   4.063  -8.993  0.00  0.00    -0.203 NA
ATOM      8  C   UNL     1       2.636   3.962  -8.525  0.00  0.00    +0.201 A 
ATOM      9  N   UNL     1       3.867   6.620 -11.287  0.00  0.00    -0.219 NA
ATOM     10  N   UNL     1       1.679   4.361  -9.397  0.00  0.00    -0.215 NA
ENDROOT
TORSDOF 0
ENDMDL
