MODEL 1
REMARK VINA RESULT:      -8.5      0.000      0.000
REMARK  Name = 
REMARK  3 active torsions:
REMARK  status: ('A' for Active; 'I' for Inactive)
REMARK    1  A    between atoms: C_6  and  O_8
REMARK    2  A    between atoms: O_8  and  C_9
REMARK    3  A    between atoms: N_18  and  C_19
REMARK                            x       y       z     vdW  Elec       q    Type
REMARK                         _______ _______ _______ _____ _____    ______ ____
ROOT
ATOM      1  C   UNL     1       1.847   4.996  -7.685  0.00  0.00    +0.299 C 
ATOM      2  N   UNL     1       3.010   6.025  -7.214  0.00  0.00    -0.200 N 
ATOM      3  C   UNL     1       4.049   5.468  -8.030  0.00  0.00    +0.276 C 
ATOM      4  O   UNL     1       5.268   5.274  -7.765  0.00  0.00    -0.268 OA
ATOM      5  C   UNL     1       3.457   5.359  -9.369  0.00  0.00    +0.154 A 
ATOM      6  N   UNL     1       3.939   5.452 -10.631  0.00  0.00    -0.236 NA
ATOM      7  C   UNL     1       3.127   5.845 -11.646  0.00  0.00    +0.120 A 
ATOM      8  C   UNL     1       1.856   6.294 -11.299  0.00  0.00    +0.119 A 
ATOM      9  N   UNL     1       1.249   5.884 -10.151  0.00  0.00    -0.239 NA
ATOM     10  C   UNL     1       2.085   5.447  -9.256  0.00  0.00    +0.141 A 
ENDROOT
BRANCH   2  11
ATOM     11  C   UNL     1       3.186   6.282  -5.844  0.00  0.00    +0.141 A 
ATOM     12  N   UNL     1       3.854   7.416  -5.516  0.00  0.00    -0.228 NA
ATOM     13  C   UNL     1       4.638   7.519  -4.430  0.00  0.00    +0.112 A 
ATOM     14  C   UNL     1       4.546   6.584  -3.407  0.00  0.00    +0.077 A 
ATOM     15 CL   UNL     1       4.732   7.123  -1.742  0.00  0.00    -0.081 Cl
ATOM     16  C   UNL     1       3.961   5.368  -3.735  0.00  0.00    +0.016 A 
ATOM     17  C   UNL     1       3.368   5.209  -4.981  0.00  0.00    +0.036 A 
ENDBRANCH   2  11
BRANCH   1  18
ATOM     18  O   UNL     1       0.698   6.067  -7.450  0.00  0.00    -0.412 OA
BRANCH  18  24
ATOM     19  C   UNL     1      -1.845   7.338  -2.338  0.00  0.00    +0.090 C 
ATOM     20  N   UNL     1      -2.444   7.378  -3.532  0.00  0.00    -0.269 NA
ATOM     21  C   UNL     1      -1.511   7.962  -4.479  0.00  0.00    +0.094 C 
ATOM     22  C   UNL     1      -0.403   6.942  -4.725  0.00  0.00    +0.114 C 
ATOM     23  N   UNL     1      -0.990   5.930  -5.601  0.00  0.00    -0.243 N 
ATOM     24  C   UNL     1      -0.397   5.522  -6.809  0.00  0.00    +0.407 C 
ATOM     25  O   UNL     1      -1.029   4.692  -7.529  0.00  0.00    -0.226 OA
ATOM     26  C   UNL     1      -2.433   5.795  -5.400  0.00  0.00    +0.114 C 
ATOM     27  C   UNL     1      -2.764   6.040  -3.935  0.00  0.00    +0.094 C 
ENDBRANCH  18  24
ENDBRANCH   1  18
TORSDOF 3
ENDMDL
MODEL 2
REMARK VINA RESULT:      -8.4      2.901      5.485
REMARK  Name = 
REMARK  3 active torsions:
REMARK  status: ('A' for Active; 'I' for Inactive)
REMARK    1  A    between atoms: C_6  and  O_8
REMARK    2  A    between atoms: O_8  and  C_9
REMARK    3  A    between atoms: N_18  and  C_19
REMARK                            x       y       z     vdW  Elec       q    Type
REMARK                         _______ _______ _______ _____ _____    ______ ____
ROOT
ATOM      1  C   UNL     1       2.049   4.915  -5.957  0.00  0.00    +0.299 C 
ATOM      2  N   UNL     1       2.110   5.897  -7.247  0.00  0.00    -0.200 N 
ATOM      3  C   UNL     1       1.039   5.274  -7.967  0.00  0.00    +0.276 C 
ATOM      4  O   UNL     1       0.930   5.028  -9.201  0.00  0.00    -0.268 OA
ATOM      5  C   UNL     1      -0.054   5.163  -6.994  0.00  0.00    +0.154 A 
ATOM      6  N   UNL     1      -1.405   5.205  -7.074  0.00  0.00    -0.236 NA
ATOM      7  C   UNL     1      -2.141   5.612  -6.008  0.00  0.00    +0.120 A 
ATOM      8  C   UNL     1      -1.443   6.129  -4.920  0.00  0.00    +0.119 A 
ATOM      9  N   UNL     1      -0.151   5.775  -4.674  0.00  0.00    -0.239 NA
ATOM     10  C   UNL     1       0.465   5.319  -5.725  0.00  0.00    +0.141 A 
ENDROOT
BRANCH   2  11
ATOM     11  C   UNL     1       3.353   6.177  -7.840  0.00  0.00    +0.141 A 
ATOM     12  N   UNL     1       3.339   6.954  -8.951  0.00  0.00    -0.228 NA
ATOM     13  C   UNL     1       4.220   6.816  -9.955  0.00  0.00    +0.112 A 
ATOM     14  C   UNL     1       5.394   6.098  -9.765  0.00  0.00    +0.077 A 
ATOM     15 CL   UNL     1       6.869   6.655 -10.548  0.00  0.00    -0.081 Cl
ATOM     16  C   UNL     1       5.407   5.212  -8.696  0.00  0.00    +0.016 A 
ATOM     17  C   UNL     1       4.345   5.206  -7.800  0.00  0.00    +0.036 A 
ENDBRANCH   2  11
BRANCH   1  18
ATOM     18  O   UNL     1       2.581   6.044  -4.976  0.00  0.00    -0.412 OA
BRANCH  18  24
ATOM     19  C   UNL     1       3.871   7.813   0.449  0.00  0.00    +0.090 C 
ATOM     20  N   UNL     1       3.384   6.612   0.121  0.00  0.00    -0.269 NA
ATOM     21  C   UNL     1       2.363   6.807  -0.893  0.00  0.00    +0.094 C 
ATOM     22  C   UNL     1       3.066   7.216  -2.184  0.00  0.00    +0.114 C 
ATOM     23  N   UNL     1       3.660   5.990  -2.712  0.00  0.00    -0.243 N 
ATOM     24  C   UNL     1       3.453   5.542  -4.028  0.00  0.00    +0.407 C 
ATOM     25  O   UNL     1       3.954   4.426  -4.361  0.00  0.00    -0.226 OA
ATOM     26  C   UNL     1       4.009   5.044  -1.652  0.00  0.00    +0.114 C 
ATOM     27  C   UNL     1       4.446   5.812  -0.414  0.00  0.00    +0.094 C 
ENDBRANCH  18  24
ENDBRANCH   1  18
TORSDOF 3
ENDMDL
MODEL 3
REMARK VINA RESULT:      -8.3      2.729      5.242
REMARK  Name = 
REMARK  3 active torsions:
REMARK  status: ('A' for Active; 'I' for Inactive)
REMARK    1  A    between atoms: C_6  and  O_8
REMARK    2  A    between atoms: O_8  and  C_9
REMARK    3  A    between atoms: N_18  and  C_19
REMARK                            x       y       z     vdW  Elec       q    Type
REMARK                         _______ _______ _______ _____ _____    ______ ____
ROOT
ATOM      1  C   UNL     1       2.315   6.591  -4.290  0.00  0.00    +0.299 C 
ATOM      2  N   UNL     1       3.788   6.531  -4.968  0.00  0.00    -0.200 N 
ATOM      3  C   UNL     1       4.399   7.492  -4.098  0.00  0.00    +0.276 C 
ATOM      4  O   UNL     1       5.227   8.409  -4.360  0.00  0.00    -0.268 OA
ATOM      5  C   UNL     1       4.032   7.060  -2.744  0.00  0.00    +0.154 A 
ATOM      6  N   UNL     1       4.634   7.119  -1.532  0.00  0.00    -0.236 NA
ATOM      7  C   UNL     1       4.343   6.197  -0.579  0.00  0.00    +0.120 A 
ATOM      8  C   UNL     1       3.544   5.124  -0.962  0.00  0.00    +0.119 A 
ATOM      9  N   UNL     1       2.672   5.226  -2.002  0.00  0.00    -0.239 NA
ATOM     10  C   UNL     1       2.971   6.183  -2.831  0.00  0.00    +0.141 A 
ENDROOT
BRANCH   2  11
ATOM     11  C   UNL     1       3.905   6.601  -6.367  0.00  0.00    +0.141 A 
ATOM     12  N   UNL     1       3.000   7.374  -7.018  0.00  0.00    -0.228 NA
ATOM     13  C   UNL     1       2.547   7.094  -8.251  0.00  0.00    +0.112 A 
ATOM     14  C   UNL     1       3.224   6.189  -9.059  0.00  0.00    +0.077 A 
ATOM     15 CL   UNL     1       3.314   6.494 -10.790  0.00  0.00    -0.081 Cl
ATOM     16  C   UNL     1       4.081   5.309  -8.413  0.00  0.00    +0.016 A 
ATOM     17  C   UNL     1       4.339   5.477  -7.057  0.00  0.00    +0.036 A 
ENDBRANCH   2  11
BRANCH   1  18
ATOM     18  O   UNL     1       1.992   5.085  -4.676  0.00  0.00    -0.412 OA
BRANCH  18  24
ATOM     19  C   UNL     1      -3.412   6.100  -2.680  0.00  0.00    +0.090 C 
ATOM     20  N   UNL     1      -2.856   6.688  -3.743  0.00  0.00    -0.269 NA
ATOM     21  C   UNL     1      -1.477   6.999  -3.411  0.00  0.00    +0.094 C 
ATOM     22  C   UNL     1      -0.709   5.682  -3.351  0.00  0.00    +0.114 C 
ATOM     23  N   UNL     1      -0.507   5.283  -4.742  0.00  0.00    -0.243 N 
ATOM     24  C   UNL     1       0.753   4.955  -5.273  0.00  0.00    +0.407 C 
ATOM     25  O   UNL     1       0.826   4.695  -6.511  0.00  0.00    -0.226 OA
ATOM     26  C   UNL     1      -1.577   5.767  -5.616  0.00  0.00    +0.114 C 
ATOM     27  C   UNL     1      -2.890   5.776  -4.848  0.00  0.00    +0.094 C 
ENDBRANCH  18  24
ENDBRANCH   1  18
TORSDOF 3
ENDMDL
MODEL 4
REMARK VINA RESULT:      -8.2      3.377      7.978
REMARK  Name = 
REMARK  3 active torsions:
REMARK  status: ('A' for Active; 'I' for Inactive)
REMARK    1  A    between atoms: C_6  and  O_8
REMARK    2  A    between atoms: O_8  and  C_9
REMARK    3  A    between atoms: N_18  and  C_19
REMARK                            x       y       z     vdW  Elec       q    Type
REMARK                         _______ _______ _______ _____ _____    ______ ____
ROOT
ATOM      1  C   UNL     1       2.773   4.898  -8.101  0.00  0.00    +0.299 C 
ATOM      2  N   UNL     1       1.638   5.973  -8.533  0.00  0.00    -0.200 N 
ATOM      3  C   UNL     1       0.561   5.359  -7.812  0.00  0.00    +0.276 C 
ATOM      4  O   UNL     1      -0.646   5.198  -8.145  0.00  0.00    -0.268 OA
ATOM      5  C   UNL     1       1.093   5.131  -6.464  0.00  0.00    +0.154 A 
ATOM      6  N   UNL     1       0.558   5.122  -5.220  0.00  0.00    -0.236 NA
ATOM      7  C   UNL     1       1.327   5.420  -4.142  0.00  0.00    +0.120 A 
ATOM      8  C   UNL     1       2.614   5.886  -4.394  0.00  0.00    +0.119 A 
ATOM      9  N   UNL     1       3.268   5.569  -5.546  0.00  0.00    -0.239 NA
ATOM     10  C   UNL     1       2.469   5.217  -6.510  0.00  0.00    +0.141 A 
ENDROOT
BRANCH   2  11
ATOM     11  C   UNL     1       1.523   6.347  -9.883  0.00  0.00    +0.141 A 
ATOM     12  N   UNL     1       0.561   7.254 -10.186  0.00  0.00    -0.228 NA
ATOM     13  C   UNL     1      -0.105   7.256 -11.352  0.00  0.00    +0.112 A 
ATOM     14  C   UNL     1       0.383   6.543 -12.440  0.00  0.00    +0.077 A 
ATOM     15 CL   UNL     1       0.197   7.219 -14.055  0.00  0.00    -0.081 Cl
ATOM     16  C   UNL     1       1.292   5.533 -12.157  0.00  0.00    +0.016 A 
ATOM     17  C   UNL     1       1.781   5.397 -10.863  0.00  0.00    +0.036 A 
ENDBRANCH   2  11
BRANCH   1  18
ATOM     18  O   UNL     1       3.937   5.974  -8.195  0.00  0.00    -0.412 OA
BRANCH  18  24
ATOM     19  C   UNL     1       6.567   7.068 -13.305  0.00  0.00    +0.090 C 
ATOM     20  N   UNL     1       7.124   7.217 -12.100  0.00  0.00    -0.269 NA
ATOM     21  C   UNL     1       6.130   7.805 -11.219  0.00  0.00    +0.094 C 
ATOM     22  C   UNL     1       5.074   6.739 -10.939  0.00  0.00    +0.114 C 
ATOM     23  N   UNL     1       5.688   5.820  -9.984  0.00  0.00    -0.243 N 
ATOM     24  C   UNL     1       5.081   5.455  -8.769  0.00  0.00    +0.407 C 
ATOM     25  O   UNL     1       5.735   4.710  -7.980  0.00  0.00    -0.226 OA
ATOM     26  C   UNL     1       7.143   5.757 -10.135  0.00  0.00    +0.114 C 
ATOM     27  C   UNL     1       7.505   5.928 -11.602  0.00  0.00    +0.094 C 
ENDBRANCH  18  24
ENDBRANCH   1  18
TORSDOF 3
ENDMDL
MODEL 5
REMARK VINA RESULT:      -8.0      2.935      6.245
REMARK  Name = 
REMARK  3 active torsions:
REMARK  status: ('A' for Active; 'I' for Inactive)
REMARK    1  A    between atoms: C_6  and  O_8
REMARK    2  A    between atoms: O_8  and  C_9
REMARK    3  A    between atoms: N_18  and  C_19
REMARK                            x       y       z     vdW  Elec       q    Type
REMARK                         _______ _______ _______ _____ _____    ______ ____
ROOT
ATOM      1  C   UNL     1       0.818   5.136  -4.906  0.00  0.00    +0.299 C 
ATOM      2  N   UNL     1       0.382   5.942  -6.244  0.00  0.00    -0.200 N 
ATOM      3  C   UNL     1      -0.951   5.417  -6.314  0.00  0.00    +0.276 C 
ATOM      4  O   UNL     1      -1.624   5.051  -7.317  0.00  0.00    -0.268 OA
ATOM      5  C   UNL     1      -1.494   5.592  -4.962  0.00  0.00    +0.154 A 
ATOM      6  N   UNL     1      -2.727   5.837  -4.458  0.00  0.00    -0.236 NA
ATOM      7  C   UNL     1      -2.865   6.475  -3.268  0.00  0.00    +0.120 A 
ATOM      8  C   UNL     1      -1.709   6.996  -2.693  0.00  0.00    +0.119 A 
ATOM      9  N   UNL     1      -0.483   6.473  -2.971  0.00  0.00    -0.239 NA
ATOM     10  C   UNL     1      -0.449   5.808  -4.088  0.00  0.00    +0.141 A 
ENDROOT
BRANCH   2  11
ATOM     11  C   UNL     1       1.245   5.953  -7.353  0.00  0.00    +0.141 A 
ATOM     12  N   UNL     1       2.081   4.893  -7.487  0.00  0.00    -0.228 NA
ATOM     13  C   UNL     1       3.310   4.990  -8.020  0.00  0.00    +0.112 A 
ATOM     14  C   UNL     1       3.667   6.107  -8.764  0.00  0.00    +0.077 A 
ATOM     15 CL   UNL     1       4.710   5.899 -10.166  0.00  0.00    -0.081 Cl
ATOM     16  C   UNL     1       2.896   7.246  -8.572  0.00  0.00    +0.016 A 
ATOM     17  C   UNL     1       1.745   7.170  -7.798  0.00  0.00    +0.036 A 
ENDBRANCH   2  11
BRANCH   1  18
ATOM     18  O   UNL     1       1.834   6.272  -4.461  0.00  0.00    -0.412 OA
BRANCH  18  24
ATOM     19  C   UNL     1       4.194   7.704   0.697  0.00  0.00    +0.090 C 
ATOM     20  N   UNL     1       3.710   6.501   0.374  0.00  0.00    -0.269 NA
ATOM     21  C   UNL     1       2.482   6.701  -0.375  0.00  0.00    +0.094 C 
ATOM     22  C   UNL     1       2.861   7.257  -1.744  0.00  0.00    +0.114 C 
ATOM     23  N   UNL     1       3.386   6.120  -2.496  0.00  0.00    -0.243 N 
ATOM     24  C   UNL     1       2.918   5.760  -3.772  0.00  0.00    +0.407 C 
ATOM     25  O   UNL     1       3.391   4.711  -4.304  0.00  0.00    -0.226 OA
ATOM     26  C   UNL     1       4.009   5.121  -1.626  0.00  0.00    +0.114 C 
ATOM     27  C   UNL     1       4.668   5.821  -0.447  0.00  0.00    +0.094 C 
ENDBRANCH  18  24
ENDBRANCH   1  18
TORSDOF 3
ENDMDL
MODEL 6
REMARK VINA RESULT:      -8.0      2.773      5.012
REMARK  Name = 
REMARK  3 active torsions:
REMARK  status: ('A' for Active; 'I' for Inactive)
REMARK    1  A    between atoms: C_6  and  O_8
REMARK    2  A    between atoms: O_8  and  C_9
REMARK    3  A    between atoms: N_18  and  C_19
REMARK                            x       y       z     vdW  Elec       q    Type
REMARK                         _______ _______ _______ _____ _____    ______ ____
ROOT
ATOM      1  C   UNL     1       2.621   7.072  -6.503  0.00  0.00    +0.299 C 
ATOM      2  N   UNL     1       1.396   6.010  -6.511  0.00  0.00    -0.200 N 
ATOM      3  C   UNL     1       1.137   6.082  -7.919  0.00  0.00    +0.276 C 
ATOM      4  O   UNL     1       0.038   6.093  -8.540  0.00  0.00    -0.268 OA
ATOM      5  C   UNL     1       2.451   5.918  -8.551  0.00  0.00    +0.154 A 
ATOM      6  N   UNL     1       2.886   5.367  -9.709  0.00  0.00    -0.236 NA
ATOM      7  C   UNL     1       4.147   4.871  -9.800  0.00  0.00    +0.120 A 
ATOM      8  C   UNL     1       4.887   4.810  -8.623  0.00  0.00    +0.119 A 
ATOM      9  N   UNL     1       4.631   5.649  -7.581  0.00  0.00    -0.239 NA
ATOM     10  C   UNL     1       3.430   6.147  -7.606  0.00  0.00    +0.141 A 
ENDROOT
BRANCH   2  11
ATOM     11  C   UNL     1       0.375   6.130  -5.552  0.00  0.00    +0.141 A 
ATOM     12  N   UNL     1      -0.568   5.156  -5.537  0.00  0.00    -0.228 NA
ATOM     13  C   UNL     1      -1.850   5.379  -5.207  0.00  0.00    +0.112 A 
ATOM     14  C   UNL     1      -2.210   6.544  -4.541  0.00  0.00    +0.077 A 
ATOM     15 CL   UNL     1      -3.474   6.471  -3.318  0.00  0.00    -0.081 Cl
ATOM     16  C   UNL     1      -1.315   7.602  -4.623  0.00  0.00    +0.016 A 
ATOM     17  C   UNL     1      -0.069   7.400  -5.206  0.00  0.00    +0.036 A 
ENDBRANCH   2  11
BRANCH   1  18
ATOM     18  O   UNL     1       3.320   6.373  -5.260  0.00  0.00    -0.412 OA
BRANCH  18  24
ATOM     19  C   UNL     1       1.540   7.116   0.263  0.00  0.00    +0.090 C 
ATOM     20  N   UNL     1       2.796   6.868  -0.119  0.00  0.00    -0.269 NA
ATOM     21  C   UNL     1       2.752   5.867  -1.171  0.00  0.00    +0.094 C 
ATOM     22  C   UNL     1       2.178   6.532  -2.418  0.00  0.00    +0.114 C 
ATOM     23  N   UNL     1       3.258   7.357  -2.954  0.00  0.00    -0.243 N 
ATOM     24  C   UNL     1       3.690   7.284  -4.290  0.00  0.00    +0.407 C 
ATOM     25  O   UNL     1       4.685   7.991  -4.631  0.00  0.00    -0.226 OA
ATOM     26  C   UNL     1       4.163   7.832  -1.907  0.00  0.00    +0.114 C 
ATOM     27  C   UNL     1       3.373   8.076  -0.630  0.00  0.00    +0.094 C 
ENDBRANCH  18  24
ENDBRANCH   1  18
TORSDOF 3
ENDMDL
MODEL 7
REMARK VINA RESULT:      -8.0      3.649      5.912
REMARK  Name = 
REMARK  3 active torsions:
REMARK  status: ('A' for Active; 'I' for Inactive)
REMARK    1  A    between atoms: C_6  and  O_8
REMARK    2  A    between atoms: O_8  and  C_9
REMARK    3  A    between atoms: N_18  and  C_19
REMARK                            x       y       z     vdW  Elec       q    Type
REMARK                         _______ _______ _______ _____ _____    ______ ____
ROOT
ATOM      1  C   UNL     1       3.591   5.307 -10.468  0.00  0.00    +0.299 C 
ATOM      2  N   UNL     1       4.055   6.238 -11.713  0.00  0.00    -0.200 N 
ATOM      3  C   UNL     1       3.104   5.723 -12.654  0.00  0.00    +0.276 C 
ATOM      4  O   UNL     1       3.244   5.455 -13.880  0.00  0.00    -0.268 OA
ATOM      5  C   UNL     1       1.817   5.768 -11.951  0.00  0.00    +0.154 A 
ATOM      6  N   UNL     1       0.532   5.964 -12.332  0.00  0.00    -0.236 NA
ATOM      7  C   UNL     1      -0.368   6.486 -11.459  0.00  0.00    +0.120 A 
ATOM      8  C   UNL     1       0.127   6.949 -10.244  0.00  0.00    +0.119 A 
ATOM      9  N   UNL     1       1.280   6.454  -9.714  0.00  0.00    -0.239 NA
ATOM     10  C   UNL     1       2.055   5.899 -10.599  0.00  0.00    +0.141 A 
ENDROOT
BRANCH   2  11
ATOM     11  C   UNL     1       5.423   6.353 -12.013  0.00  0.00    +0.141 A 
ATOM     12  N   UNL     1       6.076   5.211 -12.343  0.00  0.00    -0.228 NA
ATOM     13  C   UNL     1       7.367   4.991 -12.046  0.00  0.00    +0.112 A 
ATOM     14  C   UNL     1       8.194   6.047 -11.684  0.00  0.00    +0.077 A 
ATOM     15 CL   UNL     1       9.871   6.037 -12.219  0.00  0.00    -0.081 Cl
ATOM     16  C   UNL     1       7.561   7.199 -11.239  0.00  0.00    +0.016 A 
ATOM     17  C   UNL     1       6.178   7.299 -11.330  0.00  0.00    +0.036 A 
ENDBRANCH   2  11
BRANCH   1  18
ATOM     18  O   UNL     1       4.023   6.394  -9.395  0.00  0.00    -0.412 OA
BRANCH  18  24
ATOM     19  C   UNL     1       2.700   7.093  -3.740  0.00  0.00    +0.090 C 
ATOM     20  N   UNL     1       2.645   5.939  -4.411  0.00  0.00    -0.269 NA
ATOM     21  C   UNL     1       2.082   6.211  -5.721  0.00  0.00    +0.094 C 
ATOM     22  C   UNL     1       3.126   6.983  -6.522  0.00  0.00    +0.114 C 
ATOM     23  N   UNL     1       4.124   5.993  -6.921  0.00  0.00    -0.243 N 
ATOM     24  C   UNL     1       4.544   5.819  -8.252  0.00  0.00    +0.407 C 
ATOM     25  O   UNL     1       5.360   4.881  -8.498  0.00  0.00    -0.226 OA
ATOM     26  C   UNL     1       4.227   4.894  -5.961  0.00  0.00    +0.114 C 
ATOM     27  C   UNL     1       3.976   5.425  -4.557  0.00  0.00    +0.094 C 
ENDBRANCH  18  24
ENDBRANCH   1  18
TORSDOF 3
ENDMDL
MODEL 8
REMARK VINA RESULT:      -8.0      2.693      6.201
REMARK  Name = 
REMARK  3 active torsions:
REMARK  status: ('A' for Active; 'I' for Inactive)
REMARK    1  A    between atoms: C_6  and  O_8
REMARK    2  A    between atoms: O_8  and  C_9
REMARK    3  A    between atoms: N_18  and  C_19
REMARK                            x       y       z     vdW  Elec       q    Type
REMARK                         _______ _______ _______ _____ _____    ______ ____
ROOT
ATOM      1  C   UNL     1       1.633   4.832  -8.746  0.00  0.00    +0.299 C 
ATOM      2  N   UNL     1       1.679   5.899  -7.525  0.00  0.00    -0.200 N 
ATOM      3  C   UNL     1       2.795   5.308  -6.845  0.00  0.00    +0.276 C 
ATOM      4  O   UNL     1       2.993   5.143  -5.610  0.00  0.00    -0.268 OA
ATOM      5  C   UNL     1       3.810   5.115  -7.887  0.00  0.00    +0.154 A 
ATOM      6  N   UNL     1       5.164   5.141  -7.911  0.00  0.00    -0.236 NA
ATOM      7  C   UNL     1       5.822   5.465  -9.054  0.00  0.00    +0.120 A 
ATOM      8  C   UNL     1       5.050   5.919 -10.119  0.00  0.00    +0.119 A 
ATOM      9  N   UNL     1       3.740   5.570 -10.244  0.00  0.00    -0.239 NA
ATOM     10  C   UNL     1       3.199   5.194  -9.122  0.00  0.00    +0.141 A 
ENDROOT
BRANCH   2  11
ATOM     11  C   UNL     1       0.488   6.238  -6.862  0.00  0.00    +0.141 A 
ATOM     12  N   UNL     1       0.608   6.944  -5.710  0.00  0.00    -0.228 NA
ATOM     13  C   UNL     1      -0.240   6.815  -4.677  0.00  0.00    +0.112 A 
ATOM     14  C   UNL     1      -1.473   6.201  -4.854  0.00  0.00    +0.077 A 
ATOM     15 CL   UNL     1      -2.867   6.822  -3.975  0.00  0.00    -0.081 Cl
ATOM     16  C   UNL     1      -1.600   5.383  -5.968  0.00  0.00    +0.016 A 
ATOM     17  C   UNL     1      -0.579   5.349  -6.910  0.00  0.00    +0.036 A 
ENDBRANCH   2  11
BRANCH   1  18
ATOM     18  O   UNL     1       1.041   5.902  -9.759  0.00  0.00    -0.412 OA
BRANCH  18  24
ATOM     19  C   UNL     1       1.355   7.193 -15.456  0.00  0.00    +0.090 C 
ATOM     20  N   UNL     1       1.720   6.033 -14.904  0.00  0.00    -0.269 NA
ATOM     21  C   UNL     1       2.413   6.328 -13.662  0.00  0.00    +0.094 C 
ATOM     22  C   UNL     1       1.376   6.831 -12.663  0.00  0.00    +0.114 C 
ATOM     23  N   UNL     1       0.648   5.643 -12.223  0.00  0.00    -0.243 N 
ATOM     24  C   UNL     1       0.471   5.308 -10.869  0.00  0.00    +0.407 C 
ATOM     25  O   UNL     1      -0.112   4.215 -10.599  0.00  0.00    -0.226 OA
ATOM     26  C   UNL     1       0.607   4.605 -13.255  0.00  0.00    +0.114 C 
ATOM     27  C   UNL     1       0.544   5.261 -14.626  0.00  0.00    +0.094 C 
ENDBRANCH  18  24
ENDBRANCH   1  18
TORSDOF 3
ENDMDL
MODEL 9
REMARK VINA RESULT:      -7.8      3.269      6.996
REMARK  Name = 
REMARK  3 active torsions:
REMARK  status: ('A' for Active; 'I' for Inactive)
REMARK    1  A    between atoms: C_6  and  O_8
REMARK    2  A    between atoms: O_8  and  C_9
REMARK    3  A    between atoms: N_18  and  C_19
REMARK                            x       y       z     vdW  Elec       q    Type
REMARK                         _______ _______ _______ _____ _____    ______ ____
ROOT
ATOM      1  C   UNL     1       2.483   6.570 -10.992  0.00  0.00    +0.299 C 
ATOM      2  N   UNL     1       0.981   6.399 -10.403  0.00  0.00    -0.200 N 
ATOM      3  C   UNL     1       0.338   7.235 -11.375  0.00  0.00    +0.276 C 
ATOM      4  O   UNL     1      -0.594   8.074 -11.229  0.00  0.00    -0.268 OA
ATOM      5  C   UNL     1       0.837   6.759 -12.670  0.00  0.00    +0.154 A 
ATOM      6  N   UNL     1       0.316   6.677 -13.917  0.00  0.00    -0.236 NA
ATOM      7  C   UNL     1       0.762   5.732 -14.785  0.00  0.00    +0.120 A 
ATOM      8  C   UNL     1       1.637   4.775 -14.279  0.00  0.00    +0.119 A 
ATOM      9  N   UNL     1       2.422   5.033 -13.197  0.00  0.00    -0.239 NA
ATOM     10  C   UNL     1       1.973   6.004 -12.457  0.00  0.00    +0.141 A 
ENDROOT
BRANCH   2  11
ATOM     11  C   UNL     1       0.763   6.545  -9.023  0.00  0.00    +0.141 A 
ATOM     12  N   UNL     1       1.552   7.434  -8.370  0.00  0.00    -0.228 NA
ATOM     13  C   UNL     1       1.941   7.273  -7.095  0.00  0.00    +0.112 A 
ATOM     14  C   UNL     1       1.289   6.363  -6.272  0.00  0.00    +0.077 A 
ATOM     15 CL   UNL     1       1.055   6.766  -4.574  0.00  0.00    -0.081 Cl
ATOM     16  C   UNL     1       0.557   5.372  -6.910  0.00  0.00    +0.016 A 
ATOM     17  C   UNL     1       0.379   5.432  -8.287  0.00  0.00    +0.036 A 
ENDBRANCH   2  11
BRANCH   1  18
ATOM     18  O   UNL     1       2.928   5.133 -10.483  0.00  0.00    -0.412 OA
BRANCH  18  24
ATOM     19  C   UNL     1       8.279   5.829 -12.744  0.00  0.00    +0.090 C 
ATOM     20  N   UNL     1       7.724   6.611 -11.813  0.00  0.00    -0.269 NA
ATOM     21  C   UNL     1       6.333   6.818 -12.177  0.00  0.00    +0.094 C 
ATOM     22  C   UNL     1       5.595   5.502 -11.952  0.00  0.00    +0.114 C 
ATOM     23  N   UNL     1       5.423   5.392 -10.505  0.00  0.00    -0.243 N 
ATOM     24  C   UNL     1       4.178   5.153  -9.896  0.00  0.00    +0.407 C 
ATOM     25  O   UNL     1       4.129   5.151  -8.629  0.00  0.00    -0.226 OA
ATOM     26  C   UNL     1       6.492   6.066  -9.768  0.00  0.00    +0.114 C 
ATOM     27  C   UNL     1       7.795   5.945 -10.546  0.00  0.00    +0.094 C 
ENDBRANCH  18  24
ENDBRANCH   1  18
TORSDOF 3
ENDMDL
