MODEL 1
REMARK VINA RESULT:      -8.2      0.000      0.000
REMARK  Name = 
REMARK  12 active torsions:
REMARK  status: ('A' for Active; 'I' for Inactive)
REMARK    1  A    between atoms: C_2  and  O_3
REMARK    2  A    between atoms: O_3  and  C_4
REMARK    3  A    between atoms: C_4  and  C_6
REMARK    4  A    between atoms: C_6  and  C_7
REMARK    5  A    between atoms: C_6  and  N_15
REMARK    6  A    between atoms: C_7  and  C_8
REMARK    7  A    between atoms: C_8  and  C_9
REMARK    8  A    between atoms: N_15  and  CA_16
REMARK    9  A    between atoms: CA_16  and  C_18
REMARK   10  A    between atoms: C_24  and  O_25
REMARK   11  A    between atoms: C_27  and  O_28
REMARK   12  A    between atoms: C_33  and  C_34
REMARK                            x       y       z     vdW  Elec       q    Type
REMARK                         _______ _______ _______ _____ _____    ______ ____
ROOT
ATOM      1  C   ALA A   1       2.594   5.315  -7.116  0.00  0.00    +0.242 C 
ATOM      2  N   UNK A   2       2.560   6.257  -6.024  0.00  0.00    -0.266 N 
ATOM      3  C   UNK A   2       4.024   6.490  -5.429  0.00  0.00    +0.184 C 
ATOM      4  C   UNK A   2       3.525   7.468  -4.164  0.00  0.00    +0.058 C 
ATOM      5  C   UNK A   2       2.536   6.713  -3.406  0.00  0.00    -0.019 A 
ATOM      6  C   UNK A   2       1.311   6.553  -4.047  0.00  0.00    -0.003 A 
ATOM      7  C   UNK A   2       0.311   5.786  -3.516  0.00  0.00    +0.037 A 
ATOM      8  C   UNK A   2       0.486   5.301  -2.219  0.00  0.00    +0.172 A 
ATOM      9  C   UNK A   2       1.766   5.274  -1.677  0.00  0.00    +0.172 A 
ATOM     10  C   UNK A   2       2.740   6.117  -2.172  0.00  0.00    +0.036 A 
ATOM     11  C   UNK A   2       1.441   6.901  -5.498  0.00  0.00    +0.120 C 
ATOM     12  O   ALA A   1       1.396   4.990  -7.416  0.00  0.00    -0.273 OA
ENDROOT
BRANCH   3  13
ATOM     13  C   UNK A   2       3.984   5.136  -4.498  0.00  0.00    +0.383 C 
ATOM     14  O   UNK A   2       3.373   4.046  -5.032  0.00  0.00    -0.244 OA
ATOM     15  O   UNK A   2       5.168   4.974  -4.067  0.00  0.00    -0.244 OA
ENDBRANCH   3  13
BRANCH   9  16
ATOM     16  O   UNK A   2       2.032   4.253  -0.761  0.00  0.00    -0.468 OA
ATOM     17  C   UNK A   2       3.212   3.471  -0.853  0.00  0.00    +0.253 C 
ENDBRANCH   9  16
BRANCH   1  18
ATOM     18  CA  ALA A   1       3.410   5.883  -8.425  0.00  0.00    +0.149 C 
ATOM     19  CB  ALA A   1       2.355   7.169  -8.612  0.00  0.00    +0.029 C 
BRANCH  18  20
ATOM     20  N   ALA A   1       2.581   4.988  -9.462  0.00  0.00    -0.201 NA
BRANCH  20  21
ATOM     21  C   UNK A   0       2.343   6.115 -10.578  0.00  0.00    +0.172 C 
BRANCH  21  22
ATOM     22  C   UNK A   0       0.970   5.402 -11.101  0.00  0.00    +0.333 C 
ATOM     23  O   UNK A   0       0.668   4.329 -10.614  0.00  0.00    -0.249 OA
BRANCH  22  24
ATOM     24  O   UNK A   0       0.451   5.943 -12.257  0.00  0.00    -0.448 OA
BRANCH  24  26
ATOM     25  C   UNK A   0      -0.750   7.529 -11.580  0.00  0.00    +0.051 C 
ATOM     26  C   UNK A   0       0.198   7.347 -12.228  0.00  0.00    +0.209 C 
ENDBRANCH  24  26
ENDBRANCH  22  24
ENDBRANCH  21  22
BRANCH  21  27
ATOM     27  C   UNK A   0       3.315   5.313 -11.682  0.00  0.00    +0.033 C 
BRANCH  27  28
ATOM     28  C   UNK A   0       4.305   6.443 -11.914  0.00  0.00    +0.028 C 
BRANCH  28  29
ATOM     29  C   UNK A   0       5.696   6.084 -11.594  0.00  0.00    -0.022 A 
ATOM     30  C   UNK A   0       6.426   5.465 -12.605  0.00  0.00    -0.004 A 
ATOM     31  C   UNK A   0       7.777   5.225 -12.377  0.00  0.00    -0.000 A 
ATOM     32  C   UNK A   0       8.391   5.792 -11.294  0.00  0.00    -0.000 A 
ATOM     33  C   UNK A   0       7.728   6.793 -10.607  0.00  0.00    -0.000 A 
ATOM     34  C   UNK A   0       6.403   7.020 -10.848  0.00  0.00    -0.004 A 
ENDBRANCH  28  29
ENDBRANCH  27  28
ENDBRANCH  21  27
ENDBRANCH  20  21
ENDBRANCH  18  20
ENDBRANCH   1  18
BRANCH   8  35
ATOM     35  O   UNK A   2      -0.603   4.989  -1.418  0.00  0.00    -0.468 OA
ATOM     36  C   UNK A   2      -1.815   5.725  -1.411  0.00  0.00    +0.253 C 
ENDBRANCH   8  35
TORSDOF 12
ENDMDL
MODEL 2
REMARK VINA RESULT:      -8.2      2.932      6.424
REMARK  Name = 
REMARK  12 active torsions:
REMARK  status: ('A' for Active; 'I' for Inactive)
REMARK    1  A    between atoms: C_2  and  O_3
REMARK    2  A    between atoms: O_3  and  C_4
REMARK    3  A    between atoms: C_4  and  C_6
REMARK    4  A    between atoms: C_6  and  C_7
REMARK    5  A    between atoms: C_6  and  N_15
REMARK    6  A    between atoms: C_7  and  C_8
REMARK    7  A    between atoms: C_8  and  C_9
REMARK    8  A    between atoms: N_15  and  CA_16
REMARK    9  A    between atoms: CA_16  and  C_18
REMARK   10  A    between atoms: C_24  and  O_25
REMARK   11  A    between atoms: C_27  and  O_28
REMARK   12  A    between atoms: C_33  and  C_34
REMARK                            x       y       z     vdW  Elec       q    Type
REMARK                         _______ _______ _______ _____ _____    ______ ____
ROOT
ATOM      1  C   ALA A   1       2.667   6.192  -4.229  0.00  0.00    +0.242 C 
ATOM      2  N   UNK A   2       3.528   6.284  -3.075  0.00  0.00    -0.266 N 
ATOM      3  C   UNK A   2       3.263   5.071  -2.070  0.00  0.00    +0.184 C 
ATOM      4  C   UNK A   2       4.299   5.628  -0.877  0.00  0.00    +0.058 C 
ATOM      5  C   UNK A   2       3.867   6.976  -0.531  0.00  0.00    -0.019 A 
ATOM      6  C   UNK A   2       4.126   7.937  -1.504  0.00  0.00    -0.003 A 
ATOM      7  C   UNK A   2       3.695   9.228  -1.379  0.00  0.00    +0.037 A 
ATOM      8  C   UNK A   2       3.129   9.607  -0.161  0.00  0.00    +0.172 A 
ATOM      9  C   UNK A   2       2.678   8.620   0.708  0.00  0.00    +0.172 A 
ATOM     10  C   UNK A   2       3.189   7.342   0.621  0.00  0.00    +0.036 A 
ATOM     11  C   UNK A   2       4.472   7.274  -2.802  0.00  0.00    +0.120 C 
ATOM     12  O   ALA A   1       2.750   7.280  -4.891  0.00  0.00    -0.273 OA
ENDROOT
BRANCH   3  13
ATOM     13  C   UNK A   2       1.957   5.785  -1.375  0.00  0.00    +0.383 C 
ATOM     14  O   UNK A   2       1.070   6.384  -2.213  0.00  0.00    -0.244 OA
ATOM     15  O   UNK A   2       1.485   4.932  -0.559  0.00  0.00    -0.244 OA
ENDBRANCH   3  13
BRANCH   9  16
ATOM     16  O   UNK A   2       1.590   8.955   1.519  0.00  0.00    -0.468 OA
ATOM     17  C   UNK A   2       0.259   8.871   1.037  0.00  0.00    +0.253 C 
ENDBRANCH   9  16
BRANCH   1  18
ATOM     18  CA  ALA A   1       2.999   4.886  -5.171  0.00  0.00    +0.149 C 
ATOM     19  CB  ALA A   1       4.596   5.348  -5.369  0.00  0.00    +0.029 C 
BRANCH  18  20
ATOM     20  N   ALA A   1       2.566   5.623  -6.526  0.00  0.00    -0.201 NA
BRANCH  20  21
ATOM     21  C   UNK A   0       1.532   4.515  -7.051  0.00  0.00    +0.172 C 
BRANCH  21  22
ATOM     22  C   UNK A   0       2.182   4.522  -8.549  0.00  0.00    +0.333 C 
ATOM     23  O   UNK A   0       1.420   4.555  -9.497  0.00  0.00    -0.249 OA
BRANCH  22  24
ATOM     24  O   UNK A   0       3.517   4.185  -8.593  0.00  0.00    -0.448 OA
BRANCH  24  26
ATOM     25  C   UNK A   0       5.212   5.351  -9.024  0.00  0.00    +0.051 C 
ATOM     26  C   UNK A   0       4.300   4.874  -9.567  0.00  0.00    +0.209 C 
ENDBRANCH  24  26
ENDBRANCH  22  24
ENDBRANCH  21  22
BRANCH  21  27
ATOM     27  C   UNK A   0       0.382   5.675  -7.421  0.00  0.00    +0.033 C 
BRANCH  27  28
ATOM     28  C   UNK A   0      -0.767   5.054  -6.644  0.00  0.00    +0.028 C 
BRANCH  28  29
ATOM     29  C   UNK A   0      -1.159   5.824  -5.453  0.00  0.00    -0.022 A 
ATOM     30  C   UNK A   0      -0.820   7.173  -5.445  0.00  0.00    -0.004 A 
ATOM     31  C   UNK A   0      -1.283   7.954  -4.391  0.00  0.00    -0.000 A 
ATOM     32  C   UNK A   0      -2.225   7.447  -3.537  0.00  0.00    -0.000 A 
ATOM     33  C   UNK A   0      -2.880   6.282  -3.893  0.00  0.00    -0.000 A 
ATOM     34  C   UNK A   0      -2.416   5.530  -4.935  0.00  0.00    -0.004 A 
ENDBRANCH  28  29
ENDBRANCH  27  28
ENDBRANCH  21  27
ENDBRANCH  20  21
ENDBRANCH  18  20
ENDBRANCH   1  18
BRANCH   8  35
ATOM     35  O   UNK A   2       3.146  10.931   0.256  0.00  0.00    -0.468 OA
ATOM     36  C   UNK A   2       3.924  11.943  -0.361  0.00  0.00    +0.253 C 
ENDBRANCH   8  35
TORSDOF 12
ENDMDL
MODEL 3
REMARK VINA RESULT:      -7.8      2.400      8.355
REMARK  Name = 
REMARK  12 active torsions:
REMARK  status: ('A' for Active; 'I' for Inactive)
REMARK    1  A    between atoms: C_2  and  O_3
REMARK    2  A    between atoms: O_3  and  C_4
REMARK    3  A    between atoms: C_4  and  C_6
REMARK    4  A    between atoms: C_6  and  C_7
REMARK    5  A    between atoms: C_6  and  N_15
REMARK    6  A    between atoms: C_7  and  C_8
REMARK    7  A    between atoms: C_8  and  C_9
REMARK    8  A    between atoms: N_15  and  CA_16
REMARK    9  A    between atoms: CA_16  and  C_18
REMARK   10  A    between atoms: C_24  and  O_25
REMARK   11  A    between atoms: C_27  and  O_28
REMARK   12  A    between atoms: C_33  and  C_34
REMARK                            x       y       z     vdW  Elec       q    Type
REMARK                         _______ _______ _______ _____ _____    ______ ____
ROOT
ATOM      1  C   ALA A   1       0.202   5.678  -7.648  0.00  0.00    +0.242 C 
ATOM      2  N   UNK A   2       1.495   5.073  -7.854  0.00  0.00    -0.266 N 
ATOM      3  C   UNK A   2       2.524   5.529  -6.721  0.00  0.00    +0.184 C 
ATOM      4  C   UNK A   2       3.851   4.764  -7.397  0.00  0.00    +0.058 C 
ATOM      5  C   UNK A   2       3.987   5.268  -8.758  0.00  0.00    -0.019 A 
ATOM      6  C   UNK A   2       3.011   4.821  -9.643  0.00  0.00    -0.003 A 
ATOM      7  C   UNK A   2       2.935   5.279 -10.929  0.00  0.00    +0.037 A 
ATOM      8  C   UNK A   2       3.976   6.085 -11.391  0.00  0.00    +0.172 A 
ATOM      9  C   UNK A   2       4.815   6.697 -10.468  0.00  0.00    +0.172 A 
ATOM     10  C   UNK A   2       4.942   6.170  -9.199  0.00  0.00    +0.036 A 
ATOM     11  C   UNK A   2       1.871   4.212  -8.886  0.00  0.00    +0.120 C 
ATOM     12  O   ALA A   1      -0.519   5.469  -8.681  0.00  0.00    -0.273 OA
ENDROOT
BRANCH   3  13
ATOM     13  C   UNK A   2       2.875   6.956  -7.457  0.00  0.00    +0.383 C 
ATOM     14  O   UNK A   2       1.861   7.563  -8.127  0.00  0.00    -0.244 OA
ATOM     15  O   UNK A   2       3.486   7.655  -6.589  0.00  0.00    -0.244 OA
ENDBRANCH   3  13
BRANCH   9  16
ATOM     16  O   UNK A   2       5.356   7.931 -10.841  0.00  0.00    -0.468 OA
ATOM     17  C   UNK A   2       6.717   8.053 -11.220  0.00  0.00    +0.253 C 
ENDBRANCH   9  16
BRANCH   1  18
ATOM     18  CA  ALA A   1      -0.540   5.150  -6.279  0.00  0.00    +0.149 C 
ATOM     19  CB  ALA A   1      -2.064   5.387  -6.930  0.00  0.00    +0.029 C 
BRANCH  18  20
ATOM     20  N   ALA A   1      -0.550   6.601  -5.601  0.00  0.00    -0.201 NA
BRANCH  20  21
ATOM     21  C   UNK A   0      -0.678   6.123  -4.075  0.00  0.00    +0.172 C 
BRANCH  21  22
ATOM     22  C   UNK A   0      -1.597   7.413  -3.678  0.00  0.00    +0.333 C 
ATOM     23  O   UNK A   0      -1.683   8.318  -4.488  0.00  0.00    -0.249 OA
BRANCH  22  24
ATOM     24  O   UNK A   0      -1.938   7.484  -2.346  0.00  0.00    -0.448 OA
BRANCH  24  26
ATOM     25  C   UNK A   0      -3.759   6.461  -2.584  0.00  0.00    +0.051 C 
ATOM     26  C   UNK A   0      -2.834   6.475  -1.879  0.00  0.00    +0.209 C 
ENDBRANCH  24  26
ENDBRANCH  22  24
ENDBRANCH  21  22
BRANCH  21  27
ATOM     27  C   UNK A   0       0.759   6.875  -3.655  0.00  0.00    +0.033 C 
BRANCH  27  28
ATOM     28  C   UNK A   0       1.291   5.770  -2.756  0.00  0.00    +0.028 C 
BRANCH  28  29
ATOM     29  C   UNK A   0       2.579   6.094  -2.120  0.00  0.00    -0.022 A 
ATOM     30  C   UNK A   0       3.478   6.836  -2.880  0.00  0.00    -0.004 A 
ATOM     31  C   UNK A   0       4.651   7.262  -2.267  0.00  0.00    -0.000 A 
ATOM     32  C   UNK A   0       4.785   7.147  -0.910  0.00  0.00    -0.000 A 
ATOM     33  C   UNK A   0       3.660   6.858  -0.158  0.00  0.00    -0.000 A 
ATOM     34  C   UNK A   0       2.514   6.447  -0.777  0.00  0.00    -0.004 A 
ENDBRANCH  28  29
ENDBRANCH  27  28
ENDBRANCH  21  27
ENDBRANCH  20  21
ENDBRANCH  18  20
ENDBRANCH   1  18
BRANCH   8  35
ATOM     35  O   UNK A   2       4.275   6.163 -12.745  0.00  0.00    -0.468 OA
ATOM     36  C   UNK A   2       4.857   5.105 -13.488  0.00  0.00    +0.253 C 
ENDBRANCH   8  35
TORSDOF 12
ENDMDL
MODEL 4
REMARK VINA RESULT:      -7.8      3.037      9.679
REMARK  Name = 
REMARK  12 active torsions:
REMARK  status: ('A' for Active; 'I' for Inactive)
REMARK    1  A    between atoms: C_2  and  O_3
REMARK    2  A    between atoms: O_3  and  C_4
REMARK    3  A    between atoms: C_4  and  C_6
REMARK    4  A    between atoms: C_6  and  C_7
REMARK    5  A    between atoms: C_6  and  N_15
REMARK    6  A    between atoms: C_7  and  C_8
REMARK    7  A    between atoms: C_8  and  C_9
REMARK    8  A    between atoms: N_15  and  CA_16
REMARK    9  A    between atoms: CA_16  and  C_18
REMARK   10  A    between atoms: C_24  and  O_25
REMARK   11  A    between atoms: C_27  and  O_28
REMARK   12  A    between atoms: C_33  and  C_34
REMARK                            x       y       z     vdW  Elec       q    Type
REMARK                         _______ _______ _______ _____ _____    ______ ____
ROOT
ATOM      1  C   ALA A   1       4.163   6.263 -10.059  0.00  0.00    +0.242 C 
ATOM      2  N   UNK A   2       4.934   5.579 -11.069  0.00  0.00    -0.266 N 
ATOM      3  C   UNK A   2       6.499   5.803 -10.837  0.00  0.00    +0.184 C 
ATOM      4  C   UNK A   2       6.977   5.016 -12.236  0.00  0.00    +0.058 C 
ATOM      5  C   UNK A   2       6.299   5.671 -13.347  0.00  0.00    -0.019 A 
ATOM      6  C   UNK A   2       4.932   5.422 -13.421  0.00  0.00    -0.003 A 
ATOM      7  C   UNK A   2       4.132   6.039 -14.342  0.00  0.00    +0.037 A 
ATOM      8  C   UNK A   2       4.754   6.803 -15.330  0.00  0.00    +0.172 A 
ATOM      9  C   UNK A   2       6.063   7.224 -15.132  0.00  0.00    +0.172 A 
ATOM     10  C   UNK A   2       6.881   6.535 -14.260  0.00  0.00    +0.036 A 
ATOM     11  C   UNK A   2       4.448   4.824 -12.136  0.00  0.00    +0.120 C 
ATOM     12  O   ALA A   1       2.932   6.246 -10.400  0.00  0.00    -0.273 OA
ENDROOT
BRANCH   3  13
ATOM     13  C   UNK A   2       6.511   7.274 -11.569  0.00  0.00    +0.383 C 
ATOM     14  O   UNK A   2       5.476   8.107 -11.284  0.00  0.00    -0.244 OA
ATOM     15  O   UNK A   2       7.682   7.738 -11.400  0.00  0.00    -0.244 OA
ENDBRANCH   3  13
BRANCH   9  16
ATOM     16  O   UNK A   2       6.421   8.443 -15.714  0.00  0.00    -0.468 OA
ATOM     17  C   UNK A   2       7.182   8.492 -16.910  0.00  0.00    +0.253 C 
ENDBRANCH   9  16
BRANCH   1  18
ATOM     18  CA  ALA A   1       4.381   5.636  -8.555  0.00  0.00    +0.149 C 
ATOM     19  CB  ALA A   1       3.372   4.339  -8.874  0.00  0.00    +0.029 C 
BRANCH  18  20
ATOM     20  N   ALA A   1       3.178   6.478  -7.916  0.00  0.00    -0.201 NA
BRANCH  20  21
ATOM     21  C   UNK A   0       3.034   5.646  -6.552  0.00  0.00    +0.172 C 
BRANCH  21  22
ATOM     22  C   UNK A   0       1.514   6.189  -6.303  0.00  0.00    +0.333 C 
ATOM     23  O   UNK A   0       0.754   6.203  -7.254  0.00  0.00    -0.249 OA
BRANCH  22  24
ATOM     24  O   UNK A   0       1.335   6.861  -5.114  0.00  0.00    -0.448 OA
BRANCH  24  26
ATOM     25  C   UNK A   0       0.754   5.760  -3.421  0.00  0.00    +0.051 C 
ATOM     26  C   UNK A   0       0.280   6.381  -4.282  0.00  0.00    +0.209 C 
ENDBRANCH  24  26
ENDBRANCH  22  24
ENDBRANCH  21  22
BRANCH  21  27
ATOM     27  C   UNK A   0       3.740   6.873  -5.657  0.00  0.00    +0.033 C 
BRANCH  27  28
ATOM     28  C   UNK A   0       4.710   6.000  -4.877  0.00  0.00    +0.028 C 
BRANCH  28  29
ATOM     29  C   UNK A   0       4.649   6.204  -3.421  0.00  0.00    -0.022 A 
ATOM     30  C   UNK A   0       4.155   7.429  -2.985  0.00  0.00    -0.004 A 
ATOM     31  C   UNK A   0       3.970   7.606  -1.618  0.00  0.00    -0.000 A 
ATOM     32  C   UNK A   0       4.054   6.528  -0.779  0.00  0.00    -0.000 A 
ATOM     33  C   UNK A   0       4.057   5.260  -1.332  0.00  0.00    -0.000 A 
ATOM     34  C   UNK A   0       4.234   5.105  -2.677  0.00  0.00    -0.004 A 
ENDBRANCH  28  29
ENDBRANCH  27  28
ENDBRANCH  21  27
ENDBRANCH  20  21
ENDBRANCH  18  20
ENDBRANCH   1  18
BRANCH   8  35
ATOM     35  O   UNK A   2       4.142   7.022 -16.557  0.00  0.00    -0.468 OA
ATOM     36  C   UNK A   2       3.237   8.084 -16.810  0.00  0.00    +0.253 C 
ENDBRANCH   8  35
TORSDOF 12
ENDMDL
MODEL 5
REMARK VINA RESULT:      -7.6      2.488      8.908
REMARK  Name = 
REMARK  12 active torsions:
REMARK  status: ('A' for Active; 'I' for Inactive)
REMARK    1  A    between atoms: C_2  and  O_3
REMARK    2  A    between atoms: O_3  and  C_4
REMARK    3  A    between atoms: C_4  and  C_6
REMARK    4  A    between atoms: C_6  and  C_7
REMARK    5  A    between atoms: C_6  and  N_15
REMARK    6  A    between atoms: C_7  and  C_8
REMARK    7  A    between atoms: C_8  and  C_9
REMARK    8  A    between atoms: N_15  and  CA_16
REMARK    9  A    between atoms: CA_16  and  C_18
REMARK   10  A    between atoms: C_24  and  O_25
REMARK   11  A    between atoms: C_27  and  O_28
REMARK   12  A    between atoms: C_33  and  C_34
REMARK                            x       y       z     vdW  Elec       q    Type
REMARK                         _______ _______ _______ _____ _____    ______ ____
ROOT
ATOM      1  C   ALA A   1       1.872   5.437  -5.509  0.00  0.00    +0.242 C 
ATOM      2  N   UNK A   2       2.642   5.432  -6.729  0.00  0.00    -0.266 N 
ATOM      3  C   UNK A   2       3.311   6.860  -6.984  0.00  0.00    +0.184 C 
ATOM      4  C   UNK A   2       3.939   6.472  -8.488  0.00  0.00    +0.058 C 
ATOM      5  C   UNK A   2       2.823   6.027  -9.313  0.00  0.00    -0.019 A 
ATOM      6  C   UNK A   2       2.308   4.780  -8.970  0.00  0.00    -0.003 A 
ATOM      7  C   UNK A   2       1.198   4.263  -9.579  0.00  0.00    +0.037 A 
ATOM      8  C   UNK A   2       0.689   4.946 -10.684  0.00  0.00    +0.172 A 
ATOM      9  C   UNK A   2       1.057   6.271 -10.886  0.00  0.00    +0.172 A 
ATOM     10  C   UNK A   2       2.226   6.752 -10.332  0.00  0.00    +0.036 A 
ATOM     11  C   UNK A   2       2.809   4.371  -7.619  0.00  0.00    +0.120 C 
ATOM     12  O   ALA A   1       1.182   4.364  -5.455  0.00  0.00    -0.273 OA
ENDROOT
BRANCH   3  13
ATOM     13  C   UNK A   2       1.949   7.509  -7.635  0.00  0.00    +0.383 C 
ATOM     14  O   UNK A   2       0.781   7.251  -6.989  0.00  0.00    -0.244 OA
ATOM     15  O   UNK A   2       2.219   8.729  -7.863  0.00  0.00    -0.244 OA
ENDBRANCH   3  13
BRANCH   9  16
ATOM     16  O   UNK A   2       0.113   7.091 -11.509  0.00  0.00    -0.468 OA
ATOM     17  C   UNK A   2       0.361   7.664 -12.782  0.00  0.00    +0.253 C 
ENDBRANCH   9  16
BRANCH   1  18
ATOM     18  CA  ALA A   1       2.803   5.624  -4.167  0.00  0.00    +0.149 C 
ATOM     19  CB  ALA A   1       3.665   4.224  -4.486  0.00  0.00    +0.029 C 
BRANCH  18  20
ATOM     20  N   ALA A   1       1.779   4.837  -3.220  0.00  0.00    -0.201 NA
BRANCH  20  21
ATOM     21  C   UNK A   0       1.480   6.030  -2.189  0.00  0.00    +0.172 C 
BRANCH  21  22
ATOM     22  C   UNK A   0       2.400   5.345  -1.027  0.00  0.00    +0.333 C 
ATOM     23  O   UNK A   0       2.185   4.180  -0.748  0.00  0.00    -0.249 OA
BRANCH  22  24
ATOM     24  O   UNK A   0       3.121   6.240  -0.268  0.00  0.00    -0.448 OA
BRANCH  24  26
ATOM     25  C   UNK A   0       4.070   8.110  -0.420  0.00  0.00    +0.051 C 
ATOM     26  C   UNK A   0       4.002   7.099  -0.991  0.00  0.00    +0.209 C 
ENDBRANCH  24  26
ENDBRANCH  22  24
ENDBRANCH  21  22
BRANCH  21  27
ATOM     27  C   UNK A   0       0.068   5.301  -1.661  0.00  0.00    +0.033 C 
BRANCH  27  28
ATOM     28  C   UNK A   0      -0.857   6.480  -1.917  0.00  0.00    +0.028 C 
BRANCH  28  29
ATOM     29  C   UNK A   0      -1.287   6.600  -3.320  0.00  0.00    -0.022 A 
ATOM     30  C   UNK A   0      -1.829   5.459  -3.903  0.00  0.00    -0.004 A 
ATOM     31  C   UNK A   0      -2.357   5.572  -5.185  0.00  0.00    -0.000 A 
ATOM     32  C   UNK A   0      -2.536   6.812  -5.735  0.00  0.00    -0.000 A 
ATOM     33  C   UNK A   0      -2.438   7.920  -4.913  0.00  0.00    -0.000 A 
ATOM     34  C   UNK A   0      -1.923   7.790  -3.654  0.00  0.00    -0.004 A 
ENDBRANCH  28  29
ENDBRANCH  27  28
ENDBRANCH  21  27
ENDBRANCH  20  21
ENDBRANCH  18  20
ENDBRANCH   1  18
BRANCH   8  35
ATOM     35  O   UNK A   2      -0.052   4.286 -11.655  0.00  0.00    -0.468 OA
ATOM     36  C   UNK A   2       0.374   4.123 -12.998  0.00  0.00    +0.253 C 
ENDBRANCH   8  35
TORSDOF 12
ENDMDL
MODEL 6
REMARK VINA RESULT:      -7.6      2.805      5.182
REMARK  Name = 
REMARK  12 active torsions:
REMARK  status: ('A' for Active; 'I' for Inactive)
REMARK    1  A    between atoms: C_2  and  O_3
REMARK    2  A    between atoms: O_3  and  C_4
REMARK    3  A    between atoms: C_4  and  C_6
REMARK    4  A    between atoms: C_6  and  C_7
REMARK    5  A    between atoms: C_6  and  N_15
REMARK    6  A    between atoms: C_7  and  C_8
REMARK    7  A    between atoms: C_8  and  C_9
REMARK    8  A    between atoms: N_15  and  CA_16
REMARK    9  A    between atoms: CA_16  and  C_18
REMARK   10  A    between atoms: C_24  and  O_25
REMARK   11  A    between atoms: C_27  and  O_28
REMARK   12  A    between atoms: C_33  and  C_34
REMARK                            x       y       z     vdW  Elec       q    Type
REMARK                         _______ _______ _______ _____ _____    ______ ____
ROOT
ATOM      1  C   ALA A   1       2.734   6.213  -4.128  0.00  0.00    +0.242 C 
ATOM      2  N   UNK A   2       3.570   6.316  -2.957  0.00  0.00    -0.266 N 
ATOM      3  C   UNK A   2       3.287   5.109  -1.949  0.00  0.00    +0.184 C 
ATOM      4  C   UNK A   2       4.296   5.677  -0.738  0.00  0.00    +0.058 C 
ATOM      5  C   UNK A   2       3.852   7.026  -0.411  0.00  0.00    -0.019 A 
ATOM      6  C   UNK A   2       4.130   7.981  -1.384  0.00  0.00    -0.003 A 
ATOM      7  C   UNK A   2       3.692   9.272  -1.278  0.00  0.00    +0.037 A 
ATOM      8  C   UNK A   2       3.100   9.657  -0.075  0.00  0.00    +0.172 A 
ATOM      9  C   UNK A   2       2.633   8.675   0.791  0.00  0.00    +0.172 A 
ATOM     10  C   UNK A   2       3.149   7.397   0.724  0.00  0.00    +0.036 A 
ATOM     11  C   UNK A   2       4.505   7.311  -2.670  0.00  0.00    +0.120 C 
ATOM     12  O   ALA A   1       2.827   7.298  -4.796  0.00  0.00    -0.273 OA
ENDROOT
BRANCH   3  13
ATOM     13  C   UNK A   2       1.964   5.824  -1.287  0.00  0.00    +0.383 C 
ATOM     14  O   UNK A   2       1.116   6.451  -2.143  0.00  0.00    -0.244 OA
ATOM     15  O   UNK A   2       1.453   4.959  -0.508  0.00  0.00    -0.244 OA
ENDBRANCH   3  13
BRANCH   9  16
ATOM     16  O   UNK A   2       1.527   9.012   1.576  0.00  0.00    -0.468 OA
ATOM     17  C   UNK A   2       0.204   8.848   1.094  0.00  0.00    +0.253 C 
ENDBRANCH   9  16
BRANCH   1  18
ATOM     18  CA  ALA A   1       3.090   4.902  -5.054  0.00  0.00    +0.149 C 
ATOM     19  CB  ALA A   1       4.738   5.129  -4.864  0.00  0.00    +0.029 C 
BRANCH  18  20
ATOM     20  N   ALA A   1       3.082   5.736  -6.421  0.00  0.00    -0.201 NA
BRANCH  20  21
ATOM     21  C   UNK A   0       2.031   4.825  -7.222  0.00  0.00    +0.172 C 
BRANCH  21  22
ATOM     22  C   UNK A   0       3.098   4.533  -8.423  0.00  0.00    +0.333 C 
ATOM     23  O   UNK A   0       3.160   3.400  -8.863  0.00  0.00    -0.249 OA
BRANCH  22  24
ATOM     24  O   UNK A   0       4.032   5.527  -8.611  0.00  0.00    -0.448 OA
BRANCH  24  26
ATOM     25  C   UNK A   0       4.026   6.328 -10.555  0.00  0.00    +0.051 C 
ATOM     26  C   UNK A   0       4.634   5.579  -9.904  0.00  0.00    +0.209 C 
ENDBRANCH  24  26
ENDBRANCH  22  24
ENDBRANCH  21  22
BRANCH  21  27
ATOM     27  C   UNK A   0       1.364   6.159  -7.985  0.00  0.00    +0.033 C 
BRANCH  27  28
ATOM     28  C   UNK A   0       0.173   5.444  -8.602  0.00  0.00    +0.028 C 
BRANCH  28  29
ATOM     29  C   UNK A   0       0.058   5.636 -10.057  0.00  0.00    -0.022 A 
ATOM     30  C   UNK A   0       0.431   6.882 -10.551  0.00  0.00    -0.004 A 
ATOM     31  C   UNK A   0       0.451   7.055 -11.931  0.00  0.00    -0.000 A 
ATOM     32  C   UNK A   0       0.331   5.965 -12.750  0.00  0.00    -0.000 A 
ATOM     33  C   UNK A   0       0.459   4.704 -12.196  0.00  0.00    -0.000 A 
ATOM     34  C   UNK A   0       0.445   4.553 -10.838  0.00  0.00    -0.004 A 
ENDBRANCH  28  29
ENDBRANCH  27  28
ENDBRANCH  21  27
ENDBRANCH  20  21
ENDBRANCH  18  20
ENDBRANCH   1  18
BRANCH   8  35
ATOM     35  O   UNK A   2       3.104  10.984   0.333  0.00  0.00    -0.468 OA
ATOM     36  C   UNK A   2       4.044  11.945  -0.116  0.00  0.00    +0.253 C 
ENDBRANCH   8  35
TORSDOF 12
ENDMDL
MODEL 7
REMARK VINA RESULT:      -7.6      2.558      5.283
REMARK  Name = 
REMARK  12 active torsions:
REMARK  status: ('A' for Active; 'I' for Inactive)
REMARK    1  A    between atoms: C_2  and  O_3
REMARK    2  A    between atoms: O_3  and  C_4
REMARK    3  A    between atoms: C_4  and  C_6
REMARK    4  A    between atoms: C_6  and  C_7
REMARK    5  A    between atoms: C_6  and  N_15
REMARK    6  A    between atoms: C_7  and  C_8
REMARK    7  A    between atoms: C_8  and  C_9
REMARK    8  A    between atoms: N_15  and  CA_16
REMARK    9  A    between atoms: CA_16  and  C_18
REMARK   10  A    between atoms: C_24  and  O_25
REMARK   11  A    between atoms: C_27  and  O_28
REMARK   12  A    between atoms: C_33  and  C_34
REMARK                            x       y       z     vdW  Elec       q    Type
REMARK                         _______ _______ _______ _____ _____    ______ ____
ROOT
ATOM      1  C   ALA A   1       0.465   6.086  -4.758  0.00  0.00    +0.242 C 
ATOM      2  N   UNK A   2      -0.171   5.527  -3.591  0.00  0.00    -0.266 N 
ATOM      3  C   UNK A   2      -1.762   5.578  -3.731  0.00  0.00    +0.184 C 
ATOM      4  C   UNK A   2      -2.073   5.009  -2.187  0.00  0.00    +0.058 C 
ATOM      5  C   UNK A   2      -1.390   5.900  -1.258  0.00  0.00    -0.019 A 
ATOM      6  C   UNK A   2      -0.003   5.780  -1.253  0.00  0.00    -0.003 A 
ATOM      7  C   UNK A   2       0.792   6.611  -0.514  0.00  0.00    +0.037 A 
ATOM      8  C   UNK A   2       0.166   7.482   0.378  0.00  0.00    +0.172 A 
ATOM      9  C   UNK A   2      -1.187   7.753   0.218  0.00  0.00    +0.172 A 
ATOM     10  C   UNK A   2      -1.991   6.859  -0.460  0.00  0.00    +0.036 A 
ATOM     11  C   UNK A   2       0.451   5.010  -2.455  0.00  0.00    +0.120 C 
ATOM     12  O   ALA A   1       1.711   6.229  -4.518  0.00  0.00    -0.273 OA
ENDROOT
BRANCH   3  13
ATOM     13  C   UNK A   2      -1.866   7.148  -3.256  0.00  0.00    +0.383 C 
ATOM     14  O   UNK A   2      -1.144   8.051  -3.970  0.00  0.00    -0.244 OA
ATOM     15  O   UNK A   2      -3.106   7.389  -3.118  0.00  0.00    -0.244 OA
ENDBRANCH   3  13
BRANCH   9  16
ATOM     16  O   UNK A   2      -1.620   9.021   0.615  0.00  0.00    -0.468 OA
ATOM     17  C   UNK A   2      -2.317   9.212   1.835  0.00  0.00    +0.253 C 
ENDBRANCH   9  16
BRANCH   1  18
ATOM     18  CA  ALA A   1       0.212   5.192  -6.114  0.00  0.00    +0.149 C 
ATOM     19  CB  ALA A   1       1.631   4.331  -5.897  0.00  0.00    +0.029 C 
BRANCH  18  20
ATOM     20  N   ALA A   1       0.940   6.248  -7.073  0.00  0.00    -0.201 NA
BRANCH  20  21
ATOM     21  C   UNK A   0       1.280   5.245  -8.278  0.00  0.00    +0.172 C 
BRANCH  21  22
ATOM     22  C   UNK A   0       2.342   6.294  -8.940  0.00  0.00    +0.333 C 
ATOM     23  O   UNK A   0       2.096   7.483  -8.849  0.00  0.00    -0.249 OA
BRANCH  22  24
ATOM     24  O   UNK A   0       3.255   5.719  -9.796  0.00  0.00    -0.448 OA
BRANCH  24  26
ATOM     25  C   UNK A   0       4.379   6.651 -11.308  0.00  0.00    +0.051 C 
ATOM     26  C   UNK A   0       4.373   6.532 -10.151  0.00  0.00    +0.209 C 
ENDBRANCH  24  26
ENDBRANCH  22  24
ENDBRANCH  21  22
BRANCH  21  27
ATOM     27  C   UNK A   0      -0.011   5.803  -9.188  0.00  0.00    +0.033 C 
BRANCH  27  28
ATOM     28  C   UNK A   0       0.152   4.839 -10.352  0.00  0.00    +0.028 C 
BRANCH  28  29
ATOM     29  C   UNK A   0       0.178   5.501 -11.667  0.00  0.00    -0.022 A 
ATOM     30  C   UNK A   0       0.054   6.886 -11.669  0.00  0.00    -0.004 A 
ATOM     31  C   UNK A   0       0.198   7.551 -12.882  0.00  0.00    -0.000 A 
ATOM     32  C   UNK A   0       0.673   6.873 -13.972  0.00  0.00    -0.000 A 
ATOM     33  C   UNK A   0       1.244   5.628 -13.777  0.00  0.00    -0.000 A 
ATOM     34  C   UNK A   0       1.098   4.992 -12.577  0.00  0.00    -0.004 A 
ENDBRANCH  28  29
ENDBRANCH  27  28
ENDBRANCH  21  27
ENDBRANCH  20  21
ENDBRANCH  18  20
ENDBRANCH   1  18
BRANCH   8  35
ATOM     35  O   UNK A   2       0.831   7.959   1.499  0.00  0.00    -0.468 OA
ATOM     36  C   UNK A   2       2.205   8.313   1.511  0.00  0.00    +0.253 C 
ENDBRANCH   8  35
TORSDOF 12
ENDMDL
MODEL 8
REMARK VINA RESULT:      -7.5      2.267      8.941
REMARK  Name = 
REMARK  12 active torsions:
REMARK  status: ('A' for Active; 'I' for Inactive)
REMARK    1  A    between atoms: C_2  and  O_3
REMARK    2  A    between atoms: O_3  and  C_4
REMARK    3  A    between atoms: C_4  and  C_6
REMARK    4  A    between atoms: C_6  and  C_7
REMARK    5  A    between atoms: C_6  and  N_15
REMARK    6  A    between atoms: C_7  and  C_8
REMARK    7  A    between atoms: C_8  and  C_9
REMARK    8  A    between atoms: N_15  and  CA_16
REMARK    9  A    between atoms: CA_16  and  C_18
REMARK   10  A    between atoms: C_24  and  O_25
REMARK   11  A    between atoms: C_27  and  O_28
REMARK   12  A    between atoms: C_33  and  C_34
REMARK                            x       y       z     vdW  Elec       q    Type
REMARK                         _______ _______ _______ _____ _____    ______ ____
ROOT
ATOM      1  C   ALA A   1       2.310   4.701  -6.412  0.00  0.00    +0.242 C 
ATOM      2  N   UNK A   2       2.455   5.767  -7.374  0.00  0.00    -0.266 N 
ATOM      3  C   UNK A   2       1.207   5.808  -8.370  0.00  0.00    +0.184 C 
ATOM      4  C   UNK A   2       1.828   7.015  -9.350  0.00  0.00    +0.058 C 
ATOM      5  C   UNK A   2       3.128   6.556  -9.821  0.00  0.00    -0.019 A 
ATOM      6  C   UNK A   2       4.125   6.536  -8.849  0.00  0.00    -0.003 A 
ATOM      7  C   UNK A   2       5.372   6.037  -9.102  0.00  0.00    +0.037 A 
ATOM      8  C   UNK A   2       5.680   5.701 -10.420  0.00  0.00    +0.172 A 
ATOM      9  C   UNK A   2       4.644   5.514 -11.327  0.00  0.00    +0.172 A 
ATOM     10  C   UNK A   2       3.415   6.098 -11.096  0.00  0.00    +0.036 A 
ATOM     11  C   UNK A   2       3.517   6.664  -7.486  0.00  0.00    +0.120 C 
ATOM     12  O   ALA A   1       3.413   4.561  -5.784  0.00  0.00    -0.273 OA
ENDROOT
BRANCH   3  13
ATOM     13  C   UNK A   2       1.795   4.616  -9.336  0.00  0.00    +0.383 C 
ATOM     14  O   UNK A   2       2.404   3.572  -8.715  0.00  0.00    -0.244 OA
ATOM     15  O   UNK A   2       0.859   4.330 -10.147  0.00  0.00    -0.244 OA
ENDBRANCH   3  13
BRANCH   9  16
ATOM     16  O   UNK A   2       4.871   4.589 -12.350  0.00  0.00    -0.468 OA
ATOM     17  C   UNK A   2       4.536   4.883 -13.696  0.00  0.00    +0.253 C 
ENDBRANCH   9  16
BRANCH   1  18
ATOM     18  CA  ALA A   1       1.054   4.939  -5.379  0.00  0.00    +0.149 C 
ATOM     19  CB  ALA A   1       1.234   6.602  -5.433  0.00  0.00    +0.029 C 
BRANCH  18  20
ATOM     20  N   ALA A   1       1.973   4.831  -4.072  0.00  0.00    -0.201 NA
BRANCH  20  21
ATOM     21  C   UNK A   0       1.351   6.073  -3.269  0.00  0.00    +0.172 C 
BRANCH  21  22
ATOM     22  C   UNK A   0       2.693   6.240  -2.354  0.00  0.00    +0.333 C 
ATOM     23  O   UNK A   0       2.766   5.587  -1.331  0.00  0.00    -0.249 OA
BRANCH  22  24
ATOM     24  O   UNK A   0       3.472   7.329  -2.678  0.00  0.00    -0.448 OA
BRANCH  24  26
ATOM     25  C   UNK A   0       4.958   7.804  -4.087  0.00  0.00    +0.051 C 
ATOM     26  C   UNK A   0       4.750   7.034  -3.240  0.00  0.00    +0.209 C 
ENDBRANCH  24  26
ENDBRANCH  22  24
ENDBRANCH  21  22
BRANCH  21  27
ATOM     27  C   UNK A   0       0.591   5.062  -2.171  0.00  0.00    +0.033 C 
BRANCH  27  28
ATOM     28  C   UNK A   0      -0.667   5.896  -1.990  0.00  0.00    +0.028 C 
BRANCH  28  29
ATOM     29  C   UNK A   0      -1.256   6.360  -3.257  0.00  0.00    -0.022 A 
ATOM     30  C   UNK A   0      -2.109   5.474  -3.907  0.00  0.00    -0.004 A 
ATOM     31  C   UNK A   0      -2.777   5.927  -5.040  0.00  0.00    -0.000 A 
ATOM     32  C   UNK A   0      -2.760   7.261  -5.346  0.00  0.00    -0.000 A 
ATOM     33  C   UNK A   0      -2.309   8.153  -4.390  0.00  0.00    -0.000 A 
ATOM     34  C   UNK A   0      -1.661   7.690  -3.280  0.00  0.00    -0.004 A 
ENDBRANCH  28  29
ENDBRANCH  27  28
ENDBRANCH  21  27
ENDBRANCH  20  21
ENDBRANCH  18  20
ENDBRANCH   1  18
BRANCH   8  35
ATOM     35  O   UNK A   2       6.993   5.696 -10.870  0.00  0.00    -0.468 OA
ATOM     36  C   UNK A   2       7.576   6.750 -11.619  0.00  0.00    +0.253 C 
ENDBRANCH   8  35
TORSDOF 12
ENDMDL
MODEL 9
REMARK VINA RESULT:      -7.5      1.978      8.890
REMARK  Name = 
REMARK  12 active torsions:
REMARK  status: ('A' for Active; 'I' for Inactive)
REMARK    1  A    between atoms: C_2  and  O_3
REMARK    2  A    between atoms: O_3  and  C_4
REMARK    3  A    between atoms: C_4  and  C_6
REMARK    4  A    between atoms: C_6  and  C_7
REMARK    5  A    between atoms: C_6  and  N_15
REMARK    6  A    between atoms: C_7  and  C_8
REMARK    7  A    between atoms: C_8  and  C_9
REMARK    8  A    between atoms: N_15  and  CA_16
REMARK    9  A    between atoms: CA_16  and  C_18
REMARK   10  A    between atoms: C_24  and  O_25
REMARK   11  A    between atoms: C_27  and  O_28
REMARK   12  A    between atoms: C_33  and  C_34
REMARK                            x       y       z     vdW  Elec       q    Type
REMARK                         _______ _______ _______ _____ _____    ______ ____
ROOT
ATOM      1  C   ALA A   1       3.564   5.471  -4.941  0.00  0.00    +0.242 C 
ATOM      2  N   UNK A   2       2.926   6.375  -5.866  0.00  0.00    -0.266 N 
ATOM      3  C   UNK A   2       1.350   6.434  -5.608  0.00  0.00    +0.184 C 
ATOM      4  C   UNK A   2       1.014   7.418  -6.921  0.00  0.00    +0.058 C 
ATOM      5  C   UNK A   2       1.539   6.747  -8.103  0.00  0.00    -0.019 A 
ATOM      6  C   UNK A   2       2.928   6.736  -8.196  0.00  0.00    -0.003 A 
ATOM      7  C   UNK A   2       3.582   6.062  -9.189  0.00  0.00    +0.037 A 
ATOM      8  C   UNK A   2       2.812   5.520 -10.219  0.00  0.00    +0.172 A 
ATOM      9  C   UNK A   2       1.449   5.341 -10.018  0.00  0.00    +0.172 A 
ATOM     10  C   UNK A   2       0.790   6.093  -9.067  0.00  0.00    +0.036 A 
ATOM     11  C   UNK A   2       3.534   7.116  -6.879  0.00  0.00    +0.120 C 
ATOM     12  O   ALA A   1       4.770   5.283  -5.315  0.00  0.00    -0.273 OA
ENDROOT
BRANCH   3  13
ATOM     13  C   UNK A   2       1.046   5.063  -6.460  0.00  0.00    +0.383 C 
ATOM     14  O   UNK A   2       1.899   4.022  -6.269  0.00  0.00    -0.244 OA
ATOM     15  O   UNK A   2      -0.192   4.822  -6.304  0.00  0.00    -0.244 OA
ENDBRANCH   3  13
BRANCH   9  16
ATOM     16  O   UNK A   2       0.856   4.268 -10.690  0.00  0.00    -0.468 OA
ATOM     17  C   UNK A   2      -0.040   4.480 -11.768  0.00  0.00    +0.253 C 
ENDBRANCH   9  16
BRANCH   1  18
ATOM     18  CA  ALA A   1       3.491   5.993  -3.384  0.00  0.00    +0.149 C 
ATOM     19  CB  ALA A   1       4.678   4.919  -2.894  0.00  0.00    +0.029 C 
BRANCH  18  20
ATOM     20  N   ALA A   1       2.328   4.966  -2.985  0.00  0.00    -0.201 NA
BRANCH  20  21
ATOM     21  C   UNK A   0       1.453   5.969  -2.089  0.00  0.00    +0.172 C 
BRANCH  21  22
ATOM     22  C   UNK A   0       2.148   5.447  -0.707  0.00  0.00    +0.333 C 
ATOM     23  O   UNK A   0       2.173   4.247  -0.504  0.00  0.00    -0.249 OA
BRANCH  22  24
ATOM     24  O   UNK A   0       2.364   6.432   0.232  0.00  0.00    -0.448 OA
BRANCH  24  26
ATOM     25  C   UNK A   0       4.385   7.006   0.291  0.00  0.00    +0.051 C 
ATOM     26  C   UNK A   0       3.362   7.397  -0.099  0.00  0.00    +0.209 C 
ENDBRANCH  24  26
ENDBRANCH  22  24
ENDBRANCH  21  22
BRANCH  21  27
ATOM     27  C   UNK A   0       0.185   4.879  -1.998  0.00  0.00    +0.033 C 
BRANCH  27  28
ATOM     28  C   UNK A   0      -0.938   5.904  -1.960  0.00  0.00    +0.028 C 
BRANCH  28  29
ATOM     29  C   UNK A   0      -1.437   6.283  -3.292  0.00  0.00    -0.022 A 
ATOM     30  C   UNK A   0      -2.458   5.500  -3.820  0.00  0.00    -0.004 A 
ATOM     31  C   UNK A   0      -3.034   5.904  -5.020  0.00  0.00    -0.000 A 
ATOM     32  C   UNK A   0      -2.753   7.147  -5.519  0.00  0.00    -0.000 A 
ATOM     33  C   UNK A   0      -2.122   8.062  -4.696  0.00  0.00    -0.000 A 
ATOM     34  C   UNK A   0      -1.567   7.649  -3.518  0.00  0.00    -0.004 A 
ENDBRANCH  28  29
ENDBRANCH  27  28
ENDBRANCH  21  27
ENDBRANCH  20  21
ENDBRANCH  18  20
ENDBRANCH   1  18
BRANCH   8  35
ATOM     35  O   UNK A   2       3.354   5.298 -11.477  0.00  0.00    -0.468 OA
ATOM     36  C   UNK A   2       4.396   6.079 -12.037  0.00  0.00    +0.253 C 
ENDBRANCH   8  35
TORSDOF 12
ENDMDL
