MODEL 1
REMARK VINA RESULT:      -6.8      0.000      0.000
REMARK  Name = 
REMARK  6 active torsions:
REMARK  status: ('A' for Active; 'I' for Inactive)
REMARK    1  A    between atoms: N_2  and  C_4
REMARK    2  A    between atoms: C_4  and  C_5
REMARK    3  A    between atoms: C_5  and  O_6
REMARK    4  A    between atoms: O_6  and  C_7
REMARK    5  A    between atoms: C_7  and  C_8
REMARK    6  A    between atoms: C_7  and  C_15
REMARK                            x       y       z     vdW  Elec       q    Type
REMARK                         _______ _______ _______ _____ _____    ______ ____
ROOT
ATOM      1  C   UNL     1       1.475   6.215  -7.362  0.00  0.00    +0.177 C 
ENDROOT
BRANCH   1   2
ATOM      2  C   UNL     1       0.142   5.988  -6.427  0.00  0.00    +0.010 A 
ATOM      3  C   UNL     1      -0.953   5.482  -7.043  0.00  0.00    -0.001 A 
ATOM      4  C   UNL     1      -2.018   5.242  -6.174  0.00  0.00    +0.011 A 
ATOM      5  C   UNL     1      -2.058   5.811  -4.907  0.00  0.00    +0.058 A 
ATOM      6 CL   UNL     1      -3.163   5.246  -3.658  0.00  0.00    -0.082 Cl
ATOM      7  C   UNL     1      -1.085   6.752  -4.597  0.00  0.00    +0.011 A 
ATOM      8  C   UNL     1      -0.041   6.973  -5.488  0.00  0.00    -0.001 A 
ENDBRANCH   1   2
BRANCH   1   9
ATOM      9  C   UNL     1       2.480   6.084  -6.065  0.00  0.00    +0.090 A 
ATOM     10  N   UNL     1       2.655   4.863  -5.590  0.00  0.00    -0.245 NA
ATOM     11  C   UNL     1       3.470   4.757  -4.512  0.00  0.00    +0.099 A 
ATOM     12  C   UNL     1       4.379   5.772  -4.245  0.00  0.00    +0.021 A 
ATOM     13  C   UNL     1       4.306   6.981  -4.928  0.00  0.00    +0.003 A 
ATOM     14  C   UNL     1       3.419   7.082  -5.995  0.00  0.00    +0.018 A 
ENDBRANCH   1   9
BRANCH   1  15
ATOM     15  O   UNL     1       1.601   4.709  -7.704  0.00  0.00    -0.344 OA
BRANCH  15  16
ATOM     16  C   UNL     1       2.182   4.755  -8.970  0.00  0.00    +0.160 C 
BRANCH  16  17
ATOM     17  C   UNL     1       3.539   4.115  -8.992  0.00  0.00    +0.105 C 
BRANCH  17  19
ATOM     18  C   UNL     1       5.401   5.187  -8.435  0.00  0.00    +0.090 C 
ATOM     19  N   UNL     1       4.562   5.115  -9.079  0.00  0.00    -0.268 NA
ATOM     20  C   UNL     1       4.761   5.413 -10.495  0.00  0.00    +0.090 C 
ENDBRANCH  17  19
ENDBRANCH  16  17
ENDBRANCH  15  16
ENDBRANCH   1  15
TORSDOF 6
ENDMDL
MODEL 2
REMARK VINA RESULT:      -6.6      3.302      5.856
REMARK  Name = 
REMARK  6 active torsions:
REMARK  status: ('A' for Active; 'I' for Inactive)
REMARK    1  A    between atoms: N_2  and  C_4
REMARK    2  A    between atoms: C_4  and  C_5
REMARK    3  A    between atoms: C_5  and  O_6
REMARK    4  A    between atoms: O_6  and  C_7
REMARK    5  A    between atoms: C_7  and  C_8
REMARK    6  A    between atoms: C_7  and  C_15
REMARK                            x       y       z     vdW  Elec       q    Type
REMARK                         _______ _______ _______ _____ _____    ______ ____
ROOT
ATOM      1  C   UNL     1       3.079   5.041  -7.160  0.00  0.00    +0.177 C 
ENDROOT
BRANCH   1   2
ATOM      2  C   UNL     1       4.098   5.708  -8.265  0.00  0.00    +0.010 A 
ATOM      3  C   UNL     1       3.531   6.204  -9.391  0.00  0.00    -0.001 A 
ATOM      4  C   UNL     1       4.443   6.825 -10.245  0.00  0.00    +0.011 A 
ATOM      5  C   UNL     1       5.811   6.615 -10.115  0.00  0.00    +0.058 A 
ATOM      6 CL   UNL     1       6.999   7.649 -10.903  0.00  0.00    -0.082 Cl
ATOM      7  C   UNL     1       6.227   5.645  -9.213  0.00  0.00    +0.011 A 
ATOM      8  C   UNL     1       5.291   5.039  -8.382  0.00  0.00    -0.001 A 
ENDBRANCH   1   2
BRANCH   1   9
ATOM      9  C   UNL     1       3.939   5.666  -5.903  0.00  0.00    +0.090 A 
ATOM     10  N   UNL     1       3.848   6.973  -5.733  0.00  0.00    -0.245 NA
ATOM     11  C   UNL     1       4.569   7.490  -4.708  0.00  0.00    +0.099 A 
ATOM     12  C   UNL     1       4.978   6.655  -3.677  0.00  0.00    +0.021 A 
ATOM     13  C   UNL     1       4.855   5.275  -3.795  0.00  0.00    +0.003 A 
ATOM     14  C   UNL     1       4.159   4.769  -4.889  0.00  0.00    +0.018 A 
ENDBRANCH   1   9
BRANCH   1  15
ATOM     15  O   UNL     1       2.110   6.249  -7.192  0.00  0.00    -0.344 OA
BRANCH  15  16
ATOM     16  C   UNL     1       0.869   5.615  -7.187  0.00  0.00    +0.160 C 
BRANCH  16  17
ATOM     17  C   UNL     1       0.393   5.318  -5.795  0.00  0.00    +0.105 C 
BRANCH  17  19
ATOM     18  C   UNL     1      -0.496   7.214  -5.060  0.00  0.00    +0.090 C 
ATOM     19  N   UNL     1       0.309   6.525  -5.027  0.00  0.00    -0.268 NA
ATOM     20  C   UNL     1       0.928   6.260  -3.731  0.00  0.00    +0.090 C 
ENDBRANCH  17  19
ENDBRANCH  16  17
ENDBRANCH  15  16
ENDBRANCH   1  15
TORSDOF 6
ENDMDL
MODEL 3
REMARK VINA RESULT:      -6.6      1.429      1.977
REMARK  Name = 
REMARK  6 active torsions:
REMARK  status: ('A' for Active; 'I' for Inactive)
REMARK    1  A    between atoms: N_2  and  C_4
REMARK    2  A    between atoms: C_4  and  C_5
REMARK    3  A    between atoms: C_5  and  O_6
REMARK    4  A    between atoms: O_6  and  C_7
REMARK    5  A    between atoms: C_7  and  C_8
REMARK    6  A    between atoms: C_7  and  C_15
REMARK                            x       y       z     vdW  Elec       q    Type
REMARK                         _______ _______ _______ _____ _____    ______ ____
ROOT
ATOM      1  C   UNL     1       1.612   6.070  -7.492  0.00  0.00    +0.177 C 
ENDROOT
BRANCH   1   2
ATOM      2  C   UNL     1       0.267   5.906  -6.563  0.00  0.00    +0.010 A 
ATOM      3  C   UNL     1      -0.848   5.447  -7.183  0.00  0.00    -0.001 A 
ATOM      4  C   UNL     1      -1.927   5.257  -6.319  0.00  0.00    +0.011 A 
ATOM      5  C   UNL     1      -1.946   5.830  -5.053  0.00  0.00    +0.058 A 
ATOM      6 CL   UNL     1      -3.082   5.319  -3.809  0.00  0.00    -0.082 Cl
ATOM      7  C   UNL     1      -0.934   6.728  -4.741  0.00  0.00    +0.011 A 
ATOM      8  C   UNL     1       0.123   6.901  -5.627  0.00  0.00    -0.001 A 
ENDBRANCH   1   2
BRANCH   1   9
ATOM      9  C   UNL     1       2.603   5.961  -6.182  0.00  0.00    +0.090 A 
ATOM     10  N   UNL     1       2.802   4.744  -5.707  0.00  0.00    -0.245 NA
ATOM     11  C   UNL     1       3.604   4.657  -4.617  0.00  0.00    +0.099 A 
ATOM     12  C   UNL     1       4.483   5.694  -4.336  0.00  0.00    +0.021 A 
ATOM     13  C   UNL     1       4.389   6.903  -5.017  0.00  0.00    +0.003 A 
ATOM     14  C   UNL     1       3.514   6.983  -6.096  0.00  0.00    +0.018 A 
ENDBRANCH   1   9
BRANCH   1  15
ATOM     15  O   UNL     1       1.707   4.551  -7.781  0.00  0.00    -0.344 OA
BRANCH  15  16
ATOM     16  C   UNL     1       2.198   4.542  -9.085  0.00  0.00    +0.160 C 
BRANCH  16  17
ATOM     17  C   UNL     1       1.739   5.737  -9.869  0.00  0.00    +0.105 C 
BRANCH  17  19
ATOM     18  C   UNL     1       0.128   4.602 -10.891  0.00  0.00    +0.090 C 
ATOM     19  N   UNL     1       0.898   5.328 -10.956  0.00  0.00    -0.268 NA
ATOM     20  C   UNL     1       0.657   6.506 -11.787  0.00  0.00    +0.090 C 
ENDBRANCH  17  19
ENDBRANCH  16  17
ENDBRANCH  15  16
ENDBRANCH   1  15
TORSDOF 6
ENDMDL
MODEL 4
REMARK VINA RESULT:      -6.5      2.113      3.988
REMARK  Name = 
REMARK  6 active torsions:
REMARK  status: ('A' for Active; 'I' for Inactive)
REMARK    1  A    between atoms: N_2  and  C_4
REMARK    2  A    between atoms: C_4  and  C_5
REMARK    3  A    between atoms: C_5  and  O_6
REMARK    4  A    between atoms: O_6  and  C_7
REMARK    5  A    between atoms: C_7  and  C_8
REMARK    6  A    between atoms: C_7  and  C_15
REMARK                            x       y       z     vdW  Elec       q    Type
REMARK                         _______ _______ _______ _____ _____    ______ ____
ROOT
ATOM      1  C   UNL     1       1.515   4.839  -7.998  0.00  0.00    +0.177 C 
ENDROOT
BRANCH   1   2
ATOM      2  C   UNL     1       0.417   5.635  -7.070  0.00  0.00    +0.010 A 
ATOM      3  C   UNL     1       0.884   6.217  -5.940  0.00  0.00    -0.001 A 
ATOM      4  C   UNL     1      -0.085   6.941  -5.244  0.00  0.00    +0.011 A 
ATOM      5  C   UNL     1      -1.439   6.761  -5.498  0.00  0.00    +0.058 A 
ATOM      6 CL   UNL     1      -2.659   7.898  -4.935  0.00  0.00    -0.082 Cl
ATOM      7  C   UNL     1      -1.799   5.724  -6.348  0.00  0.00    +0.011 A 
ATOM      8  C   UNL     1      -0.808   5.016  -7.020  0.00  0.00    -0.001 A 
ENDBRANCH   1   2
BRANCH   1   9
ATOM      9  C   UNL     1       0.799   5.351  -9.390  0.00  0.00    +0.090 A 
ATOM     10  N   UNL     1       0.953   6.630  -9.683  0.00  0.00    -0.245 NA
ATOM     11  C   UNL     1       0.349   7.055 -10.820  0.00  0.00    +0.099 A 
ATOM     12  C   UNL     1       0.007   6.127 -11.794  0.00  0.00    +0.021 A 
ATOM     13  C   UNL     1       0.069   4.765 -11.524  0.00  0.00    +0.003 A 
ATOM     14  C   UNL     1       0.641   4.358 -10.323  0.00  0.00    +0.018 A 
ENDBRANCH   1   9
BRANCH   1  15
ATOM     15  O   UNL     1       2.513   6.023  -7.991  0.00  0.00    -0.344 OA
BRANCH  15  16
ATOM     16  C   UNL     1       3.725   5.370  -7.773  0.00  0.00    +0.160 C 
BRANCH  16  17
ATOM     17  C   UNL     1       4.213   4.662  -9.004  0.00  0.00    +0.105 C 
BRANCH  17  19
ATOM     18  C   UNL     1       5.894   5.790  -9.913  0.00  0.00    +0.090 C 
ATOM     19  N   UNL     1       4.854   5.587  -9.891  0.00  0.00    -0.268 NA
ATOM     20  C   UNL     1       4.144   5.531 -11.166  0.00  0.00    +0.090 C 
ENDBRANCH  17  19
ENDBRANCH  16  17
ENDBRANCH  15  16
ENDBRANCH   1  15
TORSDOF 6
ENDMDL
MODEL 5
REMARK VINA RESULT:      -6.4      3.537      6.691
REMARK  Name = 
REMARK  6 active torsions:
REMARK  status: ('A' for Active; 'I' for Inactive)
REMARK    1  A    between atoms: N_2  and  C_4
REMARK    2  A    between atoms: C_4  and  C_5
REMARK    3  A    between atoms: C_5  and  O_6
REMARK    4  A    between atoms: O_6  and  C_7
REMARK    5  A    between atoms: C_7  and  C_8
REMARK    6  A    between atoms: C_7  and  C_15
REMARK                            x       y       z     vdW  Elec       q    Type
REMARK                         _______ _______ _______ _____ _____    ______ ____
ROOT
ATOM      1  C   UNL     1       2.658   6.302  -8.155  0.00  0.00    +0.177 C 
ENDROOT
BRANCH   1   2
ATOM      2  C   UNL     1       4.033   6.058  -9.022  0.00  0.00    +0.010 A 
ATOM      3  C   UNL     1       5.111   5.605  -8.337  0.00  0.00    -0.001 A 
ATOM      4  C   UNL     1       6.217   5.346  -9.148  0.00  0.00    +0.011 A 
ATOM      5  C   UNL     1       6.299   5.854 -10.439  0.00  0.00    +0.058 A 
ATOM      6 CL   UNL     1       7.467   5.254 -11.611  0.00  0.00    -0.082 Cl
ATOM      7  C   UNL     1       5.323   6.759 -10.834  0.00  0.00    +0.011 A 
ATOM      8  C   UNL     1       4.238   7.001  -9.999  0.00  0.00    -0.001 A 
ENDBRANCH   1   2
BRANCH   1   9
ATOM      9  C   UNL     1       1.708   5.891  -9.435  0.00  0.00    +0.090 A 
ATOM     10  N   UNL     1       1.517   4.597  -9.622  0.00  0.00    -0.245 NA
ATOM     11  C   UNL     1       0.748   4.259 -10.686  0.00  0.00    +0.099 A 
ATOM     12  C   UNL     1      -0.116   5.202 -11.227  0.00  0.00    +0.021 A 
ATOM     13  C   UNL     1      -0.036   6.535 -10.841  0.00  0.00    +0.003 A 
ATOM     14  C   UNL     1       0.805   6.864  -9.783  0.00  0.00    +0.018 A 
ENDBRANCH   1   9
BRANCH   1  15
ATOM     15  O   UNL     1       2.650   4.858  -7.594  0.00  0.00    -0.344 OA
BRANCH  15  16
ATOM     16  C   UNL     1       2.254   5.071  -6.274  0.00  0.00    +0.160 C 
BRANCH  16  17
ATOM     17  C   UNL     1       0.933   4.425  -5.971  0.00  0.00    +0.105 C 
BRANCH  17  19
ATOM     18  C   UNL     1       0.053   6.406  -5.493  0.00  0.00    +0.090 C 
ATOM     19  N   UNL     1      -0.093   5.419  -5.852  0.00  0.00    -0.268 NA
ATOM     20  C   UNL     1      -1.015   5.230  -6.969  0.00  0.00    +0.090 C 
ENDBRANCH  17  19
ENDBRANCH  16  17
ENDBRANCH  15  16
ENDBRANCH   1  15
TORSDOF 6
ENDMDL
MODEL 6
REMARK VINA RESULT:      -6.4      2.068      4.345
REMARK  Name = 
REMARK  6 active torsions:
REMARK  status: ('A' for Active; 'I' for Inactive)
REMARK    1  A    between atoms: N_2  and  C_4
REMARK    2  A    between atoms: C_4  and  C_5
REMARK    3  A    between atoms: C_5  and  O_6
REMARK    4  A    between atoms: O_6  and  C_7
REMARK    5  A    between atoms: C_7  and  C_8
REMARK    6  A    between atoms: C_7  and  C_15
REMARK                            x       y       z     vdW  Elec       q    Type
REMARK                         _______ _______ _______ _____ _____    ______ ____
ROOT
ATOM      1  C   UNL     1       1.322   4.746  -7.881  0.00  0.00    +0.177 C 
ENDROOT
BRANCH   1   2
ATOM      2  C   UNL     1       0.219   5.591  -7.002  0.00  0.00    +0.010 A 
ATOM      3  C   UNL     1       0.663   6.155  -5.852  0.00  0.00    -0.001 A 
ATOM      4  C   UNL     1      -0.304   6.921  -5.200  0.00  0.00    +0.011 A 
ATOM      5  C   UNL     1      -1.653   6.798  -5.512  0.00  0.00    +0.058 A 
ATOM      6 CL   UNL     1      -2.847   7.987  -5.002  0.00  0.00    -0.082 Cl
ATOM      7  C   UNL     1      -2.019   5.774  -6.376  0.00  0.00    +0.011 A 
ATOM      8  C   UNL     1      -1.031   5.024  -7.004  0.00  0.00    -0.001 A 
ENDBRANCH   1   2
BRANCH   1   9
ATOM      9  C   UNL     1       0.694   5.292  -9.302  0.00  0.00    +0.090 A 
ATOM     10  N   UNL     1       0.895   6.570  -9.570  0.00  0.00    -0.245 NA
ATOM     11  C   UNL     1       0.363   7.023 -10.732  0.00  0.00    +0.099 A 
ATOM     12  C   UNL     1       0.052   6.115 -11.736  0.00  0.00    +0.021 A 
ATOM     13  C   UNL     1       0.067   4.749 -11.480  0.00  0.00    +0.003 A 
ATOM     14  C   UNL     1       0.563   4.314 -10.255  0.00  0.00    +0.018 A 
ENDBRANCH   1   9
BRANCH   1  15
ATOM     15  O   UNL     1       2.371   5.884  -7.825  0.00  0.00    -0.344 OA
BRANCH  15  16
ATOM     16  C   UNL     1       3.564   5.165  -7.759  0.00  0.00    +0.160 C 
BRANCH  16  17
ATOM     17  C   UNL     1       4.562   5.812  -6.843  0.00  0.00    +0.105 C 
BRANCH  17  19
ATOM     18  C   UNL     1       4.274   4.960  -4.814  0.00  0.00    +0.090 C 
ATOM     19  N   UNL     1       4.102   5.761  -5.487  0.00  0.00    -0.268 NA
ATOM     20  C   UNL     1       4.158   7.121  -4.956  0.00  0.00    +0.090 C 
ENDBRANCH  17  19
ENDBRANCH  16  17
ENDBRANCH  15  16
ENDBRANCH   1  15
TORSDOF 6
ENDMDL
MODEL 7
REMARK VINA RESULT:      -6.3      3.987      6.128
REMARK  Name = 
REMARK  6 active torsions:
REMARK  status: ('A' for Active; 'I' for Inactive)
REMARK    1  A    between atoms: N_2  and  C_4
REMARK    2  A    between atoms: C_4  and  C_5
REMARK    3  A    between atoms: C_5  and  O_6
REMARK    4  A    between atoms: O_6  and  C_7
REMARK    5  A    between atoms: C_7  and  C_8
REMARK    6  A    between atoms: C_7  and  C_15
REMARK                            x       y       z     vdW  Elec       q    Type
REMARK                         _______ _______ _______ _____ _____    ______ ____
ROOT
ATOM      1  C   UNL     1       4.174   6.798 -11.206  0.00  0.00    +0.177 C 
ENDROOT
BRANCH   1   2
ATOM      2  C   UNL     1       4.155   6.443  -9.601  0.00  0.00    +0.010 A 
ATOM      3  C   UNL     1       4.495   5.177  -9.255  0.00  0.00    -0.001 A 
ATOM      4  C   UNL     1       4.534   4.969  -7.876  0.00  0.00    +0.011 A 
ATOM      5  C   UNL     1       3.930   5.858  -6.995  0.00  0.00    +0.058 A 
ATOM      6 CL   UNL     1       4.272   5.847  -5.268  0.00  0.00    -0.082 Cl
ATOM      7  C   UNL     1       3.150   6.869  -7.540  0.00  0.00    +0.011 A 
ATOM      8  C   UNL     1       3.126   7.045  -8.920  0.00  0.00    -0.001 A 
ENDBRANCH   1   2
BRANCH   1   9
ATOM      9  C   UNL     1       5.746   6.331 -11.351  0.00  0.00    +0.090 A 
ATOM     10  N   UNL     1       6.020   5.529 -12.365  0.00  0.00    -0.245 NA
ATOM     11  C   UNL     1       7.311   5.131 -12.474  0.00  0.00    +0.099 A 
ATOM     12  C   UNL     1       8.305   5.874 -11.852  0.00  0.00    +0.021 A 
ATOM     13  C   UNL     1       7.976   6.874 -10.945  0.00  0.00    +0.003 A 
ATOM     14  C   UNL     1       6.636   7.223 -10.809  0.00  0.00    +0.018 A 
ENDBRANCH   1   9
BRANCH   1  15
ATOM     15  O   UNL     1       3.645   5.400 -11.613  0.00  0.00    -0.344 OA
BRANCH  15  16
ATOM     16  C   UNL     1       2.565   5.733 -12.429  0.00  0.00    +0.160 C 
BRANCH  16  17
ATOM     17  C   UNL     1       1.249   5.454 -11.764  0.00  0.00    +0.105 C 
BRANCH  17  19
ATOM     18  C   UNL     1      -0.108   7.112 -11.187  0.00  0.00    +0.090 C 
ATOM     19  N   UNL     1       0.347   6.550 -11.961  0.00  0.00    -0.268 NA
ATOM     20  C   UNL     1       0.787   7.267 -13.156  0.00  0.00    +0.090 C 
ENDBRANCH  17  19
ENDBRANCH  16  17
ENDBRANCH  15  16
ENDBRANCH   1  15
TORSDOF 6
ENDMDL
MODEL 8
REMARK VINA RESULT:      -6.3      3.394      5.325
REMARK  Name = 
REMARK  6 active torsions:
REMARK  status: ('A' for Active; 'I' for Inactive)
REMARK    1  A    between atoms: N_2  and  C_4
REMARK    2  A    between atoms: C_4  and  C_5
REMARK    3  A    between atoms: C_5  and  O_6
REMARK    4  A    between atoms: O_6  and  C_7
REMARK    5  A    between atoms: C_7  and  C_8
REMARK    6  A    between atoms: C_7  and  C_15
REMARK                            x       y       z     vdW  Elec       q    Type
REMARK                         _______ _______ _______ _____ _____    ______ ____
ROOT
ATOM      1  C   UNL     1       3.864   5.552 -10.116  0.00  0.00    +0.177 C 
ENDROOT
BRANCH   1   2
ATOM      2  C   UNL     1       3.485   5.995  -8.579  0.00  0.00    +0.010 A 
ATOM      3  C   UNL     1       2.889   7.202  -8.424  0.00  0.00    -0.001 A 
ATOM      4  C   UNL     1       2.523   7.477  -7.106  0.00  0.00    +0.011 A 
ATOM      5  C   UNL     1       3.055   6.753  -6.045  0.00  0.00    +0.058 A 
ATOM      6 CL   UNL     1       2.354   6.803  -4.431  0.00  0.00    -0.082 Cl
ATOM      7  C   UNL     1       4.079   5.860  -6.329  0.00  0.00    +0.011 A 
ATOM      8  C   UNL     1       4.424   5.614  -7.653  0.00  0.00    -0.001 A 
ENDBRANCH   1   2
BRANCH   1   9
ATOM      9  C   UNL     1       2.287   5.609 -10.585  0.00  0.00    +0.090 A 
ATOM     10  N   UNL     1       2.057   6.118 -11.782  0.00  0.00    -0.245 NA
ATOM     11  C   UNL     1       0.757   6.181 -12.161  0.00  0.00    +0.099 A 
ATOM     12  C   UNL     1      -0.173   5.361 -11.535  0.00  0.00    +0.021 A 
ATOM     13  C   UNL     1       0.169   4.655 -10.387  0.00  0.00    +0.003 A 
ATOM     14  C   UNL     1       1.502   4.656  -9.987  0.00  0.00    +0.018 A 
ENDBRANCH   1   9
BRANCH   1  15
ATOM     15  O   UNL     1       4.126   7.010 -10.567  0.00  0.00    -0.344 OA
BRANCH  15  16
ATOM     16  C   UNL     1       5.463   6.950 -10.955  0.00  0.00    +0.160 C 
BRANCH  16  17
ATOM     17  C   UNL     1       5.859   5.574 -11.406  0.00  0.00    +0.105 C 
BRANCH  17  19
ATOM     18  C   UNL     1       8.017   5.516 -11.919  0.00  0.00    +0.090 C 
ATOM     19  N   UNL     1       7.260   5.363 -11.193  0.00  0.00    -0.268 NA
ATOM     20  C   UNL     1       7.554   5.740  -9.812  0.00  0.00    +0.090 C 
ENDBRANCH  17  19
ENDBRANCH  16  17
ENDBRANCH  15  16
ENDBRANCH   1  15
TORSDOF 6
ENDMDL
MODEL 9
REMARK VINA RESULT:      -6.2      2.657      4.831
REMARK  Name = 
REMARK  6 active torsions:
REMARK  status: ('A' for Active; 'I' for Inactive)
REMARK    1  A    between atoms: N_2  and  C_4
REMARK    2  A    between atoms: C_4  and  C_5
REMARK    3  A    between atoms: C_5  and  O_6
REMARK    4  A    between atoms: O_6  and  C_7
REMARK    5  A    between atoms: C_7  and  C_8
REMARK    6  A    between atoms: C_7  and  C_15
REMARK                            x       y       z     vdW  Elec       q    Type
REMARK                         _______ _______ _______ _____ _____    ______ ____
ROOT
ATOM      1  C   UNL     1       1.555   5.728  -7.108  0.00  0.00    +0.177 C 
ENDROOT
BRANCH   1   2
ATOM      2  C   UNL     1       2.478   6.070  -5.792  0.00  0.00    +0.010 A 
ATOM      3  C   UNL     1       3.488   6.955  -5.972  0.00  0.00    -0.001 A 
ATOM      4  C   UNL     1       4.178   7.259  -4.798  0.00  0.00    +0.011 A 
ATOM      5  C   UNL     1       4.067   6.457  -3.668  0.00  0.00    +0.058 A 
ATOM      6 CL   UNL     1       4.601   6.994  -2.079  0.00  0.00    -0.082 Cl
ATOM      7  C   UNL     1       3.377   5.259  -3.799  0.00  0.00    +0.011 A 
ATOM      8  C   UNL     1       2.707   4.983  -4.986  0.00  0.00    -0.001 A 
ENDBRANCH   1   2
BRANCH   1   9
ATOM      9  C   UNL     1       0.161   5.990  -6.272  0.00  0.00    +0.090 A 
ATOM     10  N   UNL     1       0.108   7.110  -5.573  0.00  0.00    -0.245 NA
ATOM     11  C   UNL     1      -1.033   7.319  -4.872  0.00  0.00    +0.099 A 
ATOM     12  C   UNL     1      -2.188   6.642  -5.238  0.00  0.00    +0.021 A 
ATOM     13  C   UNL     1      -2.134   5.599  -6.156  0.00  0.00    +0.003 A 
ATOM     14  C   UNL     1      -0.933   5.369  -6.820  0.00  0.00    +0.018 A 
ENDBRANCH   1   9
BRANCH   1  15
ATOM     15  O   UNL     1       1.601   7.184  -7.631  0.00  0.00    -0.344 OA
BRANCH  15  16
ATOM     16  C   UNL     1       2.007   6.998  -8.951  0.00  0.00    +0.160 C 
BRANCH  16  17
ATOM     17  C   UNL     1       1.524   5.692  -9.511  0.00  0.00    +0.105 C 
BRANCH  17  19
ATOM     18  C   UNL     1       0.149   6.780 -10.872  0.00  0.00    +0.090 C 
ATOM     19  N   UNL     1       0.362   5.897 -10.325  0.00  0.00    -0.268 NA
ATOM     20  C   UNL     1       0.031   4.615 -10.943  0.00  0.00    +0.090 C 
ENDBRANCH  17  19
ENDBRANCH  16  17
ENDBRANCH  15  16
ENDBRANCH   1  15
TORSDOF 6
ENDMDL
