MODEL 1
REMARK VINA RESULT:      -3.2      0.000      0.000
REMARK  Name = 
REMARK  0 active torsions:
REMARK  status: ('A' for Active; 'I' for Inactive)
REMARK                            x       y       z     vdW  Elec       q    Type
REMARK                         _______ _______ _______ _____ _____    ______ ____
ROOT
ATOM      1  N   UNL     1       7.811   5.452 -10.228  0.00  0.00    -0.101 NA
ATOM      2  C   UNL     1       8.134   5.584 -11.617  0.00  0.00    +0.206 C 
ATOM      3  N   UNL     1       7.290   4.830 -12.484  0.00  0.00    -0.181 NA
ATOM      4  O   UNL     1       7.560   4.838 -13.803  0.00  0.00    -0.401 OA
ATOM      5  O   UNL     1       9.273   5.864 -12.047  0.00  0.00    -0.523 OA
ENDROOT
TORSDOF 0
ENDMDL
MODEL 2
REMARK VINA RESULT:      -3.1      2.003      2.685
REMARK  Name = 
REMARK  0 active torsions:
REMARK  status: ('A' for Active; 'I' for Inactive)
REMARK                            x       y       z     vdW  Elec       q    Type
REMARK                         _______ _______ _______ _____ _____    ______ ____
ROOT
ATOM      1  N   UNL     1       5.099   4.773 -13.388  0.00  0.00    -0.101 NA
ATOM      2  C   UNL     1       6.221   5.277 -12.655  0.00  0.00    +0.206 C 
ATOM      3  N   UNL     1       7.483   4.834 -13.148  0.00  0.00    -0.181 NA
ATOM      4  O   UNL     1       8.594   5.203 -12.481  0.00  0.00    -0.401 OA
ATOM      5  O   UNL     1       6.176   5.619 -11.454  0.00  0.00    -0.523 OA
ENDROOT
TORSDOF 0
ENDMDL
MODEL 3
REMARK VINA RESULT:      -3.1     13.245     13.468
REMARK  Name = 
REMARK  0 active torsions:
REMARK  status: ('A' for Active; 'I' for Inactive)
REMARK                            x       y       z     vdW  Elec       q    Type
REMARK                         _______ _______ _______ _____ _____    ______ ____
ROOT
ATOM      1  N   UNL     1      -0.164   4.943  -1.695  0.00  0.00    -0.101 NA
ATOM      2  C   UNL     1      -1.164   5.346  -2.638  0.00  0.00    +0.206 C 
ATOM      3  N   UNL     1      -2.469   4.851  -2.348  0.00  0.00    -0.181 NA
ATOM      4  O   UNL     1      -3.461   5.121  -3.217  0.00  0.00    -0.401 OA
ATOM      5  O   UNL     1      -0.925   5.636  -3.829  0.00  0.00    -0.523 OA
ENDROOT
TORSDOF 0
ENDMDL
MODEL 4
REMARK VINA RESULT:      -3.1      1.402      2.442
REMARK  Name = 
REMARK  0 active torsions:
REMARK  status: ('A' for Active; 'I' for Inactive)
REMARK                            x       y       z     vdW  Elec       q    Type
REMARK                         _______ _______ _______ _____ _____    ______ ____
ROOT
ATOM      1  N   UNL     1       7.574   4.741 -13.109  0.00  0.00    -0.101 NA
ATOM      2  C   UNL     1       8.213   5.477 -12.060  0.00  0.00    +0.206 C 
ATOM      3  N   UNL     1       7.311   6.200 -11.226  0.00  0.00    -0.181 NA
ATOM      4  O   UNL     1       7.826   6.977 -10.253  0.00  0.00    -0.401 OA
ATOM      5  O   UNL     1       9.387   5.899 -12.116  0.00  0.00    -0.523 OA
ENDROOT
TORSDOF 0
ENDMDL
MODEL 5
REMARK VINA RESULT:      -3.0     13.169     13.482
REMARK  Name = 
REMARK  0 active torsions:
REMARK  status: ('A' for Active; 'I' for Inactive)
REMARK                            x       y       z     vdW  Elec       q    Type
REMARK                         _______ _______ _______ _____ _____    ______ ____
ROOT
ATOM      1  N   UNL     1      -2.153   5.871  -4.462  0.00  0.00    -0.101 NA
ATOM      2  C   UNL     1      -1.928   5.396  -3.130  0.00  0.00    +0.206 C 
ATOM      3  N   UNL     1      -0.553   5.198  -2.809  0.00  0.00    -0.181 NA
ATOM      4  O   UNL     1      -0.247   4.688  -1.600  0.00  0.00    -0.401 OA
ATOM      5  O   UNL     1      -2.759   4.734  -2.473  0.00  0.00    -0.523 OA
ENDROOT
TORSDOF 0
ENDMDL
MODEL 6
REMARK VINA RESULT:      -2.8      2.491      2.845
REMARK  Name = 
REMARK  0 active torsions:
REMARK  status: ('A' for Active; 'I' for Inactive)
REMARK                            x       y       z     vdW  Elec       q    Type
REMARK                         _______ _______ _______ _____ _____    ______ ____
ROOT
ATOM      1  N   UNL     1       7.773   4.680 -12.530  0.00  0.00    -0.101 NA
ATOM      2  C   UNL     1       6.864   5.296 -13.449  0.00  0.00    +0.206 C 
ATOM      3  N   UNL     1       7.155   6.663 -13.726  0.00  0.00    -0.181 NA
ATOM      4  O   UNL     1       6.315   7.345 -14.528  0.00  0.00    -0.401 OA
ATOM      5  O   UNL     1       5.681   4.930 -13.615  0.00  0.00    -0.523 OA
ENDROOT
TORSDOF 0
ENDMDL
MODEL 7
REMARK VINA RESULT:      -2.8     12.812     13.099
REMARK  Name = 
REMARK  0 active torsions:
REMARK  status: ('A' for Active; 'I' for Inactive)
REMARK                            x       y       z     vdW  Elec       q    Type
REMARK                         _______ _______ _______ _____ _____    ______ ____
ROOT
ATOM      1  N   UNL     1       0.239   5.600  -3.989  0.00  0.00    -0.101 NA
ATOM      2  C   UNL     1      -1.146   5.594  -3.625  0.00  0.00    +0.206 C 
ATOM      3  N   UNL     1      -1.403   5.058  -2.329  0.00  0.00    -0.181 NA
ATOM      4  O   UNL     1      -2.683   4.949  -1.927  0.00  0.00    -0.401 OA
ATOM      5  O   UNL     1      -2.086   5.550  -4.447  0.00  0.00    -0.523 OA
ENDROOT
TORSDOF 0
ENDMDL
MODEL 8
REMARK VINA RESULT:      -2.7      1.745      1.745
REMARK  Name = 
REMARK  0 active torsions:
REMARK  status: ('A' for Active; 'I' for Inactive)
REMARK                            x       y       z     vdW  Elec       q    Type
REMARK                         _______ _______ _______ _____ _____    ______ ____
ROOT
ATOM      1  N   UNL     1       5.549   6.422 -10.681  0.00  0.00    -0.101 NA
ATOM      2  C   UNL     1       6.786   5.862 -11.135  0.00  0.00    +0.206 C 
ATOM      3  N   UNL     1       6.663   5.055 -12.304  0.00  0.00    -0.181 NA
ATOM      4  O   UNL     1       7.763   4.430 -12.766  0.00  0.00    -0.401 OA
ATOM      5  O   UNL     1       7.763   5.629 -10.392  0.00  0.00    -0.523 OA
ENDROOT
TORSDOF 0
ENDMDL
MODEL 9
REMARK VINA RESULT:      -2.6     13.175     13.439
REMARK  Name = 
REMARK  0 active torsions:
REMARK  status: ('A' for Active; 'I' for Inactive)
REMARK                            x       y       z     vdW  Elec       q    Type
REMARK                         _______ _______ _______ _____ _____    ______ ____
ROOT
ATOM      1  N   UNL     1      -2.771   4.797  -2.652  0.00  0.00    -0.101 NA
ATOM      2  C   UNL     1      -2.100   5.782  -3.446  0.00  0.00    +0.206 C 
ATOM      3  N   UNL     1      -2.504   7.121  -3.173  0.00  0.00    -0.181 NA
ATOM      4  O   UNL     1      -1.977   8.111  -3.919  0.00  0.00    -0.401 OA
ATOM      5  O   UNL     1      -1.621   5.560  -4.579  0.00  0.00    -0.523 OA
ENDROOT
TORSDOF 0
ENDMDL
