MODEL 1
REMARK VINA RESULT:      -7.3      0.000      0.000
REMARK  Name = 
REMARK  4 active torsions:
REMARK  status: ('A' for Active; 'I' for Inactive)
REMARK    1  A    between atoms: O_2  and  C_3
REMARK    2  A    between atoms: C_4  and  N_5
REMARK    3  A    between atoms: C_18  and  C_19
REMARK    4  A    between atoms: N_23  and  C_24
REMARK                            x       y       z     vdW  Elec       q    Type
REMARK                         _______ _______ _______ _____ _____    ______ ____
ROOT
ATOM      1  C   UNL     1       2.604   6.584  -3.055  0.00  0.00    +0.170 A 
ATOM      2  C   UNL     1       1.460   6.417  -3.814  0.00  0.00    +0.099 A 
ATOM      3  C   UNL     1       0.259   6.089  -3.195  0.00  0.00    +0.060 A 
ATOM      4  C   UNL     1      -0.841   5.786  -3.954  0.00  0.00    +0.205 A 
ATOM      5  C   UNL     1      -0.777   6.117  -5.300  0.00  0.00    +0.136 A 
ATOM      6  C   UNL     1       0.414   6.555  -5.863  0.00  0.00    +0.086 A 
ATOM      7  O   UNL     1      -1.827   5.234  -3.425  0.00  0.00    -0.286 OA
ATOM      8  C   UNL     1       0.196   6.038  -1.812  0.00  0.00    +0.036 A 
ATOM      9  C   UNL     1       1.287   6.464  -1.072  0.00  0.00    +0.157 A 
ATOM     10  F   UNL     1       1.030   7.028   0.139  0.00  0.00    -0.203 F 
ATOM     11  N   UNL     1       1.565   6.515  -5.157  0.00  0.00    -0.325 N 
ATOM     12  C   UNL     1       2.512   6.702  -1.677  0.00  0.00    +0.112 A 
ENDROOT
BRANCH  12  13
ATOM     13  N   UNL     1       3.625   7.236  -0.981  0.00  0.00    -0.300 N 
ATOM     14  C   UNL     1       3.902   8.661  -1.197  0.00  0.00    +0.108 C 
ATOM     15  C   UNL     1       3.026   9.270   0.053  0.00  0.00    +0.093 C 
ATOM     16  C   UNL     1       3.356  10.821  -0.373  0.00  0.00    +0.021 C 
ATOM     17  N   UNL     1       4.247   9.226   1.046  0.00  0.00    -0.216 NA
ATOM     18  C   UNL     1       4.832   7.942   0.935  0.00  0.00    +0.110 C 
ATOM     19  C   UNL     1       3.964   6.868   0.393  0.00  0.00    +0.110 C 
ENDBRANCH  12  13
BRANCH   5  20
ATOM     20  C   UNL     1      -1.858   5.570  -6.131  0.00  0.00    +0.392 C 
ATOM     21  O   UNL     1      -1.461   4.762  -7.189  0.00  0.00    -0.240 OA
ATOM     22  O   UNL     1      -2.846   6.332  -6.350  0.00  0.00    -0.240 OA
ENDBRANCH   5  20
BRANCH  11  23
ATOM     23  C   UNL     1       2.842   6.924  -5.722  0.00  0.00    +0.086 C 
ATOM     24  C   UNL     1       2.805   7.340  -7.147  0.00  0.00    +0.024 C 
ATOM     25  C   UNL     1       3.334   5.998  -6.873  0.00  0.00    +0.024 C 
ENDBRANCH  11  23
BRANCH   1  27
ATOM     26  C   UNL     1       4.206   5.608  -3.386  0.00  0.00    +0.253 C 
ATOM     27  O   UNL     1       3.802   6.106  -3.605  0.00  0.00    -0.469 OA
ENDBRANCH   1  27
TORSDOF 4
ENDMDL
MODEL 2
REMARK VINA RESULT:      -7.3      4.598      6.951
REMARK  Name = 
REMARK  4 active torsions:
REMARK  status: ('A' for Active; 'I' for Inactive)
REMARK    1  A    between atoms: O_2  and  C_3
REMARK    2  A    between atoms: C_4  and  N_5
REMARK    3  A    between atoms: C_18  and  C_19
REMARK    4  A    between atoms: N_23  and  C_24
REMARK                            x       y       z     vdW  Elec       q    Type
REMARK                         _______ _______ _______ _____ _____    ______ ____
ROOT
ATOM      1  C   UNL     1       2.538   5.672  -8.587  0.00  0.00    +0.170 A 
ATOM      2  C   UNL     1       2.359   5.722  -9.957  0.00  0.00    +0.099 A 
ATOM      3  C   UNL     1       1.156   5.300 -10.515  0.00  0.00    +0.060 A 
ATOM      4  C   UNL     1       1.026   5.216 -11.876  0.00  0.00    +0.205 A 
ATOM      5  C   UNL     1       2.004   5.846 -12.633  0.00  0.00    +0.136 A 
ATOM      6  C   UNL     1       3.141   6.363 -12.028  0.00  0.00    +0.086 A 
ATOM      7  O   UNL     1       0.066   4.590 -12.371  0.00  0.00    -0.286 OA
ATOM      8  C   UNL     1       0.110   4.934  -9.683  0.00  0.00    +0.036 A 
ATOM      9  C   UNL     1       0.230   5.142  -8.319  0.00  0.00    +0.157 A 
ATOM     10  F   UNL     1      -0.912   5.420  -7.634  0.00  0.00    -0.203 F 
ATOM     11  N   UNL     1       3.396   6.123 -10.723  0.00  0.00    -0.325 N 
ATOM     12  C   UNL     1       1.450   5.473  -7.750  0.00  0.00    +0.112 A 
ENDROOT
BRANCH  12  13
ATOM     13  N   UNL     1       1.601   5.795  -6.378  0.00  0.00    -0.300 N 
ATOM     14  C   UNL     1       0.909   7.005  -5.918  0.00  0.00    +0.108 C 
ATOM     15  C   UNL     1      -0.502   6.310  -5.440  0.00  0.00    +0.093 C 
ATOM     16  C   UNL     1      -1.170   7.759  -5.051  0.00  0.00    +0.021 C 
ATOM     17  N   UNL     1       0.005   6.088  -3.966  0.00  0.00    -0.216 NA
ATOM     18  C   UNL     1       1.287   5.492  -4.047  0.00  0.00    +0.110 C 
ATOM     19  C   UNL     1       1.607   4.791  -5.315  0.00  0.00    +0.110 C 
ENDBRANCH  12  13
BRANCH   5  20
ATOM     20  C   UNL     1       1.976   5.541 -14.070  0.00  0.00    +0.392 C 
ATOM     21  O   UNL     1       2.692   4.419 -14.467  0.00  0.00    -0.240 OA
ATOM     22  O   UNL     1       2.005   6.531 -14.861  0.00  0.00    -0.240 OA
ENDBRANCH   5  20
BRANCH  11  23
ATOM     23  C   UNL     1       4.596   6.608 -10.060  0.00  0.00    +0.086 C 
ATOM     24  C   UNL     1       5.485   7.459 -10.892  0.00  0.00    +0.024 C 
ATOM     25  C   UNL     1       5.913   6.069 -10.691  0.00  0.00    +0.024 C 
ENDBRANCH  11  23
BRANCH   1  27
ATOM     26  C   UNL     1       4.021   4.693  -7.903  0.00  0.00    +0.253 C 
ATOM     27  O   UNL     1       3.809   5.295  -8.130  0.00  0.00    -0.469 OA
ENDBRANCH   1  27
TORSDOF 4
ENDMDL
MODEL 3
REMARK VINA RESULT:      -7.2      2.947      6.226
REMARK  Name = 
REMARK  4 active torsions:
REMARK  status: ('A' for Active; 'I' for Inactive)
REMARK    1  A    between atoms: O_2  and  C_3
REMARK    2  A    between atoms: C_4  and  N_5
REMARK    3  A    between atoms: C_18  and  C_19
REMARK    4  A    between atoms: N_23  and  C_24
REMARK                            x       y       z     vdW  Elec       q    Type
REMARK                         _______ _______ _______ _____ _____    ______ ____
ROOT
ATOM      1  C   UNL     1       0.841   5.605  -4.750  0.00  0.00    +0.170 A 
ATOM      2  C   UNL     1       0.175   5.918  -3.579  0.00  0.00    +0.099 A 
ATOM      3  C   UNL     1      -1.179   6.236  -3.616  0.00  0.00    +0.060 A 
ATOM      4  C   UNL     1      -1.807   6.682  -2.483  0.00  0.00    +0.205 A 
ATOM      5  C   UNL     1      -1.127   6.505  -1.286  0.00  0.00    +0.136 A 
ATOM      6  C   UNL     1       0.192   6.071  -1.280  0.00  0.00    +0.086 A 
ATOM      7  O   UNL     1      -2.929   7.221  -2.566  0.00  0.00    -0.286 OA
ATOM      8  C   UNL     1      -1.872   6.132  -4.810  0.00  0.00    +0.036 A 
ATOM      9  C   UNL     1      -1.242   5.566  -5.907  0.00  0.00    +0.157 A 
ATOM     10  F   UNL     1      -2.025   4.881  -6.784  0.00  0.00    -0.203 F 
ATOM     11  N   UNL     1       0.887   5.969  -2.433  0.00  0.00    -0.325 N 
ATOM     12  C   UNL     1       0.125   5.334  -5.906  0.00  0.00    +0.112 A 
ENDROOT
BRANCH  12  13
ATOM     13  N   UNL     1       0.795   4.665  -6.961  0.00  0.00    -0.300 N 
ATOM     14  C   UNL     1       0.637   5.246  -8.300  0.00  0.00    +0.108 C 
ATOM     15  C   UNL     1       1.955   6.229  -8.293  0.00  0.00    +0.093 C 
ATOM     16  C   UNL     1       1.592   6.849  -9.770  0.00  0.00    +0.021 C 
ATOM     17  N   UNL     1       2.887   5.129  -8.925  0.00  0.00    -0.216 NA
ATOM     18  C   UNL     1       2.686   3.935  -8.191  0.00  0.00    +0.110 C 
ATOM     19  C   UNL     1       2.132   4.089  -6.824  0.00  0.00    +0.110 C 
ENDBRANCH  12  13
BRANCH   5  20
ATOM     20  C   UNL     1      -1.706   7.200  -0.128  0.00  0.00    +0.392 C 
ATOM     21  O   UNL     1      -1.381   8.544  -0.002  0.00  0.00    -0.240 OA
ATOM     22  O   UNL     1      -1.782   6.540   0.951  0.00  0.00    -0.240 OA
ENDBRANCH   5  20
BRANCH  11  23
ATOM     23  C   UNL     1       2.283   5.561  -2.470  0.00  0.00    +0.086 C 
ATOM     24  C   UNL     1       2.826   5.033  -1.192  0.00  0.00    +0.024 C 
ATOM     25  C   UNL     1       3.200   6.409  -1.540  0.00  0.00    +0.024 C 
ENDBRANCH  11  23
BRANCH   1  27
ATOM     26  C   UNL     1       2.373   6.693  -5.058  0.00  0.00    +0.253 C 
ATOM     27  O   UNL     1       2.155   6.078  -4.875  0.00  0.00    -0.469 OA
ENDBRANCH   1  27
TORSDOF 4
ENDMDL
MODEL 4
REMARK VINA RESULT:      -7.0      6.310      9.265
REMARK  Name = 
REMARK  4 active torsions:
REMARK  status: ('A' for Active; 'I' for Inactive)
REMARK    1  A    between atoms: O_2  and  C_3
REMARK    2  A    between atoms: C_4  and  N_5
REMARK    3  A    between atoms: C_18  and  C_19
REMARK    4  A    between atoms: N_23  and  C_24
REMARK                            x       y       z     vdW  Elec       q    Type
REMARK                         _______ _______ _______ _____ _____    ______ ____
ROOT
ATOM      1  C   UNL     1       3.860   5.587 -10.345  0.00  0.00    +0.170 A 
ATOM      2  C   UNL     1       4.549   5.823 -11.521  0.00  0.00    +0.099 A 
ATOM      3  C   UNL     1       5.921   6.051 -11.486  0.00  0.00    +0.060 A 
ATOM      4  C   UNL     1       6.582   6.423 -12.627  0.00  0.00    +0.205 A 
ATOM      5  C   UNL     1       5.896   6.259 -13.822  0.00  0.00    +0.136 A 
ATOM      6  C   UNL     1       4.551   5.916 -13.824  0.00  0.00    +0.086 A 
ATOM      7  O   UNL     1       7.737   6.887 -12.552  0.00  0.00    -0.286 OA
ATOM      8  C   UNL     1       6.602   5.932 -10.285  0.00  0.00    +0.036 A 
ATOM      9  C   UNL     1       5.932   5.439  -9.177  0.00  0.00    +0.157 A 
ATOM     10  F   UNL     1       6.664   4.727  -8.278  0.00  0.00    -0.203 F 
ATOM     11  N   UNL     1       3.846   5.891 -12.671  0.00  0.00    -0.325 N 
ATOM     12  C   UNL     1       4.553   5.300  -9.179  0.00  0.00    +0.112 A 
ENDROOT
BRANCH  12  13
ATOM     13  N   UNL     1       3.835   4.706  -8.110  0.00  0.00    -0.300 N 
ATOM     14  C   UNL     1       4.009   5.326  -6.791  0.00  0.00    +0.108 C 
ATOM     15  C   UNL     1       2.746   6.376  -6.850  0.00  0.00    +0.093 C 
ATOM     16  C   UNL     1       3.124   7.030  -5.392  0.00  0.00    +0.021 C 
ATOM     17  N   UNL     1       1.748   5.351  -6.192  0.00  0.00    -0.216 NA
ATOM     18  C   UNL     1       1.894   4.123  -6.880  0.00  0.00    +0.110 C 
ATOM     19  C   UNL     1       2.471   4.198  -8.245  0.00  0.00    +0.110 C 
ENDBRANCH  12  13
BRANCH   5  20
ATOM     20  C   UNL     1       6.524   6.882 -14.995  0.00  0.00    +0.392 C 
ATOM     21  O   UNL     1       5.951   8.070 -15.432  0.00  0.00    -0.240 OA
ATOM     22  O   UNL     1       6.943   6.099 -15.898  0.00  0.00    -0.240 OA
ENDBRANCH   5  20
BRANCH  11  23
ATOM     23  C   UNL     1       2.425   5.579 -12.631  0.00  0.00    +0.086 C 
ATOM     24  C   UNL     1       1.842   5.103 -13.911  0.00  0.00    +0.024 C 
ATOM     25  C   UNL     1       1.564   6.498 -13.547  0.00  0.00    +0.024 C 
ENDBRANCH  11  23
BRANCH   1  27
ATOM     26  C   UNL     1       2.400   6.764 -10.015  0.00  0.00    +0.253 C 
ATOM     27  O   UNL     1       2.581   6.151 -10.240  0.00  0.00    -0.469 OA
ENDBRANCH   1  27
TORSDOF 4
ENDMDL
MODEL 5
REMARK VINA RESULT:      -6.9      3.215      6.347
REMARK  Name = 
REMARK  4 active torsions:
REMARK  status: ('A' for Active; 'I' for Inactive)
REMARK    1  A    between atoms: O_2  and  C_3
REMARK    2  A    between atoms: C_4  and  N_5
REMARK    3  A    between atoms: C_18  and  C_19
REMARK    4  A    between atoms: N_23  and  C_24
REMARK                            x       y       z     vdW  Elec       q    Type
REMARK                         _______ _______ _______ _____ _____    ______ ____
ROOT
ATOM      1  C   UNL     1       2.204   5.625  -6.382  0.00  0.00    +0.170 A 
ATOM      2  C   UNL     1       1.001   5.621  -5.699  0.00  0.00    +0.099 A 
ATOM      3  C   UNL     1      -0.197   5.581  -6.405  0.00  0.00    +0.060 A 
ATOM      4  C   UNL     1      -1.387   5.718  -5.740  0.00  0.00    +0.205 A 
ATOM      5  C   UNL     1      -1.345   5.588  -4.360  0.00  0.00    +0.136 A 
ATOM      6  C   UNL     1      -0.129   5.513  -3.694  0.00  0.00    +0.086 A 
ATOM      7  O   UNL     1      -2.431   5.955  -6.380  0.00  0.00    -0.286 OA
ATOM      8  C   UNL     1      -0.172   5.436  -7.782  0.00  0.00    +0.036 A 
ATOM      9  C   UNL     1       1.036   5.180  -8.411  0.00  0.00    +0.157 A 
ATOM     10  F   UNL     1       0.997   4.420  -9.539  0.00  0.00    -0.203 F 
ATOM     11  N   UNL     1       1.031   5.725  -4.353  0.00  0.00    -0.325 N 
ATOM     12  C   UNL     1       2.237   5.310  -7.732  0.00  0.00    +0.112 A 
ENDROOT
BRANCH  12  13
ATOM     13  N   UNL     1       3.488   4.961  -8.301  0.00  0.00    -0.300 N 
ATOM     14  C   UNL     1       3.588   5.071  -9.762  0.00  0.00    +0.108 C 
ATOM     15  C   UNL     1       4.154   6.612  -9.850  0.00  0.00    +0.093 C 
ATOM     16  C   UNL     1       4.124   6.608 -11.491  0.00  0.00    +0.021 C 
ATOM     17  N   UNL     1       5.660   6.154  -9.822  0.00  0.00    -0.216 NA
ATOM     18  C   UNL     1       5.799   5.234  -8.755  0.00  0.00    +0.110 C 
ATOM     19  C   UNL     1       4.771   5.302  -7.688  0.00  0.00    +0.110 C 
ENDBRANCH  12  13
BRANCH   5  20
ATOM     20  C   UNL     1      -2.576   5.975  -3.656  0.00  0.00    +0.392 C 
ATOM     21  O   UNL     1      -2.564   7.226  -3.055  0.00  0.00    -0.240 OA
ATOM     22  O   UNL     1      -3.182   5.057  -3.027  0.00  0.00    -0.240 OA
ENDBRANCH   5  20
BRANCH  11  23
ATOM     23  C   UNL     1       2.324   5.698  -3.687  0.00  0.00    +0.086 C 
ATOM     24  C   UNL     1       2.295   5.304  -2.256  0.00  0.00    +0.024 C 
ATOM     25  C   UNL     1       2.448   6.737  -2.535  0.00  0.00    +0.024 C 
ENDBRANCH  11  23
BRANCH   1  27
ATOM     26  C   UNL     1       3.352   7.088  -5.974  0.00  0.00    +0.253 C 
ATOM     27  O   UNL     1       3.224   6.432  -5.860  0.00  0.00    -0.469 OA
ENDBRANCH   1  27
TORSDOF 4
ENDMDL
MODEL 6
REMARK VINA RESULT:      -6.8      5.112      7.592
REMARK  Name = 
REMARK  4 active torsions:
REMARK  status: ('A' for Active; 'I' for Inactive)
REMARK    1  A    between atoms: O_2  and  C_3
REMARK    2  A    between atoms: C_4  and  N_5
REMARK    3  A    between atoms: C_18  and  C_19
REMARK    4  A    between atoms: N_23  and  C_24
REMARK                            x       y       z     vdW  Elec       q    Type
REMARK                         _______ _______ _______ _____ _____    ______ ____
ROOT
ATOM      1  C   UNL     1       3.036   5.977  -8.798  0.00  0.00    +0.170 A 
ATOM      2  C   UNL     1       3.226   5.961 -10.168  0.00  0.00    +0.099 A 
ATOM      3  C   UNL     1       4.504   5.788 -10.688  0.00  0.00    +0.060 A 
ATOM      4  C   UNL     1       4.717   5.911 -12.036  0.00  0.00    +0.205 A 
ATOM      5  C   UNL     1       3.589   5.905 -12.845  0.00  0.00    +0.136 A 
ATOM      6  C   UNL     1       2.319   5.960 -12.287  0.00  0.00    +0.086 A 
ATOM      7  O   UNL     1       5.879   6.028 -12.473  0.00  0.00    -0.286 OA
ATOM      8  C   UNL     1       5.560   5.525  -9.830  0.00  0.00    +0.036 A 
ATOM      9  C   UNL     1       5.296   5.288  -8.491  0.00  0.00    +0.157 A 
ATOM     10  F   UNL     1       6.128   4.431  -7.839  0.00  0.00    -0.203 F 
ATOM     11  N   UNL     1       2.158   6.183 -10.964  0.00  0.00    -0.325 N 
ATOM     12  C   UNL     1       4.046   5.549  -7.951  0.00  0.00    +0.112 A 
ENDROOT
BRANCH  12  13
ATOM     13  N   UNL     1       3.700   5.227  -6.615  0.00  0.00    -0.300 N 
ATOM     14  C   UNL     1       4.549   5.808  -5.568  0.00  0.00    +0.108 C 
ATOM     15  C   UNL     1       3.690   7.182  -5.295  0.00  0.00    +0.093 C 
ATOM     16  C   UNL     1       4.784   7.739  -4.204  0.00  0.00    +0.021 C 
ATOM     17  N   UNL     1       2.820   6.519  -4.163  0.00  0.00    -0.216 NA
ATOM     18  C   UNL     1       2.349   5.282  -4.666  0.00  0.00    +0.110 C 
ATOM     19  C   UNL     1       2.319   5.141  -6.143  0.00  0.00    +0.110 C 
ENDBRANCH  12  13
BRANCH   5  20
ATOM     20  C   UNL     1       3.822   6.277 -14.247  0.00  0.00    +0.392 C 
ATOM     21  O   UNL     1       2.695   6.328 -15.056  0.00  0.00    -0.240 OA
ATOM     22  O   UNL     1       4.878   5.828 -14.785  0.00  0.00    -0.240 OA
ENDBRANCH   5  20
BRANCH  11  23
ATOM     23  C   UNL     1       0.846   6.292 -10.344  0.00  0.00    +0.086 C 
ATOM     24  C   UNL     1      -0.276   5.712 -11.124  0.00  0.00    +0.024 C 
ATOM     25  C   UNL     1      -0.149   7.174 -11.154  0.00  0.00    +0.024 C 
ENDBRANCH  11  23
BRANCH   1  27
ATOM     26  C   UNL     1       2.157   7.550  -8.180  0.00  0.00    +0.253 C 
ATOM     27  O   UNL     1       2.091   6.887  -8.303  0.00  0.00    -0.469 OA
ENDBRANCH   1  27
TORSDOF 4
ENDMDL
MODEL 7
REMARK VINA RESULT:      -6.8      3.291      6.856
REMARK  Name = 
REMARK  4 active torsions:
REMARK  status: ('A' for Active; 'I' for Inactive)
REMARK    1  A    between atoms: O_2  and  C_3
REMARK    2  A    between atoms: C_4  and  N_5
REMARK    3  A    between atoms: C_18  and  C_19
REMARK    4  A    between atoms: N_23  and  C_24
REMARK                            x       y       z     vdW  Elec       q    Type
REMARK                         _______ _______ _______ _____ _____    ______ ____
ROOT
ATOM      1  C   UNL     1       1.793   5.720  -6.574  0.00  0.00    +0.170 A 
ATOM      2  C   UNL     1       1.607   5.721  -5.203  0.00  0.00    +0.099 A 
ATOM      3  C   UNL     1       0.319   5.708  -4.678  0.00  0.00    +0.060 A 
ATOM      4  C   UNL     1       0.129   5.851  -3.329  0.00  0.00    +0.205 A 
ATOM      5  C   UNL     1       1.249   5.699  -2.525  0.00  0.00    +0.136 A 
ATOM      6  C   UNL     1       2.514   5.597  -3.088  0.00  0.00    +0.086 A 
ATOM      7  O   UNL     1      -1.009   6.111  -2.887  0.00  0.00    -0.286 OA
ATOM      8  C   UNL     1      -0.765   5.584  -5.533  0.00  0.00    +0.036 A 
ATOM      9  C   UNL     1      -0.538   5.321  -6.874  0.00  0.00    +0.157 A 
ATOM     10  F   UNL     1      -1.473   4.579  -7.526  0.00  0.00    -0.203 F 
ATOM     11  N   UNL     1       2.697   5.804  -4.411  0.00  0.00    -0.325 N 
ATOM     12  C   UNL     1       0.733   5.425  -7.418  0.00  0.00    +0.112 A 
ENDROOT
BRANCH  12  13
ATOM     13  N   UNL     1       1.031   5.069  -8.757  0.00  0.00    -0.300 N 
ATOM     14  C   UNL     1       0.073   5.515  -9.775  0.00  0.00    +0.108 C 
ATOM     15  C   UNL     1       0.782   6.946 -10.163  0.00  0.00    +0.093 C 
ATOM     16  C   UNL     1      -0.421   7.344 -11.209  0.00  0.00    +0.021 C 
ATOM     17  N   UNL     1       1.645   6.308 -11.315  0.00  0.00    -0.216 NA
ATOM     18  C   UNL     1       2.258   5.146 -10.786  0.00  0.00    +0.110 C 
ATOM     19  C   UNL     1       2.385   5.085  -9.309  0.00  0.00    +0.110 C 
ENDBRANCH  12  13
BRANCH   5  20
ATOM     20  C   UNL     1       1.070   6.091  -1.121  0.00  0.00    +0.392 C 
ATOM     21  O   UNL     1       1.405   7.402  -0.809  0.00  0.00    -0.240 OA
ATOM     22  O   UNL     1       1.354   5.219  -0.247  0.00  0.00    -0.240 OA
ENDBRANCH   5  20
BRANCH  11  23
ATOM     23  C   UNL     1       4.010   5.750  -5.036  0.00  0.00    +0.086 C 
ATOM     24  C   UNL     1       5.106   5.242  -4.171  0.00  0.00    +0.024 C 
ATOM     25  C   UNL     1       5.051   6.696  -4.369  0.00  0.00    +0.024 C 
ENDBRANCH  11  23
BRANCH   1  27
ATOM     26  C   UNL     1       2.844   7.162  -7.237  0.00  0.00    +0.253 C 
ATOM     27  O   UNL     1       2.843   6.505  -7.069  0.00  0.00    -0.469 OA
ENDBRANCH   1  27
TORSDOF 4
ENDMDL
MODEL 8
REMARK VINA RESULT:      -6.8      1.700      2.180
REMARK  Name = 
REMARK  4 active torsions:
REMARK  status: ('A' for Active; 'I' for Inactive)
REMARK    1  A    between atoms: O_2  and  C_3
REMARK    2  A    between atoms: C_4  and  N_5
REMARK    3  A    between atoms: C_18  and  C_19
REMARK    4  A    between atoms: N_23  and  C_24
REMARK                            x       y       z     vdW  Elec       q    Type
REMARK                         _______ _______ _______ _____ _____    ______ ____
ROOT
ATOM      1  C   UNL     1       2.819   6.831  -1.132  0.00  0.00    +0.170 A 
ATOM      2  C   UNL     1       2.139   6.411  -2.260  0.00  0.00    +0.099 A 
ATOM      3  C   UNL     1       0.778   6.131  -2.185  0.00  0.00    +0.060 A 
ATOM      4  C   UNL     1       0.133   5.581  -3.261  0.00  0.00    +0.205 A 
ATOM      5  C   UNL     1       0.808   5.613  -4.473  0.00  0.00    +0.136 A 
ATOM      6  C   UNL     1       2.137   6.011  -4.530  0.00  0.00    +0.086 A 
ATOM      7  O   UNL     1      -1.002   5.082  -3.117  0.00  0.00    -0.286 OA
ATOM      8  C   UNL     1       0.095   6.380  -1.006  0.00  0.00    +0.036 A 
ATOM      9  C   UNL     1       0.744   7.045   0.021  0.00  0.00    +0.157 A 
ATOM     10  F   UNL     1      -0.016   7.838   0.823  0.00  0.00    -0.203 F 
ATOM     11  N   UNL     1       2.842   6.220  -3.397  0.00  0.00    -0.325 N 
ATOM     12  C   UNL     1       2.116   7.242  -0.009  0.00  0.00    +0.112 A 
ENDROOT
BRANCH  12  13
ATOM     13  N   UNL     1       2.809   8.003   0.965  0.00  0.00    -0.300 N 
ATOM     14  C   UNL     1       3.549   9.170   0.470  0.00  0.00    +0.108 C 
ATOM     15  C   UNL     1       2.369  10.300   0.652  0.00  0.00    +0.093 C 
ATOM     16  C   UNL     1       3.296  11.483  -0.008  0.00  0.00    +0.021 C 
ATOM     17  N   UNL     1       2.831  10.676   2.109  0.00  0.00    -0.216 NA
ATOM     18  C   UNL     1       2.997   9.465   2.823  0.00  0.00    +0.110 C 
ATOM     19  C   UNL     1       2.269   8.285   2.295  0.00  0.00    +0.110 C 
ENDBRANCH  12  13
BRANCH   5  20
ATOM     20  C   UNL     1       0.206   4.812  -5.547  0.00  0.00    +0.392 C 
ATOM     21  O   UNL     1       1.004   3.806  -6.075  0.00  0.00    -0.240 OA
ATOM     22  O   UNL     1      -0.531   5.431  -6.371  0.00  0.00    -0.240 OA
ENDBRANCH   5  20
BRANCH  11  23
ATOM     23  C   UNL     1       4.248   6.596  -3.409  0.00  0.00    +0.086 C 
ATOM     24  C   UNL     1       4.816   6.891  -4.749  0.00  0.00    +0.024 C 
ATOM     25  C   UNL     1       5.152   5.583  -4.173  0.00  0.00    +0.024 C 
ENDBRANCH  11  23
BRANCH   1  27
ATOM     26  C   UNL     1       4.346   5.856  -0.547  0.00  0.00    +0.253 C 
ATOM     27  O   UNL     1       4.122   6.343  -0.962  0.00  0.00    -0.469 OA
ENDBRANCH   1  27
TORSDOF 4
ENDMDL
MODEL 9
REMARK VINA RESULT:      -6.7      2.868      6.109
REMARK  Name = 
REMARK  4 active torsions:
REMARK  status: ('A' for Active; 'I' for Inactive)
REMARK    1  A    between atoms: O_2  and  C_3
REMARK    2  A    between atoms: C_4  and  N_5
REMARK    3  A    between atoms: C_18  and  C_19
REMARK    4  A    between atoms: N_23  and  C_24
REMARK                            x       y       z     vdW  Elec       q    Type
REMARK                         _______ _______ _______ _____ _____    ______ ____
ROOT
ATOM      1  C   UNL     1       2.486   6.465  -4.807  0.00  0.00    +0.170 A 
ATOM      2  C   UNL     1       1.553   6.219  -3.816  0.00  0.00    +0.099 A 
ATOM      3  C   UNL     1       0.213   6.521  -4.035  0.00  0.00    +0.060 A 
ATOM      4  C   UNL     1      -0.689   6.411  -3.010  0.00  0.00    +0.205 A 
ATOM      5  C   UNL     1      -0.269   5.714  -1.886  0.00  0.00    +0.136 A 
ATOM      6  C   UNL     1       1.057   5.323  -1.751  0.00  0.00    +0.086 A 
ATOM      7  O   UNL     1      -1.818   6.930  -3.118  0.00  0.00    -0.286 OA
ATOM      8  C   UNL     1      -0.191   6.965  -5.284  0.00  0.00    +0.036 A 
ATOM      9  C   UNL     1       0.718   6.951  -6.329  0.00  0.00    +0.157 A 
ATOM     10  F   UNL     1       0.221   6.734  -7.577  0.00  0.00    -0.203 F 
ATOM     11  N   UNL     1       1.992   5.750  -2.628  0.00  0.00    -0.325 N 
ATOM     12  C   UNL     1       2.069   6.743  -6.100  0.00  0.00    +0.112 A 
ENDROOT
BRANCH  12  13
ATOM     13  N   UNL     1       3.019   6.619  -7.145  0.00  0.00    -0.300 N 
ATOM     14  C   UNL     1       3.452   5.255  -7.468  0.00  0.00    +0.108 C 
ATOM     15  C   UNL     1       2.350   4.923  -8.642  0.00  0.00    +0.093 C 
ATOM     16  C   UNL     1       2.896   3.385  -8.824  0.00  0.00    +0.021 C 
ATOM     17  N   UNL     1       3.287   5.448  -9.792  0.00  0.00    -0.216 NA
ATOM     18  C   UNL     1       3.777   6.714  -9.390  0.00  0.00    +0.110 C 
ATOM     19  C   UNL     1       2.984   7.430  -8.361  0.00  0.00    +0.110 C 
ENDBRANCH  12  13
BRANCH   5  20
ATOM     20  C   UNL     1      -1.155   5.815  -0.718  0.00  0.00    +0.392 C 
ATOM     21  O   UNL     1      -2.407   5.230  -0.854  0.00  0.00    -0.240 OA
ATOM     22  O   UNL     1      -1.112   6.900  -0.065  0.00  0.00    -0.240 OA
ENDBRANCH   5  20
BRANCH  11  23
ATOM     23  C   UNL     1       3.399   5.400  -2.502  0.00  0.00    +0.086 C 
ATOM     24  C   UNL     1       3.733   4.510  -1.361  0.00  0.00    +0.024 C 
ATOM     25  C   UNL     1       4.052   5.934  -1.193  0.00  0.00    +0.024 C 
ENDBRANCH  11  23
BRANCH   1  27
ATOM     26  C   UNL     1       4.050   7.521  -4.556  0.00  0.00    +0.253 C 
ATOM     27  O   UNL     1       3.737   6.943  -4.392  0.00  0.00    -0.469 OA
ENDBRANCH   1  27
TORSDOF 4
ENDMDL
