MODEL 1
REMARK VINA RESULT:      -9.1      0.000      0.000
REMARK  Name = 
REMARK  4 active torsions:
REMARK  status: ('A' for Active; 'I' for Inactive)
REMARK    1  A    between atoms: C_5  and  C_6
REMARK    2  A    between atoms: C_8  and  C_9
REMARK    3  A    between atoms: N_14  and  C_15
REMARK    4  A    between atoms: C_18  and  S_19
REMARK                            x       y       z     vdW  Elec       q    Type
REMARK                         _______ _______ _______ _____ _____    ______ ____
ROOT
ATOM      1  C   UNL     1       1.058   5.441  -7.284  0.00  0.00    +0.084 A 
ATOM      2  N   UNL     1       1.201   5.499  -5.946  0.00  0.00    -0.230 N 
ATOM      3  N   UNL     1       0.023   5.077  -5.482  0.00  0.00    -0.161 NA
ATOM      4  C   UNL     1      -0.963   5.438  -6.336  0.00  0.00    +0.174 A 
ATOM      5  C   UNL     1      -0.279   5.750  -7.506  0.00  0.00    +0.044 A 
ENDROOT
BRANCH   1  10
ATOM      6  C   UNL     1       5.108   5.514 -11.238  0.00  0.00    +0.031 C 
ATOM      7  C   UNL     1       4.332   5.614  -9.986  0.00  0.00    -0.022 A 
ATOM      8  C   UNL     1       3.765   6.780  -9.516  0.00  0.00    -0.004 A 
ATOM      9  C   UNL     1       2.657   6.765  -8.677  0.00  0.00    +0.001 A 
ATOM     10  C   UNL     1       2.147   5.572  -8.249  0.00  0.00    +0.018 A 
ATOM     11  C   UNL     1       2.905   4.432  -8.484  0.00  0.00    +0.001 A 
ATOM     12  C   UNL     1       3.972   4.449  -9.347  0.00  0.00    -0.004 A 
ENDBRANCH   1  10
BRANCH   2  13
ATOM     13  C   UNL     1       2.378   5.802  -5.183  0.00  0.00    +0.083 A 
ATOM     14  C   UNL     1       2.423   6.898  -4.326  0.00  0.00    +0.021 A 
ATOM     15  C   UNL     1       3.016   6.815  -3.071  0.00  0.00    +0.022 A 
ATOM     16  C   UNL     1       3.614   5.628  -2.661  0.00  0.00    +0.125 A 
ATOM     17  C   UNL     1       3.982   4.769  -3.690  0.00  0.00    +0.022 A 
ATOM     18  C   UNL     1       3.342   4.835  -4.923  0.00  0.00    +0.021 A 
BRANCH  16  19
ATOM     19  S   UNL     1       3.531   5.127  -0.992  0.00  0.00    +0.093 S 
ATOM     20  O   UNL     1       4.692   4.234  -0.671  0.00  0.00    -0.150 OA
ATOM     21  O   UNL     1       2.252   4.384  -0.687  0.00  0.00    -0.150 OA
ATOM     22  N   UNL     1       3.658   6.559  -0.018  0.00  0.00    +0.039 NA
ENDBRANCH  16  19
ENDBRANCH   2  13
BRANCH   4  23
ATOM     23  C   UNL     1      -2.332   5.914  -5.961  0.00  0.00    +0.437 C 
ATOM     24  F   UNL     1      -2.294   7.183  -5.403  0.00  0.00    -0.164 F 
ATOM     25  F   UNL     1      -3.121   5.934  -7.098  0.00  0.00    -0.164 F 
ATOM     26  F   UNL     1      -2.894   5.102  -4.983  0.00  0.00    -0.164 F 
ENDBRANCH   4  23
TORSDOF 4
ENDMDL
MODEL 2
REMARK VINA RESULT:      -9.0      1.157      1.678
REMARK  Name = 
REMARK  4 active torsions:
REMARK  status: ('A' for Active; 'I' for Inactive)
REMARK    1  A    between atoms: C_5  and  C_6
REMARK    2  A    between atoms: C_8  and  C_9
REMARK    3  A    between atoms: N_14  and  C_15
REMARK    4  A    between atoms: C_18  and  S_19
REMARK                            x       y       z     vdW  Elec       q    Type
REMARK                         _______ _______ _______ _____ _____    ______ ____
ROOT
ATOM      1  C   UNL     1       1.528   5.370  -6.959  0.00  0.00    +0.084 A 
ATOM      2  N   UNL     1       1.681   5.466  -5.624  0.00  0.00    -0.230 N 
ATOM      3  N   UNL     1       0.524   5.014  -5.138  0.00  0.00    -0.161 NA
ATOM      4  C   UNL     1      -0.483   5.319  -5.990  0.00  0.00    +0.174 A 
ATOM      5  C   UNL     1       0.179   5.627  -7.174  0.00  0.00    +0.044 A 
ENDROOT
BRANCH   1  10
ATOM      6  C   UNL     1       5.809   6.376 -10.522  0.00  0.00    +0.031 C 
ATOM      7  C   UNL     1       4.523   5.995  -9.907  0.00  0.00    -0.022 A 
ATOM      8  C   UNL     1       4.202   4.713  -9.511  0.00  0.00    -0.004 A 
ATOM      9  C   UNL     1       3.270   4.470  -8.510  0.00  0.00    +0.001 A 
ATOM     10  C   UNL     1       2.602   5.516  -7.938  0.00  0.00    +0.018 A 
ATOM     11  C   UNL     1       2.714   6.757  -8.552  0.00  0.00    +0.001 A 
ATOM     12  C   UNL     1       3.666   6.997  -9.511  0.00  0.00    -0.004 A 
ENDBRANCH   1  10
BRANCH   2  13
ATOM     13  C   UNL     1       2.854   5.829  -4.881  0.00  0.00    +0.083 A 
ATOM     14  C   UNL     1       3.085   7.144  -4.489  0.00  0.00    +0.021 A 
ATOM     15  C   UNL     1       3.580   7.450  -3.226  0.00  0.00    +0.022 A 
ATOM     16  C   UNL     1       3.891   6.429  -2.334  0.00  0.00    +0.125 A 
ATOM     17  C   UNL     1       4.122   5.188  -2.918  0.00  0.00    +0.022 A 
ATOM     18  C   UNL     1       3.577   4.884  -4.161  0.00  0.00    +0.021 A 
BRANCH  16  19
ATOM     19  S   UNL     1       3.617   6.634  -0.624  0.00  0.00    +0.093 S 
ATOM     20  O   UNL     1       3.681   8.090  -0.269  0.00  0.00    -0.150 OA
ATOM     21  O   UNL     1       4.636   5.889   0.206  0.00  0.00    -0.150 OA
ATOM     22  N   UNL     1       2.013   6.061  -0.289  0.00  0.00    +0.039 NA
ENDBRANCH  16  19
ENDBRANCH   2  13
BRANCH   4  23
ATOM     23  C   UNL     1      -1.864   5.756  -5.611  0.00  0.00    +0.437 C 
ATOM     24  F   UNL     1      -2.243   5.236  -4.384  0.00  0.00    -0.164 F 
ATOM     25  F   UNL     1      -1.890   7.139  -5.554  0.00  0.00    -0.164 F 
ATOM     26  F   UNL     1      -2.805   5.281  -6.516  0.00  0.00    -0.164 F 
ENDBRANCH   4  23
TORSDOF 4
ENDMDL
MODEL 3
REMARK VINA RESULT:      -8.9      4.305      5.183
REMARK  Name = 
REMARK  4 active torsions:
REMARK  status: ('A' for Active; 'I' for Inactive)
REMARK    1  A    between atoms: C_5  and  C_6
REMARK    2  A    between atoms: C_8  and  C_9
REMARK    3  A    between atoms: N_14  and  C_15
REMARK    4  A    between atoms: C_18  and  S_19
REMARK                            x       y       z     vdW  Elec       q    Type
REMARK                         _______ _______ _______ _____ _____    ______ ____
ROOT
ATOM      1  C   UNL     1      -0.046   5.381  -8.132  0.00  0.00    +0.084 A 
ATOM      2  N   UNL     1       0.847   4.972  -7.210  0.00  0.00    -0.230 N 
ATOM      3  N   UNL     1       0.091   4.634  -6.164  0.00  0.00    -0.161 NA
ATOM      4  C   UNL     1      -1.009   5.421  -6.118  0.00  0.00    +0.174 A 
ATOM      5  C   UNL     1      -1.064   5.974  -7.393  0.00  0.00    +0.044 A 
ENDROOT
BRANCH   1  10
ATOM      6  C   UNL     1       0.669   6.135 -13.696  0.00  0.00    +0.031 C 
ATOM      7  C   UNL     1       0.847   5.847 -12.260  0.00  0.00    -0.022 A 
ATOM      8  C   UNL     1       1.337   6.753 -11.342  0.00  0.00    -0.004 A 
ATOM      9  C   UNL     1       1.021   6.667  -9.992  0.00  0.00    +0.001 A 
ATOM     10  C   UNL     1       0.256   5.629  -9.540  0.00  0.00    +0.018 A 
ATOM     11  C   UNL     1       0.028   4.575 -10.416  0.00  0.00    +0.001 A 
ATOM     12  C   UNL     1       0.307   4.685 -11.755  0.00  0.00    -0.004 A 
ENDBRANCH   1  10
BRANCH   2  13
ATOM     13  C   UNL     1       2.264   4.799  -7.352  0.00  0.00    +0.083 A 
ATOM     14  C   UNL     1       2.794   3.815  -8.181  0.00  0.00    +0.021 A 
ATOM     15  C   UNL     1       3.894   4.066  -8.995  0.00  0.00    +0.022 A 
ATOM     16  C   UNL     1       4.513   5.311  -8.965  0.00  0.00    +0.125 A 
ATOM     17  C   UNL     1       4.286   6.053  -7.810  0.00  0.00    +0.022 A 
ATOM     18  C   UNL     1       3.154   5.819  -7.036  0.00  0.00    +0.021 A 
BRANCH  16  19
ATOM     19  S   UNL     1       5.175   6.006 -10.421  0.00  0.00    +0.093 S 
ATOM     20  O   UNL     1       4.774   7.447 -10.526  0.00  0.00    -0.150 OA
ATOM     21  O   UNL     1       4.700   5.283 -11.660  0.00  0.00    -0.150 OA
ATOM     22  N   UNL     1       6.904   5.928 -10.288  0.00  0.00    +0.039 NA
ENDBRANCH  16  19
ENDBRANCH   2  13
BRANCH   4  23
ATOM     23  C   UNL     1      -1.650   5.979  -4.886  0.00  0.00    +0.437 C 
ATOM     24  F   UNL     1      -0.953   5.621  -3.743  0.00  0.00    -0.164 F 
ATOM     25  F   UNL     1      -1.684   7.360  -4.991  0.00  0.00    -0.164 F 
ATOM     26  F   UNL     1      -2.929   5.466  -4.710  0.00  0.00    -0.164 F 
ENDBRANCH   4  23
TORSDOF 4
ENDMDL
MODEL 4
REMARK VINA RESULT:      -8.9      3.700      5.359
REMARK  Name = 
REMARK  4 active torsions:
REMARK  status: ('A' for Active; 'I' for Inactive)
REMARK    1  A    between atoms: C_5  and  C_6
REMARK    2  A    between atoms: C_8  and  C_9
REMARK    3  A    between atoms: N_14  and  C_15
REMARK    4  A    between atoms: C_18  and  S_19
REMARK                            x       y       z     vdW  Elec       q    Type
REMARK                         _______ _______ _______ _____ _____    ______ ____
ROOT
ATOM      1  C   UNL     1       0.420   6.296  -4.128  0.00  0.00    +0.084 A 
ATOM      2  N   UNL     1      -0.282   5.712  -5.119  0.00  0.00    -0.230 N 
ATOM      3  N   UNL     1      -1.543   6.064  -4.864  0.00  0.00    -0.161 NA
ATOM      4  C   UNL     1      -1.726   6.180  -3.528  0.00  0.00    +0.174 A 
ATOM      5  C   UNL     1      -0.430   6.260  -3.030  0.00  0.00    +0.044 A 
ENDROOT
BRANCH   1  10
ATOM      6  C   UNL     1       6.000   7.249  -4.092  0.00  0.00    +0.031 C 
ATOM      7  C   UNL     1       4.649   6.680  -4.270  0.00  0.00    -0.022 A 
ATOM      8  C   UNL     1       4.069   5.775  -3.406  0.00  0.00    -0.004 A 
ATOM      9  C   UNL     1       2.689   5.661  -3.290  0.00  0.00    +0.001 A 
ATOM     10  C   UNL     1       1.876   6.414  -4.090  0.00  0.00    +0.018 A 
ATOM     11  C   UNL     1       2.470   7.086  -5.150  0.00  0.00    +0.001 A 
ATOM     12  C   UNL     1       3.832   7.229  -5.233  0.00  0.00    -0.004 A 
ENDBRANCH   1  10
BRANCH   2  13
ATOM     13  C   UNL     1       0.208   5.000  -6.264  0.00  0.00    +0.083 A 
ATOM     14  C   UNL     1      -0.015   5.465  -7.557  0.00  0.00    +0.021 A 
ATOM     15  C   UNL     1       0.980   5.420  -8.527  0.00  0.00    +0.022 A 
ATOM     16  C   UNL     1       2.221   4.868  -8.227  0.00  0.00    +0.125 A 
ATOM     17  C   UNL     1       2.230   3.995  -7.144  0.00  0.00    +0.022 A 
ATOM     18  C   UNL     1       1.253   4.088  -6.159  0.00  0.00    +0.021 A 
BRANCH  16  19
ATOM     19  S   UNL     1       3.677   5.537  -8.915  0.00  0.00    +0.093 S 
ATOM     20  O   UNL     1       3.552   7.029  -9.019  0.00  0.00    -0.150 OA
ATOM     21  O   UNL     1       3.962   4.980 -10.290  0.00  0.00    -0.150 OA
ATOM     22  N   UNL     1       4.976   5.174  -7.821  0.00  0.00    +0.039 NA
ENDBRANCH  16  19
ENDBRANCH   2  13
BRANCH   4  23
ATOM     23  C   UNL     1      -2.943   5.766  -2.760  0.00  0.00    +0.437 C 
ATOM     24  F   UNL     1      -3.743   4.908  -3.499  0.00  0.00    -0.164 F 
ATOM     25  F   UNL     1      -2.538   5.133  -1.597  0.00  0.00    -0.164 F 
ATOM     26  F   UNL     1      -3.750   6.860  -2.471  0.00  0.00    -0.164 F 
ENDBRANCH   4  23
TORSDOF 4
ENDMDL
MODEL 5
REMARK VINA RESULT:      -8.8      5.316      6.603
REMARK  Name = 
REMARK  4 active torsions:
REMARK  status: ('A' for Active; 'I' for Inactive)
REMARK    1  A    between atoms: C_5  and  C_6
REMARK    2  A    between atoms: C_8  and  C_9
REMARK    3  A    between atoms: N_14  and  C_15
REMARK    4  A    between atoms: C_18  and  S_19
REMARK                            x       y       z     vdW  Elec       q    Type
REMARK                         _______ _______ _______ _____ _____    ______ ____
ROOT
ATOM      1  C   UNL     1       1.296   5.578  -9.168  0.00  0.00    +0.084 A 
ATOM      2  N   UNL     1       2.463   5.608  -8.495  0.00  0.00    -0.230 N 
ATOM      3  N   UNL     1       2.193   4.957  -7.362  0.00  0.00    -0.161 NA
ATOM      4  C   UNL     1       0.902   5.164  -7.010  0.00  0.00    +0.174 A 
ATOM      5  C   UNL     1       0.321   5.643  -8.179  0.00  0.00    +0.044 A 
ENDROOT
BRANCH   1  10
ATOM      6  C   UNL     1       0.690   7.493 -14.459  0.00  0.00    +0.031 C 
ATOM      7  C   UNL     1       0.581   6.752 -13.188  0.00  0.00    -0.022 A 
ATOM      8  C   UNL     1       1.237   5.567 -12.922  0.00  0.00    -0.004 A 
ATOM      9  C   UNL     1       1.540   5.177 -11.623  0.00  0.00    +0.001 A 
ATOM     10  C   UNL     1       1.129   5.946 -10.572  0.00  0.00    +0.018 A 
ATOM     11  C   UNL     1       0.220   6.961 -10.840  0.00  0.00    +0.001 A 
ATOM     12  C   UNL     1      -0.041   7.367 -12.125  0.00  0.00    -0.004 A 
ENDBRANCH   1  10
BRANCH   2  13
ATOM     13  C   UNL     1       3.739   6.093  -8.936  0.00  0.00    +0.083 A 
ATOM     14  C   UNL     1       4.874   5.290  -8.891  0.00  0.00    +0.021 A 
ATOM     15  C   UNL     1       5.798   5.276  -9.931  0.00  0.00    +0.022 A 
ATOM     16  C   UNL     1       5.616   6.105 -11.033  0.00  0.00    +0.125 A 
ATOM     17  C   UNL     1       4.793   7.204 -10.814  0.00  0.00    +0.022 A 
ATOM     18  C   UNL     1       3.843   7.179  -9.799  0.00  0.00    +0.021 A 
BRANCH  16  19
ATOM     19  S   UNL     1       6.071   5.567 -12.629  0.00  0.00    +0.093 S 
ATOM     20  O   UNL     1       6.234   6.749 -13.538  0.00  0.00    -0.150 OA
ATOM     21  O   UNL     1       5.042   4.636 -13.228  0.00  0.00    -0.150 OA
ATOM     22  N   UNL     1       7.608   4.773 -12.484  0.00  0.00    +0.039 NA
ENDBRANCH  16  19
ENDBRANCH   2  13
BRANCH   4  23
ATOM     23  C   UNL     1       0.382   5.363  -5.620  0.00  0.00    +0.437 C 
ATOM     24  F   UNL     1       0.651   6.642  -5.156  0.00  0.00    -0.164 F 
ATOM     25  F   UNL     1      -0.986   5.153  -5.625  0.00  0.00    -0.164 F 
ATOM     26  F   UNL     1       1.011   4.509  -4.723  0.00  0.00    -0.164 F 
ENDBRANCH   4  23
TORSDOF 4
ENDMDL
MODEL 6
REMARK VINA RESULT:      -8.7      3.787      6.035
REMARK  Name = 
REMARK  4 active torsions:
REMARK  status: ('A' for Active; 'I' for Inactive)
REMARK    1  A    between atoms: C_5  and  C_6
REMARK    2  A    between atoms: C_8  and  C_9
REMARK    3  A    between atoms: N_14  and  C_15
REMARK    4  A    between atoms: C_18  and  S_19
REMARK                            x       y       z     vdW  Elec       q    Type
REMARK                         _______ _______ _______ _____ _____    ______ ____
ROOT
ATOM      1  C   UNL     1       3.810   5.548  -6.394  0.00  0.00    +0.084 A 
ATOM      2  N   UNL     1       2.666   5.558  -7.105  0.00  0.00    -0.230 N 
ATOM      3  N   UNL     1       3.013   5.015  -8.273  0.00  0.00    -0.161 NA
ATOM      4  C   UNL     1       4.299   5.328  -8.561  0.00  0.00    +0.174 A 
ATOM      5  C   UNL     1       4.809   5.751  -7.338  0.00  0.00    +0.044 A 
ENDROOT
BRANCH   1  10
ATOM      6  C   UNL     1       4.019   7.058  -0.942  0.00  0.00    +0.031 C 
ATOM      7  C   UNL     1       4.288   6.492  -2.279  0.00  0.00    -0.022 A 
ATOM      8  C   UNL     1       3.958   5.207  -2.657  0.00  0.00    -0.004 A 
ATOM      9  C   UNL     1       3.737   4.872  -3.988  0.00  0.00    +0.001 A 
ATOM     10  C   UNL     1       3.909   5.816  -4.961  0.00  0.00    +0.018 A 
ATOM     11  C   UNL     1       4.527   7.005  -4.595  0.00  0.00    +0.001 A 
ATOM     12  C   UNL     1       4.703   7.344  -3.277  0.00  0.00    -0.004 A 
ENDBRANCH   1  10
BRANCH   2  13
ATOM     13  C   UNL     1       1.347   5.927  -6.675  0.00  0.00    +0.083 A 
ATOM     14  C   UNL     1       0.332   4.982  -6.561  0.00  0.00    +0.021 A 
ATOM     15  C   UNL     1      -0.552   4.991  -5.487  0.00  0.00    +0.022 A 
ATOM     16  C   UNL     1      -0.457   5.981  -4.515  0.00  0.00    +0.125 A 
ATOM     17  C   UNL     1       0.201   7.139  -4.917  0.00  0.00    +0.022 A 
ATOM     18  C   UNL     1       1.118   7.099  -5.962  0.00  0.00    +0.021 A 
BRANCH  16  19
ATOM     19  S   UNL     1      -0.791   5.614  -2.844  0.00  0.00    +0.093 S 
ATOM     20  O   UNL     1      -0.825   6.881  -2.041  0.00  0.00    -0.150 OA
ATOM     21  O   UNL     1       0.248   4.694  -2.247  0.00  0.00    -0.150 OA
ATOM     22  N   UNL     1      -2.366   4.886  -2.782  0.00  0.00    +0.039 NA
ENDBRANCH  16  19
ENDBRANCH   2  13
BRANCH   4  23
ATOM     23  C   UNL     1       4.848   5.667  -9.911  0.00  0.00    +0.437 C 
ATOM     24  F   UNL     1       4.261   4.900 -10.906  0.00  0.00    -0.164 F 
ATOM     25  F   UNL     1       4.609   7.008 -10.163  0.00  0.00    -0.164 F 
ATOM     26  F   UNL     1       6.206   5.385  -9.985  0.00  0.00    -0.164 F 
ENDBRANCH   4  23
TORSDOF 4
ENDMDL
MODEL 7
REMARK VINA RESULT:      -8.7      2.667      4.911
REMARK  Name = 
REMARK  4 active torsions:
REMARK  status: ('A' for Active; 'I' for Inactive)
REMARK    1  A    between atoms: C_5  and  C_6
REMARK    2  A    between atoms: C_8  and  C_9
REMARK    3  A    between atoms: N_14  and  C_15
REMARK    4  A    between atoms: C_18  and  S_19
REMARK                            x       y       z     vdW  Elec       q    Type
REMARK                         _______ _______ _______ _____ _____    ______ ____
ROOT
ATOM      1  C   UNL     1       0.567   6.290  -6.339  0.00  0.00    +0.084 A 
ATOM      2  N   UNL     1       1.906   6.188  -6.451  0.00  0.00    -0.230 N 
ATOM      3  N   UNL     1       2.121   6.240  -7.767  0.00  0.00    -0.161 NA
ATOM      4  C   UNL     1       1.079   5.677  -8.424  0.00  0.00    +0.174 A 
ATOM      5  C   UNL     1       0.073   5.641  -7.464  0.00  0.00    +0.044 A 
ENDROOT
BRANCH   1  10
ATOM      6  C   UNL     1      -1.831   6.990  -1.260  0.00  0.00    +0.031 C 
ATOM      7  C   UNL     1      -1.557   6.720  -2.685  0.00  0.00    -0.022 A 
ATOM      8  C   UNL     1      -1.734   7.640  -3.697  0.00  0.00    -0.004 A 
ATOM      9  C   UNL     1      -1.015   7.566  -4.884  0.00  0.00    +0.001 A 
ATOM     10  C   UNL     1      -0.154   6.526  -5.091  0.00  0.00    +0.018 A 
ATOM     11  C   UNL     1      -0.216   5.460  -4.202  0.00  0.00    +0.001 A 
ATOM     12  C   UNL     1      -0.894   5.559  -3.014  0.00  0.00    -0.004 A 
ENDBRANCH   1  10
BRANCH   2  13
ATOM     13  C   UNL     1       2.893   6.172  -5.409  0.00  0.00    +0.083 A 
ATOM     14  C   UNL     1       3.177   7.311  -4.662  0.00  0.00    +0.021 A 
ATOM     15  C   UNL     1       3.377   7.248  -3.287  0.00  0.00    +0.022 A 
ATOM     16  C   UNL     1       3.331   6.022  -2.633  0.00  0.00    +0.125 A 
ATOM     17  C   UNL     1       3.547   4.914  -3.444  0.00  0.00    +0.022 A 
ATOM     18  C   UNL     1       3.295   4.983  -4.810  0.00  0.00    +0.021 A 
BRANCH  16  19
ATOM     19  S   UNL     1       2.668   5.903  -1.024  0.00  0.00    +0.093 S 
ATOM     20  O   UNL     1       2.110   4.527  -0.804  0.00  0.00    -0.150 OA
ATOM     21  O   UNL     1       1.568   6.912  -0.788  0.00  0.00    -0.150 OA
ATOM     22  N   UNL     1       3.977   6.146   0.090  0.00  0.00    +0.039 NA
ENDBRANCH  16  19
ENDBRANCH   2  13
BRANCH   4  23
ATOM     23  C   UNL     1       1.162   4.820  -9.649  0.00  0.00    +0.437 C 
ATOM     24  F   UNL     1       1.748   5.499 -10.706  0.00  0.00    -0.164 F 
ATOM     25  F   UNL     1       1.913   3.695  -9.351  0.00  0.00    -0.164 F 
ATOM     26  F   UNL     1      -0.103   4.464 -10.098  0.00  0.00    -0.164 F 
ENDBRANCH   4  23
TORSDOF 4
ENDMDL
MODEL 8
REMARK VINA RESULT:      -8.7      4.242      6.267
REMARK  Name = 
REMARK  4 active torsions:
REMARK  status: ('A' for Active; 'I' for Inactive)
REMARK    1  A    between atoms: C_5  and  C_6
REMARK    2  A    between atoms: C_8  and  C_9
REMARK    3  A    between atoms: N_14  and  C_15
REMARK    4  A    between atoms: C_18  and  S_19
REMARK                            x       y       z     vdW  Elec       q    Type
REMARK                         _______ _______ _______ _____ _____    ______ ____
ROOT
ATOM      1  C   UNL     1       4.465   5.500  -7.596  0.00  0.00    +0.084 A 
ATOM      2  N   UNL     1       3.494   4.831  -8.247  0.00  0.00    -0.230 N 
ATOM      3  N   UNL     1       4.100   4.387  -9.350  0.00  0.00    -0.161 NA
ATOM      4  C   UNL     1       5.053   5.267  -9.737  0.00  0.00    +0.174 A 
ATOM      5  C   UNL     1       5.245   6.052  -8.605  0.00  0.00    +0.044 A 
ENDROOT
BRANCH   1  10
ATOM      6  C   UNL     1       4.607   7.181  -2.193  0.00  0.00    +0.031 C 
ATOM      7  C   UNL     1       4.224   6.630  -3.507  0.00  0.00    -0.022 A 
ATOM      8  C   UNL     1       3.500   7.321  -4.457  0.00  0.00    -0.004 A 
ATOM      9  C   UNL     1       3.596   7.019  -5.810  0.00  0.00    +0.001 A 
ATOM     10  C   UNL     1       4.376   5.973  -6.216  0.00  0.00    +0.018 A 
ATOM     11  C   UNL     1       4.849   5.111  -5.236  0.00  0.00    +0.001 A 
ATOM     12  C   UNL     1       4.787   5.438  -3.905  0.00  0.00    -0.004 A 
ENDBRANCH   1  10
BRANCH   2  13
ATOM     13  C   UNL     1       2.161   4.533  -7.807  0.00  0.00    +0.083 A 
ATOM     14  C   UNL     1       1.928   3.813  -6.639  0.00  0.00    +0.021 A 
ATOM     15  C   UNL     1       0.917   4.171  -5.754  0.00  0.00    +0.022 A 
ATOM     16  C   UNL     1       0.088   5.249  -6.044  0.00  0.00    +0.125 A 
ATOM     17  C   UNL     1       0.025   5.598  -7.389  0.00  0.00    +0.022 A 
ATOM     18  C   UNL     1       1.070   5.273  -8.248  0.00  0.00    +0.021 A 
BRANCH  16  19
ATOM     19  S   UNL     1      -0.492   6.288  -4.769  0.00  0.00    +0.093 S 
ATOM     20  O   UNL     1      -1.931   5.983  -4.477  0.00  0.00    -0.150 OA
ATOM     21  O   UNL     1      -0.373   7.750  -5.131  0.00  0.00    -0.150 OA
ATOM     22  N   UNL     1       0.441   5.928  -3.349  0.00  0.00    +0.039 NA
ENDBRANCH  16  19
ENDBRANCH   2  13
BRANCH   4  23
ATOM     23  C   UNL     1       5.387   5.651 -11.145  0.00  0.00    +0.437 C 
ATOM     24  F   UNL     1       6.574   5.070 -11.562  0.00  0.00    -0.164 F 
ATOM     25  F   UNL     1       4.356   5.239 -11.973  0.00  0.00    -0.164 F 
ATOM     26  F   UNL     1       5.591   7.021 -11.256  0.00  0.00    -0.164 F 
ENDBRANCH   4  23
TORSDOF 4
ENDMDL
MODEL 9
REMARK VINA RESULT:      -8.6      3.217      5.051
REMARK  Name = 
REMARK  4 active torsions:
REMARK  status: ('A' for Active; 'I' for Inactive)
REMARK    1  A    between atoms: C_5  and  C_6
REMARK    2  A    between atoms: C_8  and  C_9
REMARK    3  A    between atoms: N_14  and  C_15
REMARK    4  A    between atoms: C_18  and  S_19
REMARK                            x       y       z     vdW  Elec       q    Type
REMARK                         _______ _______ _______ _____ _____    ______ ____
ROOT
ATOM      1  C   UNL     1       0.574   6.024  -8.288  0.00  0.00    +0.084 A 
ATOM      2  N   UNL     1       1.884   5.754  -8.446  0.00  0.00    -0.230 N 
ATOM      3  N   UNL     1       2.139   6.143  -9.697  0.00  0.00    -0.161 NA
ATOM      4  C   UNL     1       1.043   5.954 -10.469  0.00  0.00    +0.174 A 
ATOM      5  C   UNL     1       0.017   5.802  -9.542  0.00  0.00    +0.044 A 
ENDROOT
BRANCH   1  10
ATOM      6  C   UNL     1      -2.279   5.451  -3.432  0.00  0.00    +0.031 C 
ATOM      7  C   UNL     1      -1.713   5.931  -4.708  0.00  0.00    -0.022 A 
ATOM      8  C   UNL     1      -0.620   6.767  -4.806  0.00  0.00    -0.004 A 
ATOM      9  C   UNL     1       0.186   6.784  -5.938  0.00  0.00    +0.001 A 
ATOM     10  C   UNL     1      -0.137   6.004  -7.012  0.00  0.00    +0.018 A 
ATOM     11  C   UNL     1      -1.391   5.407  -7.012  0.00  0.00    +0.001 A 
ATOM     12  C   UNL     1      -2.162   5.359  -5.878  0.00  0.00    -0.004 A 
ENDBRANCH   1  10
BRANCH   2  13
ATOM     13  C   UNL     1       2.829   5.294  -7.469  0.00  0.00    +0.083 A 
ATOM     14  C   UNL     1       3.836   6.124  -6.989  0.00  0.00    +0.021 A 
ATOM     15  C   UNL     1       4.179   6.147  -5.641  0.00  0.00    +0.022 A 
ATOM     16  C   UNL     1       3.535   5.300  -4.745  0.00  0.00    +0.125 A 
ATOM     17  C   UNL     1       2.934   4.184  -5.318  0.00  0.00    +0.022 A 
ATOM     18  C   UNL     1       2.555   4.200  -6.656  0.00  0.00    +0.021 A 
BRANCH  16  19
ATOM     19  S   UNL     1       3.193   5.828  -3.119  0.00  0.00    +0.093 S 
ATOM     20  O   UNL     1       4.194   5.237  -2.170  0.00  0.00    -0.150 OA
ATOM     21  O   UNL     1       1.808   5.425  -2.671  0.00  0.00    -0.150 OA
ATOM     22  N   UNL     1       3.370   7.556  -3.091  0.00  0.00    +0.039 NA
ENDBRANCH  16  19
ENDBRANCH   2  13
BRANCH   4  23
ATOM     23  C   UNL     1       1.029   5.476 -11.888  0.00  0.00    +0.437 C 
ATOM     24  F   UNL     1       0.431   4.230 -11.999  0.00  0.00    -0.164 F 
ATOM     25  F   UNL     1       0.330   6.392 -12.657  0.00  0.00    -0.164 F 
ATOM     26  F   UNL     1       2.320   5.307 -12.373  0.00  0.00    -0.164 F 
ENDBRANCH   4  23
TORSDOF 4
ENDMDL
