MODEL 1
REMARK VINA RESULT:      -4.2      0.000      0.000
REMARK  Name = 
REMARK  3 active torsions:
REMARK  status: ('A' for Active; 'I' for Inactive)
REMARK    1  A    between atoms: N_4  and  CA_5
REMARK    2  A    between atoms: CA_5  and  CB_6
REMARK    3  A    between atoms: CA_5  and  C_8
REMARK                            x       y       z     vdW  Elec       q    Type
REMARK                         _______ _______ _______ _____ _____    ______ ____
ROOT
ATOM      1  CA  CYS A   1       5.502   5.348 -10.750  0.00  0.00    +0.209 C 
ENDROOT
BRANCH   1   4
ATOM      2  C   UNK A   0       8.979   5.830 -12.079  0.00  0.00    +0.096 C 
ATOM      3  C   UNK A   0       7.818   5.413 -11.890  0.00  0.00    +0.242 C 
ATOM      4  N   CYS A   1       6.776   6.096 -11.298  0.00  0.00    -0.195 NA
ATOM      5  O   UNK A   0       7.377   4.645 -12.804  0.00  0.00    -0.273 OA
ENDBRANCH   1   4
BRANCH   1   6
ATOM      6  C   CYS A   1       4.481   6.604 -10.827  0.00  0.00    +0.385 C 
ATOM      7  OXT CYS A   1       5.352   7.707 -10.971  0.00  0.00    -0.244 OA
ATOM      8  O   CYS A   1       3.654   6.625 -11.735  0.00  0.00    -0.244 OA
ENDBRANCH   1   6
BRANCH   1   9
ATOM      9  CB  CYS A   1       5.982   5.521  -9.191  0.00  0.00    +0.102 C 
ATOM     10  SG  CYS A   1       4.888   5.357  -7.950  0.00  0.00    -0.080 S 
ENDBRANCH   1   9
TORSDOF 3
ENDMDL
MODEL 2
REMARK VINA RESULT:      -4.2      5.327      7.042
REMARK  Name = 
REMARK  3 active torsions:
REMARK  status: ('A' for Active; 'I' for Inactive)
REMARK    1  A    between atoms: N_4  and  CA_5
REMARK    2  A    between atoms: CA_5  and  CB_6
REMARK    3  A    between atoms: CA_5  and  C_8
REMARK                            x       y       z     vdW  Elec       q    Type
REMARK                         _______ _______ _______ _____ _____    ______ ____
ROOT
ATOM      1  CA  CYS A   1       1.982   5.931  -7.451  0.00  0.00    +0.209 C 
ENDROOT
BRANCH   1   4
ATOM      2  C   UNK A   0      -1.641   5.301  -6.698  0.00  0.00    +0.096 C 
ATOM      3  C   UNK A   0      -0.457   5.692  -6.637  0.00  0.00    +0.242 C 
ATOM      4  N   CYS A   1       0.427   5.830  -7.687  0.00  0.00    -0.195 NA
ATOM      5  O   UNK A   0      -0.239   6.586  -5.759  0.00  0.00    -0.273 OA
ENDBRANCH   1   4
BRANCH   1   6
ATOM      6  C   CYS A   1       2.238   7.252  -8.355  0.00  0.00    +0.385 C 
ATOM      7  OXT CYS A   1       1.264   7.129  -9.371  0.00  0.00    -0.244 OA
ATOM      8  O   CYS A   1       2.123   8.353  -7.821  0.00  0.00    -0.244 OA
ENDBRANCH   1   6
BRANCH   1   9
ATOM      9  CB  CYS A   1       2.301   4.794  -8.588  0.00  0.00    +0.102 C 
ATOM     10  SG  CYS A   1       3.866   4.500  -9.070  0.00  0.00    -0.080 S 
ENDBRANCH   1   9
TORSDOF 3
ENDMDL
MODEL 3
REMARK VINA RESULT:      -4.1      9.664     11.122
REMARK  Name = 
REMARK  3 active torsions:
REMARK  status: ('A' for Active; 'I' for Inactive)
REMARK    1  A    between atoms: N_4  and  CA_5
REMARK    2  A    between atoms: CA_5  and  CB_6
REMARK    3  A    between atoms: CA_5  and  C_8
REMARK                            x       y       z     vdW  Elec       q    Type
REMARK                         _______ _______ _______ _____ _____    ______ ____
ROOT
ATOM      1  CA  CYS A   1      -0.214   5.459  -3.633  0.00  0.00    +0.209 C 
ENDROOT
BRANCH   1   4
ATOM      2  C   UNK A   0      -3.692   6.515  -2.697  0.00  0.00    +0.096 C 
ATOM      3  C   UNK A   0      -2.675   5.837  -2.950  0.00  0.00    +0.242 C 
ATOM      4  N   CYS A   1      -1.364   6.261  -2.912  0.00  0.00    -0.195 NA
ATOM      5  O   UNK A   0      -2.753   4.616  -2.599  0.00  0.00    -0.273 OA
ENDBRANCH   1   4
BRANCH   1   6
ATOM      6  C   CYS A   1       0.870   5.536  -2.432  0.00  0.00    +0.385 C 
ATOM      7  OXT CYS A   1       0.449   4.505  -1.563  0.00  0.00    -0.244 OA
ATOM      8  O   CYS A   1       2.056   5.367  -2.708  0.00  0.00    -0.244 OA
ENDBRANCH   1   6
BRANCH   1   9
ATOM      9  CB  CYS A   1       0.271   6.776  -4.481  0.00  0.00    +0.102 C 
ATOM     10  SG  CYS A   1       0.831   6.616  -6.039  0.00  0.00    -0.080 S 
ENDBRANCH   1   9
TORSDOF 3
ENDMDL
MODEL 4
REMARK VINA RESULT:      -4.1      9.203     10.296
REMARK  Name = 
REMARK  3 active torsions:
REMARK  status: ('A' for Active; 'I' for Inactive)
REMARK    1  A    between atoms: N_4  and  CA_5
REMARK    2  A    between atoms: CA_5  and  CB_6
REMARK    3  A    between atoms: CA_5  and  C_8
REMARK                            x       y       z     vdW  Elec       q    Type
REMARK                         _______ _______ _______ _____ _____    ______ ____
ROOT
ATOM      1  CA  CYS A   1      -1.327   6.380  -3.569  0.00  0.00    +0.209 C 
ENDROOT
BRANCH   1   4
ATOM      2  C   UNK A   0       1.849   5.060  -5.070  0.00  0.00    +0.096 C 
ATOM      3  C   UNK A   0       1.024   5.724  -4.409  0.00  0.00    +0.242 C 
ATOM      4  N   CYS A   1      -0.244   5.334  -4.033  0.00  0.00    -0.195 NA
ATOM      5  O   UNK A   0       1.539   6.468  -3.514  0.00  0.00    -0.273 OA
ENDBRANCH   1   4
BRANCH   1   6
ATOM      6  C   CYS A   1      -1.750   5.636  -2.193  0.00  0.00    +0.385 C 
ATOM      7  OXT CYS A   1      -2.714   4.700  -2.627  0.00  0.00    -0.244 OA
ATOM      8  O   CYS A   1      -0.877   5.047  -1.558  0.00  0.00    -0.244 OA
ENDBRANCH   1   6
BRANCH   1   9
ATOM      9  CB  CYS A   1      -2.472   5.740  -4.552  0.00  0.00    +0.102 C 
ATOM     10  SG  CYS A   1      -2.249   5.711  -6.200  0.00  0.00    -0.080 S 
ENDBRANCH   1   9
TORSDOF 3
ENDMDL
MODEL 5
REMARK VINA RESULT:      -4.1      5.876      7.171
REMARK  Name = 
REMARK  3 active torsions:
REMARK  status: ('A' for Active; 'I' for Inactive)
REMARK    1  A    between atoms: N_4  and  CA_5
REMARK    2  A    between atoms: CA_5  and  CB_6
REMARK    3  A    between atoms: CA_5  and  C_8
REMARK                            x       y       z     vdW  Elec       q    Type
REMARK                         _______ _______ _______ _____ _____    ______ ____
ROOT
ATOM      1  CA  CYS A   1       1.959   5.993  -7.998  0.00  0.00    +0.209 C 
ENDROOT
BRANCH   1   4
ATOM      2  C   UNK A   0      -1.388   5.406  -6.405  0.00  0.00    +0.096 C 
ATOM      3  C   UNK A   0      -0.192   5.305  -6.746  0.00  0.00    +0.242 C 
ATOM      4  N   CYS A   1       0.622   6.310  -7.227  0.00  0.00    -0.195 NA
ATOM      5  O   UNK A   0       0.488   4.482  -6.054  0.00  0.00    -0.273 OA
ENDBRANCH   1   4
BRANCH   1   6
ATOM      6  C   CYS A   1       2.821   7.243  -7.432  0.00  0.00    +0.385 C 
ATOM      7  OXT CYS A   1       2.097   8.361  -7.903  0.00  0.00    -0.244 OA
ATOM      8  O   CYS A   1       2.967   7.344  -6.216  0.00  0.00    -0.244 OA
ENDBRANCH   1   6
BRANCH   1   9
ATOM      9  CB  CYS A   1       1.410   6.684  -9.380  0.00  0.00    +0.102 C 
ATOM     10  SG  CYS A   1       0.334   5.876 -10.357  0.00  0.00    -0.080 S 
ENDBRANCH   1   9
TORSDOF 3
ENDMDL
MODEL 6
REMARK VINA RESULT:      -4.0      5.318      6.176
REMARK  Name = 
REMARK  3 active torsions:
REMARK  status: ('A' for Active; 'I' for Inactive)
REMARK    1  A    between atoms: N_4  and  CA_5
REMARK    2  A    between atoms: CA_5  and  CB_6
REMARK    3  A    between atoms: CA_5  and  C_8
REMARK                            x       y       z     vdW  Elec       q    Type
REMARK                         _______ _______ _______ _____ _____    ______ ____
ROOT
ATOM      1  CA  CYS A   1       2.320   6.314  -6.827  0.00  0.00    +0.209 C 
ENDROOT
BRANCH   1   4
ATOM      2  C   UNK A   0       4.706   7.659  -4.261  0.00  0.00    +0.096 C 
ATOM      3  C   UNK A   0       4.143   6.935  -5.107  0.00  0.00    +0.242 C 
ATOM      4  N   CYS A   1       3.269   7.338  -6.094  0.00  0.00    -0.195 NA
ATOM      5  O   UNK A   0       4.845   5.954  -5.515  0.00  0.00    -0.273 OA
ENDBRANCH   1   4
BRANCH   1   6
ATOM      6  C   CYS A   1       2.268   7.075  -8.257  0.00  0.00    +0.385 C 
ATOM      7  OXT CYS A   1       2.105   8.428  -7.887  0.00  0.00    -0.244 OA
ATOM      8  O   CYS A   1       3.241   6.978  -9.003  0.00  0.00    -0.244 OA
ENDBRANCH   1   6
BRANCH   1   9
ATOM      9  CB  CYS A   1       0.975   6.970  -6.156  0.00  0.00    +0.102 C 
ATOM     10  SG  CYS A   1       0.383   6.389  -4.714  0.00  0.00    -0.080 S 
ENDBRANCH   1   9
TORSDOF 3
ENDMDL
MODEL 7
REMARK VINA RESULT:      -4.0      9.361     10.437
REMARK  Name = 
REMARK  3 active torsions:
REMARK  status: ('A' for Active; 'I' for Inactive)
REMARK    1  A    between atoms: N_4  and  CA_5
REMARK    2  A    between atoms: CA_5  and  CB_6
REMARK    3  A    between atoms: CA_5  and  C_8
REMARK                            x       y       z     vdW  Elec       q    Type
REMARK                         _______ _______ _______ _____ _____    ______ ____
ROOT
ATOM      1  CA  CYS A   1      -1.572   6.444  -3.664  0.00  0.00    +0.209 C 
ENDROOT
BRANCH   1   4
ATOM      2  C   UNK A   0       1.640   4.955  -4.909  0.00  0.00    +0.096 C 
ATOM      3  C   UNK A   0       0.766   5.486  -4.193  0.00  0.00    +0.242 C 
ATOM      4  N   CYS A   1      -0.600   5.422  -4.367  0.00  0.00    -0.195 NA
ATOM      5  O   UNK A   0       1.050   5.525  -2.953  0.00  0.00    -0.273 OA
ENDBRANCH   1   4
BRANCH   1   6
ATOM      6  C   CYS A   1      -2.681   5.366  -3.177  0.00  0.00    +0.385 C 
ATOM      7  OXT CYS A   1      -2.145   4.895  -1.958  0.00  0.00    -0.244 OA
ATOM      8  O   CYS A   1      -3.829   5.761  -2.984  0.00  0.00    -0.244 OA
ENDBRANCH   1   6
BRANCH   1   9
ATOM      9  CB  CYS A   1      -2.264   6.876  -5.087  0.00  0.00    +0.102 C 
ATOM     10  SG  CYS A   1      -2.368   5.786  -6.339  0.00  0.00    -0.080 S 
ENDBRANCH   1   9
TORSDOF 3
ENDMDL
MODEL 8
REMARK VINA RESULT:      -4.0      1.790      3.668
REMARK  Name = 
REMARK  3 active torsions:
REMARK  status: ('A' for Active; 'I' for Inactive)
REMARK    1  A    between atoms: N_4  and  CA_5
REMARK    2  A    between atoms: CA_5  and  CB_6
REMARK    3  A    between atoms: CA_5  and  C_8
REMARK                            x       y       z     vdW  Elec       q    Type
REMARK                         _______ _______ _______ _____ _____    ______ ____
ROOT
ATOM      1  CA  CYS A   1       6.150   6.414 -11.967  0.00  0.00    +0.209 C 
ENDROOT
BRANCH   1   4
ATOM      2  C   UNK A   0       3.297   5.266  -9.816  0.00  0.00    +0.096 C 
ATOM      3  C   UNK A   0       3.982   5.833 -10.692  0.00  0.00    +0.242 C 
ATOM      4  N   CYS A   1       5.206   5.427 -11.181  0.00  0.00    -0.195 NA
ATOM      5  O   UNK A   0       3.304   6.394 -11.612  0.00  0.00    -0.273 OA
ENDBRANCH   1   4
BRANCH   1   6
ATOM      6  C   CYS A   1       6.356   5.492 -13.284  0.00  0.00    +0.385 C 
ATOM      7  OXT CYS A   1       7.494   4.724 -12.954  0.00  0.00    -0.244 OA
ATOM      8  O   CYS A   1       5.444   4.736 -13.611  0.00  0.00    -0.244 OA
ENDBRANCH   1   6
BRANCH   1   9
ATOM      9  CB  CYS A   1       7.473   5.932 -11.126  0.00  0.00    +0.102 C 
ATOM     10  SG  CYS A   1       7.411   5.781  -9.471  0.00  0.00    -0.080 S 
ENDBRANCH   1   9
TORSDOF 3
ENDMDL
MODEL 9
REMARK VINA RESULT:      -3.9      4.752      5.760
REMARK  Name = 
REMARK  3 active torsions:
REMARK  status: ('A' for Active; 'I' for Inactive)
REMARK    1  A    between atoms: N_4  and  CA_5
REMARK    2  A    between atoms: CA_5  and  CB_6
REMARK    3  A    between atoms: CA_5  and  C_8
REMARK                            x       y       z     vdW  Elec       q    Type
REMARK                         _______ _______ _______ _____ _____    ______ ____
ROOT
ATOM      1  CA  CYS A   1       2.183   6.132  -8.299  0.00  0.00    +0.209 C 
ENDROOT
BRANCH   1   4
ATOM      2  C   UNK A   0       0.054   7.018 -11.260  0.00  0.00    +0.096 C 
ATOM      3  C   UNK A   0       0.542   6.437 -10.269  0.00  0.00    +0.242 C 
ATOM      4  N   CYS A   1       1.289   7.006  -9.259  0.00  0.00    -0.195 NA
ATOM      5  O   UNK A   0      -0.168   5.487  -9.810  0.00  0.00    -0.273 OA
ENDBRANCH   1   4
BRANCH   1   6
ATOM      6  C   CYS A   1       2.880   7.358  -7.500  0.00  0.00    +0.385 C 
ATOM      7  OXT CYS A   1       2.105   8.470  -7.895  0.00  0.00    -0.244 OA
ATOM      8  O   CYS A   1       2.912   7.307  -6.272  0.00  0.00    -0.244 OA
ENDBRANCH   1   6
BRANCH   1   9
ATOM      9  CB  CYS A   1       3.330   5.912  -9.451  0.00  0.00    +0.102 C 
ATOM     10  SG  CYS A   1       4.858   5.406  -9.033  0.00  0.00    -0.080 S 
ENDBRANCH   1   9
TORSDOF 3
ENDMDL
