MODEL 1
REMARK VINA RESULT:      -5.9      0.000      0.000
REMARK  Name = 
REMARK  6 active torsions:
REMARK  status: ('A' for Active; 'I' for Inactive)
REMARK    1  A    between atoms: O_2  and  C_3
REMARK    2  A    between atoms: C_6  and  O_7
REMARK    3  A    between atoms: C_9  and  C_10
REMARK    4  A    between atoms: C_10  and  C_12
REMARK    5  A    between atoms: C_12  and  N_13
REMARK    6  A    between atoms: C_14  and  C_16
REMARK                            x       y       z     vdW  Elec       q    Type
REMARK                         _______ _______ _______ _____ _____    ______ ____
ROOT
ATOM      1  C   UNL     1       0.799   6.029  -9.084  0.00  0.00    +0.139 A 
ATOM      2  C   UNL     1       0.490   5.636  -7.797  0.00  0.00    +0.038 A 
ATOM      3  C   UNL     1       1.315   6.021  -6.742  0.00  0.00    +0.046 A 
ATOM      4  C   UNL     1       2.165   7.090  -6.990  0.00  0.00    +0.137 A 
ATOM      5  C   UNL     1       2.416   7.596  -8.243  0.00  0.00    +0.040 A 
ATOM      6  C   UNL     1       1.864   6.886  -9.300  0.00  0.00    +0.040 A 
ENDROOT
BRANCH   3   7
ATOM      7  C   UNL     1       0.322   6.325  -5.451  0.00  0.00    +0.199 C 
ATOM      8  O   UNL     1       0.599   4.944  -4.799  0.00  0.00    -0.216 OA
BRANCH   7   9
ATOM      9  C   UNL     1      -0.998   5.690  -6.285  0.00  0.00    +0.153 C 
BRANCH   9  10
ATOM     10  N   UNL     1      -1.921   5.418  -5.218  0.00  0.00    -0.201 NA
ATOM     11  C   UNL     1      -2.423   6.527  -4.475  0.00  0.00    +0.261 C 
ATOM     12  O   UNL     1      -2.821   7.515  -5.155  0.00  0.00    -0.272 OA
BRANCH  11  13
ATOM     13  C   UNL     1      -2.721   6.403  -3.017  0.00  0.00    +0.196 C 
ATOM     14  N   UNL     1      -2.715   5.000  -2.660  0.00  0.00    -0.121 NA
ENDBRANCH  11  13
ENDBRANCH   9  10
ENDBRANCH   7   9
ENDBRANCH   3   7
BRANCH   4  15
ATOM     15  O   UNL     1       3.007   7.315  -5.893  0.00  0.00    -0.472 OA
ATOM     16  C   UNL     1       4.067   6.365  -5.766  0.00  0.00    +0.252 C 
ENDBRANCH   4  15
BRANCH   1  18
ATOM     17  C   UNL     1       0.293   4.573 -10.548  0.00  0.00    +0.252 C 
ATOM     18  O   UNL     1       0.365   5.295 -10.192  0.00  0.00    -0.471 OA
ENDBRANCH   1  18
TORSDOF 6
ENDMDL
MODEL 2
REMARK VINA RESULT:      -5.8      3.272      5.173
REMARK  Name = 
REMARK  6 active torsions:
REMARK  status: ('A' for Active; 'I' for Inactive)
REMARK    1  A    between atoms: O_2  and  C_3
REMARK    2  A    between atoms: C_6  and  O_7
REMARK    3  A    between atoms: C_9  and  C_10
REMARK    4  A    between atoms: C_10  and  C_12
REMARK    5  A    between atoms: C_12  and  N_13
REMARK    6  A    between atoms: C_14  and  C_16
REMARK                            x       y       z     vdW  Elec       q    Type
REMARK                         _______ _______ _______ _____ _____    ______ ____
ROOT
ATOM      1  C   UNL     1      -1.652   5.679  -4.969  0.00  0.00    +0.139 A 
ATOM      2  C   UNL     1      -0.359   5.561  -4.499  0.00  0.00    +0.038 A 
ATOM      3  C   UNL     1       0.646   5.110  -5.352  0.00  0.00    +0.046 A 
ATOM      4  C   UNL     1       0.372   5.183  -6.711  0.00  0.00    +0.137 A 
ATOM      5  C   UNL     1      -0.879   5.416  -7.230  0.00  0.00    +0.040 A 
ATOM      6  C   UNL     1      -1.916   5.449  -6.308  0.00  0.00    +0.040 A 
ENDROOT
BRANCH   3   7
ATOM      7  C   UNL     1       2.014   5.962  -4.965  0.00  0.00    +0.199 C 
ATOM      8  O   UNL     1       2.887   4.683  -4.857  0.00  0.00    -0.216 OA
BRANCH   7   9
ATOM      9  C   UNL     1       1.637   5.869  -3.325  0.00  0.00    +0.153 C 
BRANCH   9  10
ATOM     10  N   UNL     1       2.878   5.418  -2.760  0.00  0.00    -0.201 NA
ATOM     11  C   UNL     1       2.995   5.405  -1.339  0.00  0.00    +0.261 C 
ATOM     12  O   UNL     1       2.021   4.907  -0.707  0.00  0.00    -0.272 OA
BRANCH  11  13
ATOM     13  C   UNL     1       4.300   5.696  -0.673  0.00  0.00    +0.196 C 
ATOM     14  N   UNL     1       4.052   6.499   0.505  0.00  0.00    -0.121 NA
ENDBRANCH  11  13
ENDBRANCH   9  10
ENDBRANCH   7   9
ENDBRANCH   3   7
BRANCH   4  15
ATOM     15  O   UNL     1       1.413   4.611  -7.455  0.00  0.00    -0.472 OA
ATOM     16  C   UNL     1       1.656   5.253  -8.708  0.00  0.00    +0.252 C 
ENDBRANCH   4  15
BRANCH   1  18
ATOM     17  C   UNL     1      -3.045   5.363  -3.395  0.00  0.00    +0.252 C 
ATOM     18  O   UNL     1      -2.749   5.611  -4.104  0.00  0.00    -0.471 OA
ENDBRANCH   1  18
TORSDOF 6
ENDMDL
MODEL 3
REMARK VINA RESULT:      -5.8      4.910      7.892
REMARK  Name = 
REMARK  6 active torsions:
REMARK  status: ('A' for Active; 'I' for Inactive)
REMARK    1  A    between atoms: O_2  and  C_3
REMARK    2  A    between atoms: C_6  and  O_7
REMARK    3  A    between atoms: C_9  and  C_10
REMARK    4  A    between atoms: C_10  and  C_12
REMARK    5  A    between atoms: C_12  and  N_13
REMARK    6  A    between atoms: C_14  and  C_16
REMARK                            x       y       z     vdW  Elec       q    Type
REMARK                         _______ _______ _______ _____ _____    ______ ____
ROOT
ATOM      1  C   UNL     1       3.896   6.238  -6.405  0.00  0.00    +0.139 A 
ATOM      2  C   UNL     1       4.355   5.804  -7.632  0.00  0.00    +0.038 A 
ATOM      3  C   UNL     1       3.565   5.980  -8.766  0.00  0.00    +0.046 A 
ATOM      4  C   UNL     1       2.551   6.922  -8.663  0.00  0.00    +0.137 A 
ATOM      5  C   UNL     1       2.135   7.475  -7.476  0.00  0.00    +0.040 A 
ATOM      6  C   UNL     1       2.703   6.937  -6.329  0.00  0.00    +0.040 A 
ENDROOT
BRANCH   3   7
ATOM      7  C   UNL     1       4.597   6.335 -10.012  0.00  0.00    +0.199 C 
ATOM      8  O   UNL     1       4.330   4.988 -10.736  0.00  0.00    -0.216 OA
BRANCH   7   9
ATOM      9  C   UNL     1       5.888   5.653  -9.171  0.00  0.00    +0.153 C 
BRANCH   9  10
ATOM     10  N   UNL     1       6.795   5.323 -10.235  0.00  0.00    -0.201 NA
ATOM     11  C   UNL     1       7.400   6.399 -10.950  0.00  0.00    +0.261 C 
ATOM     12  O   UNL     1       7.874   7.335 -10.246  0.00  0.00    -0.272 OA
BRANCH  11  13
ATOM     13  C   UNL     1       7.701   6.279 -12.407  0.00  0.00    +0.196 C 
ATOM     14  N   UNL     1       7.645   4.881 -12.779  0.00  0.00    -0.121 NA
ENDBRANCH  11  13
ENDBRANCH   9  10
ENDBRANCH   7   9
ENDBRANCH   3   7
BRANCH   4  15
ATOM     15  O   UNL     1       1.770   6.935  -9.826  0.00  0.00    -0.472 OA
ATOM     16  C   UNL     1       0.849   5.848  -9.923  0.00  0.00    +0.252 C 
ENDBRANCH   4  15
BRANCH   1  18
ATOM     17  C   UNL     1       4.435   4.994  -4.768  0.00  0.00    +0.252 C 
ATOM     18  O   UNL     1       4.348   5.662  -5.213  0.00  0.00    -0.471 OA
ENDBRANCH   1  18
TORSDOF 6
ENDMDL
MODEL 4
REMARK VINA RESULT:      -5.7      5.073      7.655
REMARK  Name = 
REMARK  6 active torsions:
REMARK  status: ('A' for Active; 'I' for Inactive)
REMARK    1  A    between atoms: O_2  and  C_3
REMARK    2  A    between atoms: C_6  and  O_7
REMARK    3  A    between atoms: C_9  and  C_10
REMARK    4  A    between atoms: C_10  and  C_12
REMARK    5  A    between atoms: C_12  and  N_13
REMARK    6  A    between atoms: C_14  and  C_16
REMARK                            x       y       z     vdW  Elec       q    Type
REMARK                         _______ _______ _______ _____ _____    ______ ____
ROOT
ATOM      1  C   UNL     1       1.432   5.865 -12.338  0.00  0.00    +0.139 A 
ATOM      2  C   UNL     1       2.545   6.054 -11.545  0.00  0.00    +0.038 A 
ATOM      3  C   UNL     1       2.497   5.714 -10.195  0.00  0.00    +0.046 A 
ATOM      4  C   UNL     1       1.477   4.850  -9.819  0.00  0.00    +0.137 A 
ATOM      5  C   UNL     1       0.405   4.535 -10.618  0.00  0.00    +0.040 A 
ATOM      6  C   UNL     1       0.313   5.242 -11.809  0.00  0.00    +0.040 A 
ENDROOT
BRANCH   3   7
ATOM      7  C   UNL     1       3.985   5.099  -9.807  0.00  0.00    +0.199 C 
ATOM      8  O   UNL     1       4.197   6.105  -8.644  0.00  0.00    -0.216 OA
BRANCH   7   9
ATOM      9  C   UNL     1       4.731   6.156 -10.887  0.00  0.00    +0.153 C 
BRANCH   9  10
ATOM     10  N   UNL     1       6.114   5.791 -10.753  0.00  0.00    -0.201 NA
ATOM     11  C   UNL     1       7.077   6.564 -11.466  0.00  0.00    +0.261 C 
ATOM     12  O   UNL     1       6.948   7.818 -11.389  0.00  0.00    -0.272 OA
BRANCH  11  13
ATOM     13  C   UNL     1       8.312   5.932 -12.019  0.00  0.00    +0.196 C 
ATOM     14  N   UNL     1       7.930   4.781 -12.809  0.00  0.00    -0.121 NA
ENDBRANCH  11  13
ENDBRANCH   9  10
ENDBRANCH   7   9
ENDBRANCH   3   7
BRANCH   4  15
ATOM     15  O   UNL     1       1.475   4.665  -8.430  0.00  0.00    -0.472 OA
ATOM     16  C   UNL     1       0.746   5.660  -7.710  0.00  0.00    +0.252 C 
ENDBRANCH   4  15
BRANCH   1  18
ATOM     17  C   UNL     1       0.791   6.740 -14.166  0.00  0.00    +0.252 C 
ATOM     18  O   UNL     1       1.225   6.623 -13.495  0.00  0.00    -0.471 OA
ENDBRANCH   1  18
TORSDOF 6
ENDMDL
MODEL 5
REMARK VINA RESULT:      -5.7      1.994      3.866
REMARK  Name = 
REMARK  6 active torsions:
REMARK  status: ('A' for Active; 'I' for Inactive)
REMARK    1  A    between atoms: O_2  and  C_3
REMARK    2  A    between atoms: C_6  and  O_7
REMARK    3  A    between atoms: C_9  and  C_10
REMARK    4  A    between atoms: C_10  and  C_12
REMARK    5  A    between atoms: C_12  and  N_13
REMARK    6  A    between atoms: C_14  and  C_16
REMARK                            x       y       z     vdW  Elec       q    Type
REMARK                         _______ _______ _______ _____ _____    ______ ____
ROOT
ATOM      1  C   UNL     1       3.594   6.918  -4.507  0.00  0.00    +0.139 A 
ATOM      2  C   UNL     1       2.268   6.726  -4.838  0.00  0.00    +0.038 A 
ATOM      3  C   UNL     1       1.936   6.230  -6.097  0.00  0.00    +0.046 A 
ATOM      4  C   UNL     1       2.956   5.593  -6.790  0.00  0.00    +0.137 A 
ATOM      5  C   UNL     1       4.282   5.655  -6.433  0.00  0.00    +0.040 A 
ATOM      6  C   UNL     1       4.584   6.517  -5.388  0.00  0.00    +0.040 A 
ENDROOT
BRANCH   3   7
ATOM      7  C   UNL     1       0.633   5.229  -5.883  0.00  0.00    +0.199 C 
ATOM      8  O   UNL     1      -0.200   5.931  -6.989  0.00  0.00    -0.216 OA
BRANCH   7   9
ATOM      9  C   UNL     1      -0.003   6.265  -4.716  0.00  0.00    +0.153 C 
BRANCH   9  10
ATOM     10  N   UNL     1      -1.176   5.552  -4.294  0.00  0.00    -0.201 NA
ATOM     11  C   UNL     1      -2.369   6.304  -4.077  0.00  0.00    +0.261 C 
ATOM     12  O   UNL     1      -2.665   7.142  -4.975  0.00  0.00    -0.272 OA
BRANCH  11  13
ATOM     13  C   UNL     1      -3.337   5.917  -3.009  0.00  0.00    +0.196 C 
ATOM     14  N   UNL     1      -2.710   4.939  -2.146  0.00  0.00    -0.121 NA
ENDBRANCH  11  13
ENDBRANCH   9  10
ENDBRANCH   7   9
ENDBRANCH   3   7
BRANCH   4  15
ATOM     15  O   UNL     1       2.528   5.229  -8.074  0.00  0.00    -0.472 OA
ATOM     16  C   UNL     1       2.821   3.876  -8.426  0.00  0.00    +0.252 C 
ENDBRANCH   4  15
BRANCH   1  18
ATOM     17  C   UNL     1       4.055   8.027  -2.753  0.00  0.00    +0.252 C 
ATOM     18  O   UNL     1       3.974   7.851  -3.537  0.00  0.00    -0.471 OA
ENDBRANCH   1  18
TORSDOF 6
ENDMDL
MODEL 6
REMARK VINA RESULT:      -5.6      4.863      7.850
REMARK  Name = 
REMARK  6 active torsions:
REMARK  status: ('A' for Active; 'I' for Inactive)
REMARK    1  A    between atoms: O_2  and  C_3
REMARK    2  A    between atoms: C_6  and  O_7
REMARK    3  A    between atoms: C_9  and  C_10
REMARK    4  A    between atoms: C_10  and  C_12
REMARK    5  A    between atoms: C_12  and  N_13
REMARK    6  A    between atoms: C_14  and  C_16
REMARK                            x       y       z     vdW  Elec       q    Type
REMARK                         _______ _______ _______ _____ _____    ______ ____
ROOT
ATOM      1  C   UNL     1       1.636   5.228  -8.285  0.00  0.00    +0.139 A 
ATOM      2  C   UNL     1       2.707   5.307  -9.152  0.00  0.00    +0.038 A 
ATOM      3  C   UNL     1       2.480   5.513 -10.511  0.00  0.00    +0.046 A 
ATOM      4  C   UNL     1       1.231   6.014 -10.853  0.00  0.00    +0.137 A 
ATOM      5  C   UNL     1       0.163   6.066  -9.990  0.00  0.00    +0.040 A 
ATOM      6  C   UNL     1       0.355   5.457  -8.757  0.00  0.00    +0.040 A 
ENDROOT
BRANCH   3   7
ATOM      7  C   UNL     1       3.696   6.500 -11.051  0.00  0.00    +0.199 C 
ATOM      8  O   UNL     1       4.144   5.498 -12.148  0.00  0.00    -0.216 OA
BRANCH   7   9
ATOM      9  C   UNL     1       4.775   5.813  -9.952  0.00  0.00    +0.153 C 
BRANCH   9  10
ATOM     10  N   UNL     1       5.799   5.303 -10.821  0.00  0.00    -0.201 NA
ATOM     11  C   UNL     1       7.135   5.752 -10.608  0.00  0.00    +0.261 C 
ATOM     12  O   UNL     1       7.537   5.748  -9.410  0.00  0.00    -0.272 OA
BRANCH  11  13
ATOM     13  C   UNL     1       8.075   5.935 -11.754  0.00  0.00    +0.196 C 
ATOM     14  N   UNL     1       7.903   4.834 -12.677  0.00  0.00    -0.121 NA
ENDBRANCH  11  13
ENDBRANCH   9  10
ENDBRANCH   7   9
ENDBRANCH   3   7
BRANCH   4  15
ATOM     15  O   UNL     1       1.092   6.081 -12.245  0.00  0.00    -0.472 OA
ATOM     16  C   UNL     1       0.707   4.848 -12.854  0.00  0.00    +0.252 C 
ENDBRANCH   4  15
BRANCH   1  18
ATOM     17  C   UNL     1       2.156   4.033  -6.605  0.00  0.00    +0.252 C 
ATOM     18  O   UNL     1       1.730   4.535  -7.073  0.00  0.00    -0.471 OA
ENDBRANCH   1  18
TORSDOF 6
ENDMDL
MODEL 7
REMARK VINA RESULT:      -5.6      3.209      5.880
REMARK  Name = 
REMARK  6 active torsions:
REMARK  status: ('A' for Active; 'I' for Inactive)
REMARK    1  A    between atoms: O_2  and  C_3
REMARK    2  A    between atoms: C_6  and  O_7
REMARK    3  A    between atoms: C_9  and  C_10
REMARK    4  A    between atoms: C_10  and  C_12
REMARK    5  A    between atoms: C_12  and  N_13
REMARK    6  A    between atoms: C_14  and  C_16
REMARK                            x       y       z     vdW  Elec       q    Type
REMARK                         _______ _______ _______ _____ _____    ______ ____
ROOT
ATOM      1  C   UNL     1       0.133   6.471  -5.447  0.00  0.00    +0.139 A 
ATOM      2  C   UNL     1       1.073   7.193  -6.154  0.00  0.00    +0.038 A 
ATOM      3  C   UNL     1       2.403   6.778  -6.156  0.00  0.00    +0.046 A 
ATOM      4  C   UNL     1       2.633   5.462  -5.779  0.00  0.00    +0.137 A 
ATOM      5  C   UNL     1       1.692   4.661  -5.178  0.00  0.00    +0.040 A 
ATOM      6  C   UNL     1       0.501   5.285  -4.834  0.00  0.00    +0.040 A 
ENDROOT
BRANCH   3   7
ATOM      7  C   UNL     1       2.993   7.085  -7.674  0.00  0.00    +0.199 C 
ATOM      8  O   UNL     1       2.069   8.314  -7.882  0.00  0.00    -0.216 OA
BRANCH   7   9
ATOM      9  C   UNL     1       1.833   6.070  -8.356  0.00  0.00    +0.153 C 
BRANCH   9  10
ATOM     10  N   UNL     1       2.386   5.820  -9.659  0.00  0.00    -0.201 NA
ATOM     11  C   UNL     1       3.612   5.095  -9.732  0.00  0.00    +0.261 C 
ATOM     12  O   UNL     1       3.682   4.053  -9.020  0.00  0.00    -0.272 OA
BRANCH  11  13
ATOM     13  C   UNL     1       4.618   5.394 -10.793  0.00  0.00    +0.196 C 
ATOM     14  N   UNL     1       4.758   6.830 -10.909  0.00  0.00    -0.121 NA
ENDBRANCH  11  13
ENDBRANCH   9  10
ENDBRANCH   7   9
ENDBRANCH   3   7
BRANCH   4  15
ATOM     15  O   UNL     1       4.008   5.197  -5.726  0.00  0.00    -0.472 OA
ATOM     16  C   UNL     1       4.482   4.835  -4.429  0.00  0.00    +0.252 C 
ENDBRANCH   4  15
BRANCH   1  18
ATOM     17  C   UNL     1      -1.406   7.737  -4.708  0.00  0.00    +0.252 C 
ATOM     18  O   UNL     1      -1.040   7.069  -4.977  0.00  0.00    -0.471 OA
ENDBRANCH   1  18
TORSDOF 6
ENDMDL
MODEL 8
REMARK VINA RESULT:      -5.5      5.024      7.579
REMARK  Name = 
REMARK  6 active torsions:
REMARK  status: ('A' for Active; 'I' for Inactive)
REMARK    1  A    between atoms: O_2  and  C_3
REMARK    2  A    between atoms: C_6  and  O_7
REMARK    3  A    between atoms: C_9  and  C_10
REMARK    4  A    between atoms: C_10  and  C_12
REMARK    5  A    between atoms: C_12  and  N_13
REMARK    6  A    between atoms: C_14  and  C_16
REMARK                            x       y       z     vdW  Elec       q    Type
REMARK                         _______ _______ _______ _____ _____    ______ ____
ROOT
ATOM      1  C   UNL     1       0.893   6.362 -10.303  0.00  0.00    +0.139 A 
ATOM      2  C   UNL     1       2.248   6.338 -10.560  0.00  0.00    +0.038 A 
ATOM      3  C   UNL     1       3.134   5.953  -9.556  0.00  0.00    +0.046 A 
ATOM      4  C   UNL     1       2.584   5.246  -8.496  0.00  0.00    +0.137 A 
ATOM      5  C   UNL     1       1.234   5.140  -8.262  0.00  0.00    +0.040 A 
ATOM      6  C   UNL     1       0.419   5.903  -9.086  0.00  0.00    +0.040 A 
ENDROOT
BRANCH   3   7
ATOM      7  C   UNL     1       4.342   5.092 -10.295  0.00  0.00    +0.199 C 
ATOM      8  O   UNL     1       5.432   6.134  -9.924  0.00  0.00    -0.216 OA
BRANCH   7   9
ATOM      9  C   UNL     1       4.050   5.885 -11.753  0.00  0.00    +0.153 C 
BRANCH   9  10
ATOM     10  N   UNL     1       5.378   6.237 -12.172  0.00  0.00    -0.201 NA
ATOM     11  C   UNL     1       5.773   5.882 -13.495  0.00  0.00    +0.261 C 
ATOM     12  O   UNL     1       4.942   6.144 -14.411  0.00  0.00    -0.272 OA
BRANCH  11  13
ATOM     13  C   UNL     1       7.183   5.495 -13.798  0.00  0.00    +0.196 C 
ATOM     14  N   UNL     1       7.697   4.713 -12.694  0.00  0.00    -0.121 NA
ENDBRANCH  11  13
ENDBRANCH   9  10
ENDBRANCH   7   9
ENDBRANCH   3   7
BRANCH   4  15
ATOM     15  O   UNL     1       3.551   5.004  -7.511  0.00  0.00    -0.472 OA
ATOM     16  C   UNL     1       3.802   6.118  -6.653  0.00  0.00    +0.252 C 
ENDBRANCH   4  15
BRANCH   1  18
ATOM     17  C   UNL     1      -0.662   7.267 -11.436  0.00  0.00    +0.252 C 
ATOM     18  O   UNL     1       0.030   7.193 -11.026  0.00  0.00    -0.471 OA
ENDBRANCH   1  18
TORSDOF 6
ENDMDL
MODEL 9
REMARK VINA RESULT:      -5.4      3.268      4.787
REMARK  Name = 
REMARK  6 active torsions:
REMARK  status: ('A' for Active; 'I' for Inactive)
REMARK    1  A    between atoms: O_2  and  C_3
REMARK    2  A    between atoms: C_6  and  O_7
REMARK    3  A    between atoms: C_9  and  C_10
REMARK    4  A    between atoms: C_10  and  C_12
REMARK    5  A    between atoms: C_12  and  N_13
REMARK    6  A    between atoms: C_14  and  C_16
REMARK                            x       y       z     vdW  Elec       q    Type
REMARK                         _______ _______ _______ _____ _____    ______ ____
ROOT
ATOM      1  C   UNL     1       4.499   5.385  -8.595  0.00  0.00    +0.139 A 
ATOM      2  C   UNL     1       3.676   6.461  -8.335  0.00  0.00    +0.038 A 
ATOM      3  C   UNL     1       2.300   6.338  -8.517  0.00  0.00    +0.046 A 
ATOM      4  C   UNL     1       1.805   5.042  -8.568  0.00  0.00    +0.137 A 
ATOM      5  C   UNL     1       2.593   3.925  -8.708  0.00  0.00    +0.040 A 
ATOM      6  C   UNL     1       3.941   4.163  -8.933  0.00  0.00    +0.040 A 
ENDROOT
BRANCH   3   7
ATOM      7  C   UNL     1       1.581   7.213  -7.308  0.00  0.00    +0.199 C 
ATOM      8  O   UNL     1       2.162   8.560  -7.815  0.00  0.00    -0.216 OA
BRANCH   7   9
ATOM      9  C   UNL     1       2.921   6.984  -6.312  0.00  0.00    +0.153 C 
BRANCH   9  10
ATOM     10  N   UNL     1       2.305   6.742  -5.037  0.00  0.00    -0.201 NA
ATOM     11  C   UNL     1       3.141   6.757  -3.881  0.00  0.00    +0.261 C 
ATOM     12  O   UNL     1       3.953   7.722  -3.798  0.00  0.00    -0.272 OA
BRANCH  11  13
ATOM     13  C   UNL     1       2.867   5.855  -2.724  0.00  0.00    +0.196 C 
ATOM     14  N   UNL     1       3.939   4.888  -2.625  0.00  0.00    -0.121 NA
ENDBRANCH  11  13
ENDBRANCH   9  10
ENDBRANCH   7   9
ENDBRANCH   3   7
BRANCH   4  15
ATOM     15  O   UNL     1       0.433   5.050  -8.854  0.00  0.00    -0.472 OA
ATOM     16  C   UNL     1       0.124   5.275 -10.230  0.00  0.00    +0.252 C 
ENDBRANCH   4  15
BRANCH   1  18
ATOM     17  C   UNL     1       6.393   5.667  -9.518  0.00  0.00    +0.252 C 
ATOM     18  O   UNL     1       5.844   5.563  -8.935  0.00  0.00    -0.471 OA
ENDBRANCH   1  18
TORSDOF 6
ENDMDL
