MODEL 1
REMARK VINA RESULT:      -5.0      0.000      0.000
REMARK  Name = 
REMARK  1 active torsions:
REMARK  status: ('A' for Active; 'I' for Inactive)
REMARK    1  A    between atoms: N_2  and  C_3
REMARK                            x       y       z     vdW  Elec       q    Type
REMARK                         _______ _______ _______ _____ _____    ______ ____
ROOT
ATOM      1  C   UNL     1       3.407   5.794  -7.255  0.00  0.00    +0.059 C 
ATOM      2  C   UNL     1       2.508   4.717  -7.457  0.00  0.00    +0.014 C 
ATOM      3  C   UNL     1       2.048   3.887  -6.340  0.00  0.00    +0.001 C 
ATOM      4  C   UNL     1       2.881   3.906  -8.695  0.00  0.00    +0.001 C 
ATOM      5  C   UNL     1       1.134   5.409  -7.996  0.00  0.00    +0.001 C 
ATOM      6  C   UNL     1       1.967   6.069  -9.215  0.00  0.00    +0.001 C 
ATOM      7  C   UNL     1       1.214   6.663  -6.965  0.00  0.00    +0.000 C 
ATOM      8  C   UNL     1       1.965   7.701  -7.615  0.00  0.00    +0.001 C 
ATOM      9  C   UNL     1       3.120   6.886  -8.426  0.00  0.00    +0.015 C 
ATOM     10  C   UNL     1       4.805   5.325  -7.672  0.00  0.00    +0.017 C 
ENDROOT
BRANCH   1  12
ATOM     11  C   UNL     1       4.589   6.374  -5.323  0.00  0.00    +0.107 C 
ATOM     12  N   UNL     1       3.594   6.451  -6.038  0.00  0.00    -0.219 NA
ENDBRANCH   1  12
TORSDOF 1
ENDMDL
MODEL 2
REMARK VINA RESULT:      -5.0      1.533      3.325
REMARK  Name = 
REMARK  1 active torsions:
REMARK  status: ('A' for Active; 'I' for Inactive)
REMARK    1  A    between atoms: N_2  and  C_3
REMARK                            x       y       z     vdW  Elec       q    Type
REMARK                         _______ _______ _______ _____ _____    ______ ____
ROOT
ATOM      1  C   UNL     1       1.163   5.743  -7.990  0.00  0.00    +0.059 C 
ATOM      2  C   UNL     1       2.086   4.745  -7.587  0.00  0.00    +0.014 C 
ATOM      3  C   UNL     1       2.597   3.751  -8.536  0.00  0.00    +0.001 C 
ATOM      4  C   UNL     1       1.703   4.146  -6.237  0.00  0.00    +0.001 C 
ATOM      5  C   UNL     1       3.426   5.562  -7.146  0.00  0.00    +0.001 C 
ATOM      6  C   UNL     1       2.543   6.394  -6.077  0.00  0.00    +0.001 C 
ATOM      7  C   UNL     1       3.338   6.619  -8.379  0.00  0.00    +0.000 C 
ATOM      8  C   UNL     1       2.542   7.728  -7.932  0.00  0.00    +0.001 C 
ATOM      9  C   UNL     1       1.389   7.027  -7.018  0.00  0.00    +0.015 C 
ATOM     10  C   UNL     1      -0.232   5.308  -7.529  0.00  0.00    +0.017 C 
ENDROOT
BRANCH   1  12
ATOM     11  C   UNL     1       0.026   5.931 -10.024  0.00  0.00    +0.107 C 
ATOM     12  N   UNL     1       0.990   6.176  -9.306  0.00  0.00    -0.219 NA
ENDBRANCH   1  12
TORSDOF 1
ENDMDL
MODEL 3
REMARK VINA RESULT:      -4.9      1.299      2.471
REMARK  Name = 
REMARK  1 active torsions:
REMARK  status: ('A' for Active; 'I' for Inactive)
REMARK    1  A    between atoms: N_2  and  C_3
REMARK                            x       y       z     vdW  Elec       q    Type
REMARK                         _______ _______ _______ _____ _____    ______ ____
ROOT
ATOM      1  C   UNL     1       1.972   5.161  -6.749  0.00  0.00    +0.059 C 
ATOM      2  C   UNL     1       1.773   5.250  -8.149  0.00  0.00    +0.014 C 
ATOM      3  C   UNL     1       0.454   5.551  -8.714  0.00  0.00    +0.001 C 
ATOM      4  C   UNL     1       2.502   4.130  -8.886  0.00  0.00    +0.001 C 
ATOM      5  C   UNL     1       2.680   6.518  -8.626  0.00  0.00    +0.001 C 
ATOM      6  C   UNL     1       3.983   5.801  -7.990  0.00  0.00    +0.001 C 
ATOM      7  C   UNL     1       2.286   7.440  -7.346  0.00  0.00    +0.000 C 
ATOM      8  C   UNL     1       3.247   7.169  -6.313  0.00  0.00    +0.001 C 
ATOM      9  C   UNL     1       3.519   5.568  -6.456  0.00  0.00    +0.015 C 
ATOM     10  C   UNL     1       2.017   3.676  -6.372  0.00  0.00    +0.017 C 
ENDROOT
BRANCH   1  12
ATOM     11  C   UNL     1       0.498   5.158  -4.933  0.00  0.00    +0.107 C 
ATOM     12  N   UNL     1       1.144   5.751  -5.792  0.00  0.00    -0.219 NA
ENDBRANCH   1  12
TORSDOF 1
ENDMDL
MODEL 4
REMARK VINA RESULT:      -4.9      1.559      3.415
REMARK  Name = 
REMARK  1 active torsions:
REMARK  status: ('A' for Active; 'I' for Inactive)
REMARK    1  A    between atoms: N_2  and  C_3
REMARK                            x       y       z     vdW  Elec       q    Type
REMARK                         _______ _______ _______ _____ _____    ______ ____
ROOT
ATOM      1  C   UNL     1       3.304   6.147  -6.261  0.00  0.00    +0.059 C 
ATOM      2  C   UNL     1       2.153   5.556  -5.682  0.00  0.00    +0.014 C 
ATOM      3  C   UNL     1       1.703   4.217  -6.075  0.00  0.00    +0.001 C 
ATOM      4  C   UNL     1       1.012   6.562  -5.561  0.00  0.00    +0.001 C 
ATOM      5  C   UNL     1       2.519   5.376  -4.103  0.00  0.00    +0.001 C 
ATOM      6  C   UNL     1       2.805   6.965  -4.008  0.00  0.00    +0.001 C 
ATOM      7  C   UNL     1       4.045   4.890  -4.385  0.00  0.00    +0.000 C 
ATOM      8  C   UNL     1       4.867   6.068  -4.418  0.00  0.00    +0.001 C 
ATOM      9  C   UNL     1       3.924   7.171  -5.160  0.00  0.00    +0.015 C 
ATOM     10  C   UNL     1       2.836   7.152  -7.319  0.00  0.00    +0.017 C 
ENDROOT
BRANCH   1  12
ATOM     11  C   UNL     1       4.634   5.474  -8.062  0.00  0.00    +0.107 C 
ATOM     12  N   UNL     1       4.337   5.435  -6.872  0.00  0.00    -0.219 NA
ENDBRANCH   1  12
TORSDOF 1
ENDMDL
MODEL 5
REMARK VINA RESULT:      -4.9      1.021      2.658
REMARK  Name = 
REMARK  1 active torsions:
REMARK  status: ('A' for Active; 'I' for Inactive)
REMARK    1  A    between atoms: N_2  and  C_3
REMARK                            x       y       z     vdW  Elec       q    Type
REMARK                         _______ _______ _______ _____ _____    ______ ____
ROOT
ATOM      1  C   UNL     1       2.707   5.138  -7.379  0.00  0.00    +0.059 C 
ATOM      2  C   UNL     1       1.814   6.132  -7.849  0.00  0.00    +0.014 C 
ATOM      3  C   UNL     1       1.935   7.530  -7.422  0.00  0.00    +0.001 C 
ATOM      4  C   UNL     1       0.373   5.629  -7.855  0.00  0.00    +0.001 C 
ATOM      5  C   UNL     1       2.075   6.211  -9.456  0.00  0.00    +0.001 C 
ATOM      6  C   UNL     1       1.736   4.634  -9.569  0.00  0.00    +0.001 C 
ATOM      7  C   UNL     1       3.690   6.084  -9.325  0.00  0.00    +0.000 C 
ATOM      8  C   UNL     1       4.011   4.684  -9.363  0.00  0.00    +0.001 C 
ATOM      9  C   UNL     1       2.796   3.990  -8.528  0.00  0.00    +0.015 C 
ATOM     10  C   UNL     1       1.995   4.348  -6.275  0.00  0.00    +0.017 C 
ENDROOT
BRANCH   1  12
ATOM     11  C   UNL     1       4.305   5.380  -5.690  0.00  0.00    +0.107 C 
ATOM     12  N   UNL     1       3.983   5.394  -6.874  0.00  0.00    -0.219 NA
ENDBRANCH   1  12
TORSDOF 1
ENDMDL
MODEL 6
REMARK VINA RESULT:      -4.9      1.507      2.767
REMARK  Name = 
REMARK  1 active torsions:
REMARK  status: ('A' for Active; 'I' for Inactive)
REMARK    1  A    between atoms: N_2  and  C_3
REMARK                            x       y       z     vdW  Elec       q    Type
REMARK                         _______ _______ _______ _____ _____    ______ ____
ROOT
ATOM      1  C   UNL     1       2.927   5.959  -5.555  0.00  0.00    +0.059 C 
ATOM      2  C   UNL     1       2.646   5.946  -6.943  0.00  0.00    +0.014 C 
ATOM      3  C   UNL     1       3.294   4.989  -7.845  0.00  0.00    +0.001 C 
ATOM      4  C   UNL     1       2.586   7.361  -7.512  0.00  0.00    +0.001 C 
ATOM      5  C   UNL     1       1.068   5.548  -7.052  0.00  0.00    +0.001 C 
ATOM      6  C   UNL     1       0.704   6.816  -6.117  0.00  0.00    +0.001 C 
ATOM      7  C   UNL     1       1.144   4.422  -5.883  0.00  0.00    +0.000 C 
ATOM      8  C   UNL     1       0.869   5.082  -4.637  0.00  0.00    +0.001 C 
ATOM      9  C   UNL     1       1.603   6.528  -4.801  0.00  0.00    +0.015 C 
ATOM     10  C   UNL     1       3.899   7.112  -5.281  0.00  0.00    +0.017 C 
ENDROOT
BRANCH   1  12
ATOM     11  C   UNL     1       4.551   4.818  -4.319  0.00  0.00    +0.107 C 
ATOM     12  N   UNL     1       3.441   4.875  -4.841  0.00  0.00    -0.219 NA
ENDBRANCH   1  12
TORSDOF 1
ENDMDL
MODEL 7
REMARK VINA RESULT:      -4.9      1.130      2.016
REMARK  Name = 
REMARK  1 active torsions:
REMARK  status: ('A' for Active; 'I' for Inactive)
REMARK    1  A    between atoms: N_2  and  C_3
REMARK                            x       y       z     vdW  Elec       q    Type
REMARK                         _______ _______ _______ _____ _____    ______ ____
ROOT
ATOM      1  C   UNL     1       2.873   6.042  -6.047  0.00  0.00    +0.059 C 
ATOM      2  C   UNL     1       1.470   5.845  -5.989  0.00  0.00    +0.014 C 
ATOM      3  C   UNL     1       0.617   6.686  -5.143  0.00  0.00    +0.001 C 
ATOM      4  C   UNL     1       1.118   4.362  -5.912  0.00  0.00    +0.001 C 
ATOM      5  C   UNL     1       0.935   6.169  -7.495  0.00  0.00    +0.001 C 
ATOM      6  C   UNL     1       1.935   5.037  -8.072  0.00  0.00    +0.001 C 
ATOM      7  C   UNL     1       1.911   7.454  -7.699  0.00  0.00    +0.000 C 
ATOM      8  C   UNL     1       3.140   6.969  -8.263  0.00  0.00    +0.001 C 
ATOM      9  C   UNL     1       3.368   5.541  -7.512  0.00  0.00    +0.015 C 
ATOM     10  C   UNL     1       3.534   4.974  -5.168  0.00  0.00    +0.017 C 
ENDROOT
BRANCH   1  12
ATOM     11  C   UNL     1       4.294   7.396  -4.777  0.00  0.00    +0.107 C 
ATOM     12  N   UNL     1       3.520   7.233  -5.716  0.00  0.00    -0.219 NA
ENDBRANCH   1  12
TORSDOF 1
ENDMDL
MODEL 8
REMARK VINA RESULT:      -4.9      1.729      3.727
REMARK  Name = 
REMARK  1 active torsions:
REMARK  status: ('A' for Active; 'I' for Inactive)
REMARK    1  A    between atoms: N_2  and  C_3
REMARK                            x       y       z     vdW  Elec       q    Type
REMARK                         _______ _______ _______ _____ _____    ______ ____
ROOT
ATOM      1  C   UNL     1       2.429   5.292  -5.623  0.00  0.00    +0.059 C 
ATOM      2  C   UNL     1       3.196   6.220  -6.371  0.00  0.00    +0.014 C 
ATOM      3  C   UNL     1       2.563   7.336  -7.082  0.00  0.00    +0.001 C 
ATOM      4  C   UNL     1       4.273   5.517  -7.192  0.00  0.00    +0.001 C 
ATOM      5  C   UNL     1       4.143   6.968  -5.274  0.00  0.00    +0.001 C 
ATOM      6  C   UNL     1       4.733   5.529  -4.831  0.00  0.00    +0.001 C 
ATOM      7  C   UNL     1       2.969   7.082  -4.155  0.00  0.00    +0.000 C 
ATOM      8  C   UNL     1       3.024   5.889  -3.357  0.00  0.00    +0.001 C 
ATOM      9  C   UNL     1       3.385   4.723  -4.437  0.00  0.00    +0.015 C 
ATOM     10  C   UNL     1       2.273   4.022  -6.466  0.00  0.00    +0.017 C 
ENDROOT
BRANCH   1  12
ATOM     11  C   UNL     1       0.100   5.099  -5.555  0.00  0.00    +0.107 C 
ATOM     12  N   UNL     1       1.154   5.547  -5.114  0.00  0.00    -0.219 NA
ENDBRANCH   1  12
TORSDOF 1
ENDMDL
MODEL 9
REMARK VINA RESULT:      -4.8      2.488      4.505
REMARK  Name = 
REMARK  1 active torsions:
REMARK  status: ('A' for Active; 'I' for Inactive)
REMARK    1  A    between atoms: N_2  and  C_3
REMARK                            x       y       z     vdW  Elec       q    Type
REMARK                         _______ _______ _______ _____ _____    ______ ____
ROOT
ATOM      1  C   UNL     1       2.656   6.015  -4.535  0.00  0.00    +0.059 C 
ATOM      2  C   UNL     1       3.381   6.112  -3.322  0.00  0.00    +0.014 C 
ATOM      3  C   UNL     1       3.373   5.023  -2.339  0.00  0.00    +0.001 C 
ATOM      4  C   UNL     1       3.229   7.493  -2.690  0.00  0.00    +0.001 C 
ATOM      5  C   UNL     1       4.947   6.195  -3.770  0.00  0.00    +0.001 C 
ATOM      6  C   UNL     1       4.600   7.496  -4.666  0.00  0.00    +0.001 C 
ATOM      7  C   UNL     1       4.800   5.073  -4.938  0.00  0.00    +0.000 C 
ATOM      8  C   UNL     1       4.440   5.762  -6.146  0.00  0.00    +0.001 C 
ATOM      9  C   UNL     1       3.430   6.933  -5.632  0.00  0.00    +0.015 C 
ATOM     10  C   UNL     1       1.366   6.828  -4.378  0.00  0.00    +0.017 C 
ENDROOT
BRANCH   1  12
ATOM     11  C   UNL     1       1.138   4.565  -5.565  0.00  0.00    +0.107 C 
ATOM     12  N   UNL     1       2.257   4.815  -5.126  0.00  0.00    -0.219 NA
ENDBRANCH   1  12
TORSDOF 1
ENDMDL
