MODEL 1
REMARK VINA RESULT:      -5.7      0.000      0.000
REMARK  Name = 
REMARK  7 active torsions:
REMARK  status: ('A' for Active; 'I' for Inactive)
REMARK    1  A    between atoms: O_2  and  C_3
REMARK    2  A    between atoms: C_8  and  O_9
REMARK    3  A    between atoms: O_9  and  C_10
REMARK    4  A    between atoms: C_10  and  C_11
REMARK    5  A    between atoms: C_11  and  C_13
REMARK    6  A    between atoms: C_13  and  O_14
REMARK    7  A    between atoms: O_14  and  C_15
REMARK                            x       y       z     vdW  Elec       q    Type
REMARK                         _______ _______ _______ _____ _____    ______ ____
ROOT
ATOM      1  O   UNL     1       0.976   5.360  -3.983  0.00  0.00    -0.470 OA
ENDROOT
BRANCH   1   3
ATOM      2  C   UNL     1      -1.111   6.343  -4.451  0.00  0.00    +0.172 A 
ATOM      3  C   UNL     1      -0.085   5.491  -4.848  0.00  0.00    +0.172 A 
ATOM      4  C   UNL     1      -0.095   5.044  -6.141  0.00  0.00    +0.040 A 
ATOM      5  C   UNL     1      -1.210   5.223  -6.947  0.00  0.00    +0.003 A 
ATOM      6  C   UNL     1      -2.362   5.790  -6.422  0.00  0.00    +0.003 A 
ATOM      7  C   UNL     1      -2.212   6.494  -5.250  0.00  0.00    +0.040 A 
BRANCH   2   9
ATOM      8  C   UNL     1      -2.141   7.314  -2.638  0.00  0.00    +0.253 C 
ATOM      9  O   UNL     1      -1.185   6.826  -3.165  0.00  0.00    -0.468 OA
ENDBRANCH   2   9
ENDBRANCH   1   3
BRANCH   1  10
ATOM     10  C   UNL     1       2.104   6.201  -3.941  0.00  0.00    +0.242 C 
BRANCH  10  11
ATOM     11  C   UNL     1       3.290   5.291  -4.714  0.00  0.00    +0.239 C 
ATOM     12  O   UNL     1       4.266   5.491  -3.529  0.00  0.00    -0.215 OA
BRANCH  11  13
ATOM     13  C   UNL     1       3.890   6.662  -5.484  0.00  0.00    +0.247 C 
BRANCH  13  14
ATOM     14  O   UNL     1       2.736   7.233  -6.066  0.00  0.00    -0.430 OA
BRANCH  14  15
ATOM     15  C   UNL     1       2.627   7.348  -7.441  0.00  0.00    +0.441 C 
ATOM     16  O   UNL     1       2.130   8.380  -7.933  0.00  0.00    -0.223 OA
ATOM     17  N   UNL     1       3.048   6.308  -8.293  0.00  0.00    -0.048 NA
ENDBRANCH  14  15
ENDBRANCH  13  14
ENDBRANCH  11  13
ENDBRANCH  10  11
ENDBRANCH   1  10
TORSDOF 7
ENDMDL
MODEL 2
REMARK VINA RESULT:      -5.6      1.991      3.196
REMARK  Name = 
REMARK  7 active torsions:
REMARK  status: ('A' for Active; 'I' for Inactive)
REMARK    1  A    between atoms: O_2  and  C_3
REMARK    2  A    between atoms: C_8  and  O_9
REMARK    3  A    between atoms: O_9  and  C_10
REMARK    4  A    between atoms: C_10  and  C_11
REMARK    5  A    between atoms: C_11  and  C_13
REMARK    6  A    between atoms: C_13  and  O_14
REMARK    7  A    between atoms: O_14  and  C_15
REMARK                            x       y       z     vdW  Elec       q    Type
REMARK                         _______ _______ _______ _____ _____    ______ ____
ROOT
ATOM      1  O   UNL     1       1.356   6.992  -5.617  0.00  0.00    -0.470 OA
ENDROOT
BRANCH   1   3
ATOM      2  C   UNL     1      -0.221   5.660  -6.750  0.00  0.00    +0.172 A 
ATOM      3  C   UNL     1       0.049   6.583  -5.745  0.00  0.00    +0.172 A 
ATOM      4  C   UNL     1      -0.936   6.829  -4.827  0.00  0.00    +0.040 A 
ATOM      5  C   UNL     1      -2.230   6.375  -5.035  0.00  0.00    +0.003 A 
ATOM      6  C   UNL     1      -2.559   5.731  -6.219  0.00  0.00    +0.003 A 
ATOM      7  C   UNL     1      -1.506   5.235  -6.952  0.00  0.00    +0.040 A 
BRANCH   2   9
ATOM      8  C   UNL     1       0.583   5.515  -8.901  0.00  0.00    +0.253 C 
ATOM      9  O   UNL     1       0.709   5.366  -7.721  0.00  0.00    -0.468 OA
ENDBRANCH   2   9
ENDBRANCH   1   3
BRANCH   1  10
ATOM     10  C   UNL     1       2.323   6.387  -4.793  0.00  0.00    +0.242 C 
BRANCH  10  11
ATOM     11  C   UNL     1       3.762   7.094  -5.306  0.00  0.00    +0.239 C 
ATOM     12  O   UNL     1       3.098   7.577  -6.618  0.00  0.00    -0.215 OA
BRANCH  11  13
ATOM     13  C   UNL     1       4.247   5.659  -6.039  0.00  0.00    +0.247 C 
BRANCH  13  14
ATOM     14  O   UNL     1       4.044   5.916  -7.413  0.00  0.00    -0.430 OA
BRANCH  14  15
ATOM     15  C   UNL     1       4.633   5.111  -8.372  0.00  0.00    +0.441 C 
ATOM     16  O   UNL     1       5.843   5.259  -8.638  0.00  0.00    -0.223 OA
ATOM     17  N   UNL     1       3.885   4.143  -9.069  0.00  0.00    -0.048 NA
ENDBRANCH  14  15
ENDBRANCH  13  14
ENDBRANCH  11  13
ENDBRANCH  10  11
ENDBRANCH   1  10
TORSDOF 7
ENDMDL
MODEL 3
REMARK VINA RESULT:      -5.6      2.412      3.564
REMARK  Name = 
REMARK  7 active torsions:
REMARK  status: ('A' for Active; 'I' for Inactive)
REMARK    1  A    between atoms: O_2  and  C_3
REMARK    2  A    between atoms: C_8  and  O_9
REMARK    3  A    between atoms: O_9  and  C_10
REMARK    4  A    between atoms: C_10  and  C_11
REMARK    5  A    between atoms: C_11  and  C_13
REMARK    6  A    between atoms: C_13  and  O_14
REMARK    7  A    between atoms: O_14  and  C_15
REMARK                            x       y       z     vdW  Elec       q    Type
REMARK                         _______ _______ _______ _____ _____    ______ ____
ROOT
ATOM      1  O   UNL     1       0.987   5.306  -4.084  0.00  0.00    -0.470 OA
ENDROOT
BRANCH   1   3
ATOM      2  C   UNL     1      -1.174   6.176  -4.420  0.00  0.00    +0.172 A 
ATOM      3  C   UNL     1      -0.100   5.446  -4.916  0.00  0.00    +0.172 A 
ATOM      4  C   UNL     1      -0.105   5.131  -6.248  0.00  0.00    +0.040 A 
ATOM      5  C   UNL     1      -1.247   5.308  -7.015  0.00  0.00    +0.003 A 
ATOM      6  C   UNL     1      -2.425   5.735  -6.419  0.00  0.00    +0.003 A 
ATOM      7  C   UNL     1      -2.300   6.327  -5.184  0.00  0.00    +0.040 A 
BRANCH   2   9
ATOM      8  C   UNL     1      -2.018   7.298  -2.598  0.00  0.00    +0.253 C 
ATOM      9  O   UNL     1      -1.255   6.521  -3.090  0.00  0.00    -0.468 OA
ENDBRANCH   2   9
ENDBRANCH   1   3
BRANCH   1  10
ATOM     10  C   UNL     1       2.334   5.407  -4.477  0.00  0.00    +0.242 C 
BRANCH  10  11
ATOM     11  C   UNL     1       2.915   6.677  -3.538  0.00  0.00    +0.239 C 
ATOM     12  O   UNL     1       3.600   7.320  -4.768  0.00  0.00    -0.215 OA
BRANCH  11  13
ATOM     13  C   UNL     1       4.311   5.813  -3.168  0.00  0.00    +0.247 C 
BRANCH  13  14
ATOM     14  O   UNL     1       3.828   4.744  -2.382  0.00  0.00    -0.430 OA
BRANCH  14  15
ATOM     15  C   UNL     1       3.362   4.972  -1.099  0.00  0.00    +0.441 C 
ATOM     16  O   UNL     1       4.104   5.531  -0.267  0.00  0.00    -0.223 OA
ATOM     17  N   UNL     1       2.071   4.564  -0.710  0.00  0.00    -0.048 NA
ENDBRANCH  14  15
ENDBRANCH  13  14
ENDBRANCH  11  13
ENDBRANCH  10  11
ENDBRANCH   1  10
TORSDOF 7
ENDMDL
MODEL 4
REMARK VINA RESULT:      -5.6      2.725      4.319
REMARK  Name = 
REMARK  7 active torsions:
REMARK  status: ('A' for Active; 'I' for Inactive)
REMARK    1  A    between atoms: O_2  and  C_3
REMARK    2  A    between atoms: C_8  and  O_9
REMARK    3  A    between atoms: O_9  and  C_10
REMARK    4  A    between atoms: C_10  and  C_11
REMARK    5  A    between atoms: C_11  and  C_13
REMARK    6  A    between atoms: C_13  and  O_14
REMARK    7  A    between atoms: O_14  and  C_15
REMARK                            x       y       z     vdW  Elec       q    Type
REMARK                         _______ _______ _______ _____ _____    ______ ____
ROOT
ATOM      1  O   UNL     1       1.382   6.972  -4.927  0.00  0.00    -0.470 OA
ENDROOT
BRANCH   1   3
ATOM      2  C   UNL     1       0.014   5.522  -6.179  0.00  0.00    +0.172 A 
ATOM      3  C   UNL     1       0.119   6.638  -5.357  0.00  0.00    +0.172 A 
ATOM      4  C   UNL     1      -1.039   7.167  -4.854  0.00  0.00    +0.040 A 
ATOM      5  C   UNL     1      -2.274   6.769  -5.344  0.00  0.00    +0.003 A 
ATOM      6  C   UNL     1      -2.346   5.884  -6.410  0.00  0.00    +0.003 A 
ATOM      7  C   UNL     1      -1.210   5.153  -6.668  0.00  0.00    +0.040 A 
BRANCH   2   9
ATOM      8  C   UNL     1       1.708   3.973  -6.336  0.00  0.00    +0.253 C 
ATOM      9  O   UNL     1       1.127   4.937  -6.739  0.00  0.00    -0.468 OA
ENDBRANCH   2   9
ENDBRANCH   1   3
BRANCH   1  10
ATOM     10  C   UNL     1       1.949   6.601  -3.694  0.00  0.00    +0.242 C 
BRANCH  10  11
ATOM     11  C   UNL     1       3.439   7.385  -3.704  0.00  0.00    +0.239 C 
ATOM     12  O   UNL     1       3.670   7.003  -5.186  0.00  0.00    -0.215 OA
BRANCH  11  13
ATOM     13  C   UNL     1       4.218   5.987  -3.186  0.00  0.00    +0.247 C 
BRANCH  13  14
ATOM     14  O   UNL     1       3.312   5.443  -2.250  0.00  0.00    -0.430 OA
BRANCH  14  15
ATOM     15  C   UNL     1       3.757   5.008  -1.013  0.00  0.00    +0.441 C 
ATOM     16  O   UNL     1       3.620   3.809  -0.699  0.00  0.00    -0.223 OA
ATOM     17  N   UNL     1       4.342   5.902  -0.095  0.00  0.00    -0.048 NA
ENDBRANCH  14  15
ENDBRANCH  13  14
ENDBRANCH  11  13
ENDBRANCH  10  11
ENDBRANCH   1  10
TORSDOF 7
ENDMDL
MODEL 5
REMARK VINA RESULT:      -5.5      2.026      2.630
REMARK  Name = 
REMARK  7 active torsions:
REMARK  status: ('A' for Active; 'I' for Inactive)
REMARK    1  A    between atoms: O_2  and  C_3
REMARK    2  A    between atoms: C_8  and  O_9
REMARK    3  A    between atoms: O_9  and  C_10
REMARK    4  A    between atoms: C_10  and  C_11
REMARK    5  A    between atoms: C_11  and  C_13
REMARK    6  A    between atoms: C_13  and  O_14
REMARK    7  A    between atoms: O_14  and  C_15
REMARK                            x       y       z     vdW  Elec       q    Type
REMARK                         _______ _______ _______ _____ _____    ______ ____
ROOT
ATOM      1  O   UNL     1       0.437   4.862  -4.703  0.00  0.00    -0.470 OA
ENDROOT
BRANCH   1   3
ATOM      2  C   UNL     1      -0.845   5.522  -2.841  0.00  0.00    +0.172 A 
ATOM      3  C   UNL     1      -0.682   5.503  -4.222  0.00  0.00    +0.172 A 
ATOM      4  C   UNL     1      -1.497   6.309  -4.969  0.00  0.00    +0.040 A 
ATOM      5  C   UNL     1      -2.605   6.921  -4.401  0.00  0.00    +0.003 A 
ATOM      6  C   UNL     1      -2.944   6.658  -3.082  0.00  0.00    +0.003 A 
ATOM      7  C   UNL     1      -1.953   6.115  -2.298  0.00  0.00    +0.040 A 
BRANCH   2   9
ATOM      8  C   UNL     1       0.732   5.102  -1.221  0.00  0.00    +0.253 C 
ATOM      9  O   UNL     1      -0.077   4.730  -2.018  0.00  0.00    -0.468 OA
ENDBRANCH   2   9
ENDBRANCH   1   3
BRANCH   1  10
ATOM     10  C   UNL     1       1.526   5.488  -5.336  0.00  0.00    +0.242 C 
BRANCH  10  11
ATOM     11  C   UNL     1       1.471   4.866  -6.899  0.00  0.00    +0.239 C 
ATOM     12  O   UNL     1       2.034   3.507  -6.416  0.00  0.00    -0.215 OA
BRANCH  11  13
ATOM     13  C   UNL     1       3.023   5.435  -7.218  0.00  0.00    +0.247 C 
BRANCH  13  14
ATOM     14  O   UNL     1       2.893   6.020  -8.497  0.00  0.00    -0.430 OA
BRANCH  14  15
ATOM     15  C   UNL     1       2.066   7.113  -8.688  0.00  0.00    +0.441 C 
ATOM     16  O   UNL     1       1.241   7.102  -9.623  0.00  0.00    -0.223 OA
ATOM     17  N   UNL     1       2.155   8.246  -7.857  0.00  0.00    -0.048 NA
ENDBRANCH  14  15
ENDBRANCH  13  14
ENDBRANCH  11  13
ENDBRANCH  10  11
ENDBRANCH   1  10
TORSDOF 7
ENDMDL
MODEL 6
REMARK VINA RESULT:      -5.5      1.165      2.300
REMARK  Name = 
REMARK  7 active torsions:
REMARK  status: ('A' for Active; 'I' for Inactive)
REMARK    1  A    between atoms: O_2  and  C_3
REMARK    2  A    between atoms: C_8  and  O_9
REMARK    3  A    between atoms: O_9  and  C_10
REMARK    4  A    between atoms: C_10  and  C_11
REMARK    5  A    between atoms: C_11  and  C_13
REMARK    6  A    between atoms: C_13  and  O_14
REMARK    7  A    between atoms: O_14  and  C_15
REMARK                            x       y       z     vdW  Elec       q    Type
REMARK                         _______ _______ _______ _____ _____    ______ ____
ROOT
ATOM      1  O   UNL     1       0.898   5.145  -4.320  0.00  0.00    -0.470 OA
ENDROOT
BRANCH   1   3
ATOM      2  C   UNL     1      -0.990   5.644  -5.634  0.00  0.00    +0.172 A 
ATOM      3  C   UNL     1      -0.275   5.849  -4.459  0.00  0.00    +0.172 A 
ATOM      4  C   UNL     1      -0.894   6.536  -3.450  0.00  0.00    +0.040 A 
ATOM      5  C   UNL     1      -2.080   7.218  -3.678  0.00  0.00    +0.003 A 
ATOM      6  C   UNL     1      -2.613   7.276  -4.958  0.00  0.00    +0.003 A 
ATOM      7  C   UNL     1      -2.150   6.338  -5.851  0.00  0.00    +0.040 A 
BRANCH   2   9
ATOM      8  C   UNL     1      -0.408   5.345  -7.839  0.00  0.00    +0.253 C 
ATOM      9  O   UNL     1      -0.437   4.976  -6.703  0.00  0.00    -0.468 OA
ENDBRANCH   2   9
ENDBRANCH   1   3
BRANCH   1  10
ATOM     10  C   UNL     1       2.193   5.684  -4.434  0.00  0.00    +0.242 C 
BRANCH  10  11
ATOM     11  C   UNL     1       2.988   4.572  -5.417  0.00  0.00    +0.239 C 
ATOM     12  O   UNL     1       4.189   4.517  -4.443  0.00  0.00    -0.215 OA
BRANCH  11  13
ATOM     13  C   UNL     1       3.712   5.812  -6.295  0.00  0.00    +0.247 C 
BRANCH  13  14
ATOM     14  O   UNL     1       2.613   6.598  -6.705  0.00  0.00    -0.430 OA
BRANCH  14  15
ATOM     15  C   UNL     1       2.684   7.355  -7.862  0.00  0.00    +0.441 C 
ATOM     16  O   UNL     1       2.131   8.472  -7.899  0.00  0.00    -0.223 OA
ATOM     17  N   UNL     1       3.351   6.874  -9.005  0.00  0.00    -0.048 NA
ENDBRANCH  14  15
ENDBRANCH  13  14
ENDBRANCH  11  13
ENDBRANCH  10  11
ENDBRANCH   1  10
TORSDOF 7
ENDMDL
MODEL 7
REMARK VINA RESULT:      -5.5      4.021      7.172
REMARK  Name = 
REMARK  7 active torsions:
REMARK  status: ('A' for Active; 'I' for Inactive)
REMARK    1  A    between atoms: O_2  and  C_3
REMARK    2  A    between atoms: C_8  and  O_9
REMARK    3  A    between atoms: O_9  and  C_10
REMARK    4  A    between atoms: C_10  and  C_11
REMARK    5  A    between atoms: C_11  and  C_13
REMARK    6  A    between atoms: C_13  and  O_14
REMARK    7  A    between atoms: O_14  and  C_15
REMARK                            x       y       z     vdW  Elec       q    Type
REMARK                         _______ _______ _______ _____ _____    ______ ____
ROOT
ATOM      1  O   UNL     1       4.603   4.687  -9.241  0.00  0.00    -0.470 OA
ENDROOT
BRANCH   1   3
ATOM      2  C   UNL     1       4.863   6.649 -10.516  0.00  0.00    +0.172 A 
ATOM      3  C   UNL     1       5.452   5.625  -9.783  0.00  0.00    +0.172 A 
ATOM      4  C   UNL     1       6.775   5.754  -9.461  0.00  0.00    +0.040 A 
ATOM      5  C   UNL     1       7.559   6.733 -10.054  0.00  0.00    +0.003 A 
ATOM      6  C   UNL     1       7.024   7.545 -11.044  0.00  0.00    +0.003 A 
ATOM      7  C   UNL     1       5.652   7.597 -11.109  0.00  0.00    +0.040 A 
BRANCH   2   9
ATOM      8  C   UNL     1       3.111   6.179 -11.931  0.00  0.00    +0.253 C 
ATOM      9  O   UNL     1       3.541   6.591 -10.894  0.00  0.00    -0.468 OA
ENDBRANCH   2   9
ENDBRANCH   1   3
BRANCH   1  10
ATOM     10  C   UNL     1       3.842   4.856  -8.069  0.00  0.00    +0.242 C 
BRANCH  10  11
ATOM     11  C   UNL     1       2.542   3.812  -8.301  0.00  0.00    +0.239 C 
ATOM     12  O   UNL     1       1.616   4.993  -8.681  0.00  0.00    -0.215 OA
BRANCH  11  13
ATOM     13  C   UNL     1       2.103   3.942  -6.682  0.00  0.00    +0.247 C 
BRANCH  13  14
ATOM     14  O   UNL     1       1.130   4.966  -6.696  0.00  0.00    -0.430 OA
BRANCH  14  15
ATOM     15  C   UNL     1       0.280   5.141  -5.617  0.00  0.00    +0.441 C 
ATOM     16  O   UNL     1      -0.936   5.326  -5.819  0.00  0.00    -0.223 OA
ATOM     17  N   UNL     1       0.770   5.136  -4.297  0.00  0.00    -0.048 NA
ENDBRANCH  14  15
ENDBRANCH  13  14
ENDBRANCH  11  13
ENDBRANCH  10  11
ENDBRANCH   1  10
TORSDOF 7
ENDMDL
MODEL 8
REMARK VINA RESULT:      -5.5      5.136      8.347
REMARK  Name = 
REMARK  7 active torsions:
REMARK  status: ('A' for Active; 'I' for Inactive)
REMARK    1  A    between atoms: O_2  and  C_3
REMARK    2  A    between atoms: C_8  and  O_9
REMARK    3  A    between atoms: O_9  and  C_10
REMARK    4  A    between atoms: C_10  and  C_11
REMARK    5  A    between atoms: C_11  and  C_13
REMARK    6  A    between atoms: C_13  and  O_14
REMARK    7  A    between atoms: O_14  and  C_15
REMARK                            x       y       z     vdW  Elec       q    Type
REMARK                         _______ _______ _______ _____ _____    ______ ____
ROOT
ATOM      1  O   UNL     1       4.802   5.718 -10.668  0.00  0.00    -0.470 OA
ENDROOT
BRANCH   1   3
ATOM      2  C   UNL     1       6.140   5.424 -12.582  0.00  0.00    +0.172 A 
ATOM      3  C   UNL     1       6.052   5.775 -11.240  0.00  0.00    +0.172 A 
ATOM      4  C   UNL     1       7.144   6.367 -10.665  0.00  0.00    +0.040 A 
ATOM      5  C   UNL     1       8.369   6.382 -11.315  0.00  0.00    +0.003 A 
ATOM      6  C   UNL     1       8.519   5.725 -12.528  0.00  0.00    +0.003 A 
ATOM      7  C   UNL     1       7.360   5.428 -13.205  0.00  0.00    +0.040 A 
BRANCH   2   9
ATOM      8  C   UNL     1       4.260   5.343 -13.905  0.00  0.00    +0.253 C 
ATOM      9  O   UNL     1       5.094   4.811 -13.233  0.00  0.00    -0.468 OA
ENDBRANCH   2   9
ENDBRANCH   1   3
BRANCH   1  10
ATOM     10  C   UNL     1       4.523   5.883  -9.299  0.00  0.00    +0.242 C 
BRANCH  10  11
ATOM     11  C   UNL     1       3.849   4.404  -8.863  0.00  0.00    +0.239 C 
ATOM     12  O   UNL     1       2.551   4.726  -9.642  0.00  0.00    -0.215 OA
BRANCH  11  13
ATOM     13  C   UNL     1       3.209   5.070  -7.455  0.00  0.00    +0.247 C 
BRANCH  13  14
ATOM     14  O   UNL     1       3.307   6.459  -7.685  0.00  0.00    -0.430 OA
BRANCH  14  15
ATOM     15  C   UNL     1       2.288   7.309  -7.291  0.00  0.00    +0.441 C 
ATOM     16  O   UNL     1       2.123   8.389  -7.893  0.00  0.00    -0.223 OA
ATOM     17  N   UNL     1       1.450   6.986  -6.206  0.00  0.00    -0.048 NA
ENDBRANCH  14  15
ENDBRANCH  13  14
ENDBRANCH  11  13
ENDBRANCH  10  11
ENDBRANCH   1  10
TORSDOF 7
ENDMDL
MODEL 9
REMARK VINA RESULT:      -5.5      4.400      7.171
REMARK  Name = 
REMARK  7 active torsions:
REMARK  status: ('A' for Active; 'I' for Inactive)
REMARK    1  A    between atoms: O_2  and  C_3
REMARK    2  A    between atoms: C_8  and  O_9
REMARK    3  A    between atoms: O_9  and  C_10
REMARK    4  A    between atoms: C_10  and  C_11
REMARK    5  A    between atoms: C_11  and  C_13
REMARK    6  A    between atoms: C_13  and  O_14
REMARK    7  A    between atoms: O_14  and  C_15
REMARK                            x       y       z     vdW  Elec       q    Type
REMARK                         _______ _______ _______ _____ _____    ______ ____
ROOT
ATOM      1  O   UNL     1       4.455   5.029  -8.954  0.00  0.00    -0.470 OA
ENDROOT
BRANCH   1   3
ATOM      2  C   UNL     1       4.983   6.612 -10.614  0.00  0.00    +0.172 A 
ATOM      3  C   UNL     1       5.424   5.719  -9.643  0.00  0.00    +0.172 A 
ATOM      4  C   UNL     1       6.745   5.768  -9.289  0.00  0.00    +0.040 A 
ATOM      5  C   UNL     1       7.657   6.494 -10.042  0.00  0.00    +0.003 A 
ATOM      6  C   UNL     1       7.250   7.118 -11.212  0.00  0.00    +0.003 A 
ATOM      7  C   UNL     1       5.896   7.307 -11.360  0.00  0.00    +0.040 A 
BRANCH   2   9
ATOM      8  C   UNL     1       3.235   6.082 -12.014  0.00  0.00    +0.253 C 
ATOM      9  O   UNL     1       3.674   6.619 -11.040  0.00  0.00    -0.468 OA
ENDBRANCH   2   9
ENDBRANCH   1   3
BRANCH   1  10
ATOM     10  C   UNL     1       4.146   5.198  -7.591  0.00  0.00    +0.242 C 
BRANCH  10  11
ATOM     11  C   UNL     1       2.627   4.488  -7.450  0.00  0.00    +0.239 C 
ATOM     12  O   UNL     1       2.835   3.697  -8.765  0.00  0.00    -0.215 OA
BRANCH  11  13
ATOM     13  C   UNL     1       1.914   5.761  -8.288  0.00  0.00    +0.247 C 
BRANCH  13  14
ATOM     14  O   UNL     1       0.689   5.211  -8.726  0.00  0.00    -0.430 OA
BRANCH  14  15
ATOM     15  C   UNL     1       0.220   5.471 -10.003  0.00  0.00    +0.441 C 
ATOM     16  O   UNL     1       0.039   6.651 -10.361  0.00  0.00    -0.223 OA
ATOM     17  N   UNL     1      -0.077   4.422 -10.895  0.00  0.00    -0.048 NA
ENDBRANCH  14  15
ENDBRANCH  13  14
ENDBRANCH  11  13
ENDBRANCH  10  11
ENDBRANCH   1  10
TORSDOF 7
ENDMDL
