MODEL 1
REMARK VINA RESULT:      -5.7      0.000      0.000
REMARK  Name = 
REMARK  7 active torsions:
REMARK  status: ('A' for Active; 'I' for Inactive)
REMARK    1  A    between atoms: O_2  and  C_3
REMARK    2  A    between atoms: C_8  and  O_9
REMARK    3  A    between atoms: O_9  and  C_10
REMARK    4  A    between atoms: C_10  and  C_11
REMARK    5  A    between atoms: C_11  and  C_13
REMARK    6  A    between atoms: C_13  and  O_14
REMARK    7  A    between atoms: O_14  and  C_15
REMARK                            x       y       z     vdW  Elec       q    Type
REMARK                         _______ _______ _______ _____ _____    ______ ____
ROOT
ATOM      1  O   UNL     1       0.604   4.851  -4.894  0.00  0.00    -0.470 OA
ENDROOT
BRANCH   1   3
ATOM      2  C   UNL     1      -0.755   5.688  -3.196  0.00  0.00    +0.172 A 
ATOM      3  C   UNL     1      -0.420   5.728  -4.522  0.00  0.00    +0.172 A 
ATOM      4  C   UNL     1      -0.603   6.948  -5.164  0.00  0.00    +0.040 A 
ATOM      5  C   UNL     1      -1.492   7.869  -4.621  0.00  0.00    +0.003 A 
ATOM      6  C   UNL     1      -2.180   7.589  -3.462  0.00  0.00    +0.003 A 
ATOM      7  C   UNL     1      -1.741   6.536  -2.706  0.00  0.00    +0.040 A 
BRANCH   2   9
ATOM      8  C   UNL     1       0.712   5.101  -1.302  0.00  0.00    +0.253 C 
ATOM      9  O   UNL     1      -0.253   4.758  -2.289  0.00  0.00    -0.468 OA
ENDBRANCH   2   9
ENDBRANCH   1   3
BRANCH   1  10
ATOM     10  C   UNL     1       0.724   4.470  -6.249  0.00  0.00    +0.242 C 
BRANCH  10  11
ATOM     11  C   UNL     1       2.152   3.612  -6.306  0.00  0.00    +0.239 C 
ATOM     12  O   UNL     1       2.198   3.716  -7.836  0.00  0.00    -0.215 OA
BRANCH  11  13
ATOM     13  C   UNL     1       3.038   4.997  -6.071  0.00  0.00    +0.247 C 
BRANCH  13  14
ATOM     14  O   UNL     1       2.818   5.815  -7.190  0.00  0.00    -0.430 OA
BRANCH  14  15
ATOM     15  C   UNL     1       2.734   7.180  -6.898  0.00  0.00    +0.441 C 
ATOM     16  O   UNL     1       3.474   7.656  -5.989  0.00  0.00    -0.223 OA
ATOM     17  N   UNL     1       2.222   8.152  -7.811  0.00  0.00    -0.048 NA
ENDBRANCH  14  15
ENDBRANCH  13  14
ENDBRANCH  11  13
ENDBRANCH  10  11
ENDBRANCH   1  10
TORSDOF 7
ENDMDL
MODEL 2
REMARK VINA RESULT:      -5.7      4.979      8.534
REMARK  Name = 
REMARK  7 active torsions:
REMARK  status: ('A' for Active; 'I' for Inactive)
REMARK    1  A    between atoms: O_2  and  C_3
REMARK    2  A    between atoms: C_8  and  O_9
REMARK    3  A    between atoms: O_9  and  C_10
REMARK    4  A    between atoms: C_10  and  C_11
REMARK    5  A    between atoms: C_11  and  C_13
REMARK    6  A    between atoms: C_13  and  O_14
REMARK    7  A    between atoms: O_14  and  C_15
REMARK                            x       y       z     vdW  Elec       q    Type
REMARK                         _______ _______ _______ _____ _____    ______ ____
ROOT
ATOM      1  O   UNL     1       4.306   5.171 -10.932  0.00  0.00    -0.470 OA
ENDROOT
BRANCH   1   3
ATOM      2  C   UNL     1       6.175   5.346 -12.313  0.00  0.00    +0.172 A 
ATOM      3  C   UNL     1       5.673   5.443 -11.044  0.00  0.00    +0.172 A 
ATOM      4  C   UNL     1       6.306   6.351 -10.202  0.00  0.00    +0.040 A 
ATOM      5  C   UNL     1       7.609   6.741 -10.490  0.00  0.00    +0.003 A 
ATOM      6  C   UNL     1       8.268   6.247 -11.592  0.00  0.00    +0.003 A 
ATOM      7  C   UNL     1       7.516   5.621 -12.548  0.00  0.00    +0.040 A 
BRANCH   2   9
ATOM      8  C   UNL     1       4.731   5.729 -14.275  0.00  0.00    +0.253 C 
ATOM      9  O   UNL     1       5.455   4.868 -13.405  0.00  0.00    -0.468 OA
ENDBRANCH   2   9
ENDBRANCH   1   3
BRANCH   1  10
ATOM     10  C   UNL     1       3.410   6.238 -10.699  0.00  0.00    +0.242 C 
BRANCH  10  11
ATOM     11  C   UNL     1       1.926   5.495 -10.540  0.00  0.00    +0.239 C 
ATOM     12  O   UNL     1       2.489   4.505  -9.512  0.00  0.00    -0.215 OA
BRANCH  11  13
ATOM     13  C   UNL     1       1.454   6.596  -9.390  0.00  0.00    +0.247 C 
BRANCH  13  14
ATOM     14  O   UNL     1       2.149   6.277  -8.212  0.00  0.00    -0.430 OA
BRANCH  14  15
ATOM     15  C   UNL     1       2.595   7.387  -7.489  0.00  0.00    +0.441 C 
ATOM     16  O   UNL     1       2.160   8.533  -7.801  0.00  0.00    -0.223 OA
ATOM     17  N   UNL     1       3.142   7.302  -6.171  0.00  0.00    -0.048 NA
ENDBRANCH  14  15
ENDBRANCH  13  14
ENDBRANCH  11  13
ENDBRANCH  10  11
ENDBRANCH   1  10
TORSDOF 7
ENDMDL
MODEL 3
REMARK VINA RESULT:      -5.7      3.109      4.501
REMARK  Name = 
REMARK  7 active torsions:
REMARK  status: ('A' for Active; 'I' for Inactive)
REMARK    1  A    between atoms: O_2  and  C_3
REMARK    2  A    between atoms: C_8  and  O_9
REMARK    3  A    between atoms: O_9  and  C_10
REMARK    4  A    between atoms: C_10  and  C_11
REMARK    5  A    between atoms: C_11  and  C_13
REMARK    6  A    between atoms: C_13  and  O_14
REMARK    7  A    between atoms: O_14  and  C_15
REMARK                            x       y       z     vdW  Elec       q    Type
REMARK                         _______ _______ _______ _____ _____    ______ ____
ROOT
ATOM      1  O   UNL     1       1.678   7.073  -5.493  0.00  0.00    -0.470 OA
ENDROOT
BRANCH   1   3
ATOM      2  C   UNL     1       0.224   5.621  -6.593  0.00  0.00    +0.172 A 
ATOM      3  C   UNL     1       0.361   6.753  -5.837  0.00  0.00    +0.172 A 
ATOM      4  C   UNL     1      -0.706   7.064  -5.001  0.00  0.00    +0.040 A 
ATOM      5  C   UNL     1      -1.962   6.540  -5.286  0.00  0.00    +0.003 A 
ATOM      6  C   UNL     1      -2.154   5.718  -6.374  0.00  0.00    +0.003 A 
ATOM      7  C   UNL     1      -1.042   5.191  -6.971  0.00  0.00    +0.040 A 
BRANCH   2   9
ATOM      8  C   UNL     1       1.853   3.773  -6.474  0.00  0.00    +0.253 C 
ATOM      9  O   UNL     1       1.291   4.904  -7.129  0.00  0.00    -0.468 OA
ENDBRANCH   2   9
ENDBRANCH   1   3
BRANCH   1  10
ATOM     10  C   UNL     1       2.155   6.730  -4.209  0.00  0.00    +0.242 C 
BRANCH  10  11
ATOM     11  C   UNL     1       3.726   6.237  -4.477  0.00  0.00    +0.239 C 
ATOM     12  O   UNL     1       4.131   7.647  -4.927  0.00  0.00    -0.215 OA
BRANCH  11  13
ATOM     13  C   UNL     1       4.122   6.507  -2.887  0.00  0.00    +0.247 C 
BRANCH  13  14
ATOM     14  O   UNL     1       4.294   5.246  -2.292  0.00  0.00    -0.430 OA
BRANCH  14  15
ATOM     15  C   UNL     1       3.710   5.122  -1.028  0.00  0.00    +0.441 C 
ATOM     16  O   UNL     1       4.220   5.752  -0.056  0.00  0.00    -0.223 OA
ATOM     17  N   UNL     1       2.357   4.713  -0.821  0.00  0.00    -0.048 NA
ENDBRANCH  14  15
ENDBRANCH  13  14
ENDBRANCH  11  13
ENDBRANCH  10  11
ENDBRANCH   1  10
TORSDOF 7
ENDMDL
MODEL 4
REMARK VINA RESULT:      -5.6      1.715      2.756
REMARK  Name = 
REMARK  7 active torsions:
REMARK  status: ('A' for Active; 'I' for Inactive)
REMARK    1  A    between atoms: O_2  and  C_3
REMARK    2  A    between atoms: C_8  and  O_9
REMARK    3  A    between atoms: O_9  and  C_10
REMARK    4  A    between atoms: C_10  and  C_11
REMARK    5  A    between atoms: C_11  and  C_13
REMARK    6  A    between atoms: C_13  and  O_14
REMARK    7  A    between atoms: O_14  and  C_15
REMARK                            x       y       z     vdW  Elec       q    Type
REMARK                         _______ _______ _______ _____ _____    ______ ____
ROOT
ATOM      1  O   UNL     1       1.063   5.158  -4.056  0.00  0.00    -0.470 OA
ENDROOT
BRANCH   1   3
ATOM      2  C   UNL     1      -1.077   6.012  -4.409  0.00  0.00    +0.172 A 
ATOM      3  C   UNL     1      -0.073   5.206  -4.872  0.00  0.00    +0.172 A 
ATOM      4  C   UNL     1       0.017   5.070  -6.253  0.00  0.00    +0.040 A 
ATOM      5  C   UNL     1      -1.105   5.336  -7.030  0.00  0.00    +0.003 A 
ATOM      6  C   UNL     1      -2.288   5.736  -6.451  0.00  0.00    +0.003 A 
ATOM      7  C   UNL     1      -2.242   6.158  -5.151  0.00  0.00    +0.040 A 
BRANCH   2   9
ATOM      8  C   UNL     1      -2.141   7.461  -2.720  0.00  0.00    +0.253 C 
ATOM      9  O   UNL     1      -1.075   6.627  -3.160  0.00  0.00    -0.468 OA
ENDBRANCH   2   9
ENDBRANCH   1   3
BRANCH   1  10
ATOM     10  C   UNL     1       2.338   5.305  -4.644  0.00  0.00    +0.242 C 
BRANCH  10  11
ATOM     11  C   UNL     1       2.738   6.898  -4.358  0.00  0.00    +0.239 C 
ATOM     12  O   UNL     1       3.940   6.482  -3.502  0.00  0.00    -0.215 OA
BRANCH  11  13
ATOM     13  C   UNL     1       3.619   6.970  -5.764  0.00  0.00    +0.247 C 
BRANCH  13  14
ATOM     14  O   UNL     1       2.836   7.666  -6.699  0.00  0.00    -0.430 OA
BRANCH  14  15
ATOM     15  C   UNL     1       2.769   7.060  -7.958  0.00  0.00    +0.441 C 
ATOM     16  O   UNL     1       3.433   6.003  -8.162  0.00  0.00    -0.223 OA
ATOM     17  N   UNL     1       1.698   7.271  -8.879  0.00  0.00    -0.048 NA
ENDBRANCH  14  15
ENDBRANCH  13  14
ENDBRANCH  11  13
ENDBRANCH  10  11
ENDBRANCH   1  10
TORSDOF 7
ENDMDL
MODEL 5
REMARK VINA RESULT:      -5.6      2.132      2.782
REMARK  Name = 
REMARK  7 active torsions:
REMARK  status: ('A' for Active; 'I' for Inactive)
REMARK    1  A    between atoms: O_2  and  C_3
REMARK    2  A    between atoms: C_8  and  O_9
REMARK    3  A    between atoms: O_9  and  C_10
REMARK    4  A    between atoms: C_10  and  C_11
REMARK    5  A    between atoms: C_11  and  C_13
REMARK    6  A    between atoms: C_13  and  O_14
REMARK    7  A    between atoms: O_14  and  C_15
REMARK                            x       y       z     vdW  Elec       q    Type
REMARK                         _______ _______ _______ _____ _____    ______ ____
ROOT
ATOM      1  O   UNL     1       1.177   5.749  -6.835  0.00  0.00    -0.470 OA
ENDROOT
BRANCH   1   3
ATOM      2  C   UNL     1      -0.179   6.061  -4.965  0.00  0.00    +0.172 A 
ATOM      3  C   UNL     1      -0.073   5.562  -6.235  0.00  0.00    +0.172 A 
ATOM      4  C   UNL     1      -1.244   5.538  -6.983  0.00  0.00    +0.040 A 
ATOM      5  C   UNL     1      -2.467   5.563  -6.323  0.00  0.00    +0.003 A 
ATOM      6  C   UNL     1      -2.527   5.618  -4.948  0.00  0.00    +0.003 A 
ATOM      7  C   UNL     1      -1.383   5.957  -4.280  0.00  0.00    +0.040 A 
BRANCH   2   9
ATOM      8  C   UNL     1       1.202   6.130  -2.922  0.00  0.00    +0.253 C 
ATOM      9  O   UNL     1       0.888   6.579  -4.236  0.00  0.00    -0.468 OA
ENDBRANCH   2   9
ENDBRANCH   1   3
BRANCH   1  10
ATOM     10  C   UNL     1       1.236   6.118  -8.197  0.00  0.00    +0.242 C 
BRANCH  10  11
ATOM     11  C   UNL     1       2.639   7.011  -8.316  0.00  0.00    +0.239 C 
ATOM     12  O   UNL     1       1.974   8.216  -7.638  0.00  0.00    -0.215 OA
BRANCH  11  13
ATOM     13  C   UNL     1       3.208   6.378  -6.890  0.00  0.00    +0.247 C 
BRANCH  13  14
ATOM     14  O   UNL     1       3.575   7.465  -6.081  0.00  0.00    -0.430 OA
BRANCH  14  15
ATOM     15  C   UNL     1       4.244   7.107  -4.906  0.00  0.00    +0.441 C 
ATOM     16  O   UNL     1       4.427   5.880  -4.657  0.00  0.00    -0.223 OA
ATOM     17  N   UNL     1       5.114   7.989  -4.194  0.00  0.00    -0.048 NA
ENDBRANCH  14  15
ENDBRANCH  13  14
ENDBRANCH  11  13
ENDBRANCH  10  11
ENDBRANCH   1  10
TORSDOF 7
ENDMDL
MODEL 6
REMARK VINA RESULT:      -5.6      5.461      7.321
REMARK  Name = 
REMARK  7 active torsions:
REMARK  status: ('A' for Active; 'I' for Inactive)
REMARK    1  A    between atoms: O_2  and  C_3
REMARK    2  A    between atoms: C_8  and  O_9
REMARK    3  A    between atoms: O_9  and  C_10
REMARK    4  A    between atoms: C_10  and  C_11
REMARK    5  A    between atoms: C_11  and  C_13
REMARK    6  A    between atoms: C_13  and  O_14
REMARK    7  A    between atoms: O_14  and  C_15
REMARK                            x       y       z     vdW  Elec       q    Type
REMARK                         _______ _______ _______ _____ _____    ______ ____
ROOT
ATOM      1  O   UNL     1       3.627   5.428 -11.403  0.00  0.00    -0.470 OA
ENDROOT
BRANCH   1   3
ATOM      2  C   UNL     1       1.723   5.833 -10.122  0.00  0.00    +0.172 A 
ATOM      3  C   UNL     1       2.266   5.747 -11.375  0.00  0.00    +0.172 A 
ATOM      4  C   UNL     1       1.686   6.551 -12.350  0.00  0.00    +0.040 A 
ATOM      5  C   UNL     1       0.388   7.010 -12.161  0.00  0.00    +0.003 A 
ATOM      6  C   UNL     1      -0.319   6.684 -11.025  0.00  0.00    +0.003 A 
ATOM      7  C   UNL     1       0.384   6.170  -9.970  0.00  0.00    +0.040 A 
BRANCH   2   9
ATOM      8  C   UNL     1       2.471   4.142  -8.488  0.00  0.00    +0.253 C 
ATOM      9  O   UNL     1       2.395   5.485  -8.952  0.00  0.00    -0.468 OA
ENDBRANCH   2   9
ENDBRANCH   1   3
BRANCH   1  10
ATOM     10  C   UNL     1       4.526   6.307 -12.047  0.00  0.00    +0.242 C 
BRANCH  10  11
ATOM     11  C   UNL     1       5.136   7.244 -10.810  0.00  0.00    +0.239 C 
ATOM     12  O   UNL     1       5.599   5.997 -10.044  0.00  0.00    -0.215 OA
BRANCH  11  13
ATOM     13  C   UNL     1       6.579   7.429 -11.610  0.00  0.00    +0.247 C 
BRANCH  13  14
ATOM     14  O   UNL     1       7.426   6.402 -11.163  0.00  0.00    -0.430 OA
BRANCH  14  15
ATOM     15  C   UNL     1       8.180   5.797 -12.174  0.00  0.00    +0.441 C 
ATOM     16  O   UNL     1       9.440   5.897 -12.137  0.00  0.00    -0.223 OA
ATOM     17  N   UNL     1       7.696   4.725 -12.985  0.00  0.00    -0.048 NA
ENDBRANCH  14  15
ENDBRANCH  13  14
ENDBRANCH  11  13
ENDBRANCH  10  11
ENDBRANCH   1  10
TORSDOF 7
ENDMDL
MODEL 7
REMARK VINA RESULT:      -5.6      3.024      4.000
REMARK  Name = 
REMARK  7 active torsions:
REMARK  status: ('A' for Active; 'I' for Inactive)
REMARK    1  A    between atoms: O_2  and  C_3
REMARK    2  A    between atoms: C_8  and  O_9
REMARK    3  A    between atoms: O_9  and  C_10
REMARK    4  A    between atoms: C_10  and  C_11
REMARK    5  A    between atoms: C_11  and  C_13
REMARK    6  A    between atoms: C_13  and  O_14
REMARK    7  A    between atoms: O_14  and  C_15
REMARK                            x       y       z     vdW  Elec       q    Type
REMARK                         _______ _______ _______ _____ _____    ______ ____
ROOT
ATOM      1  O   UNL     1       1.109   5.500  -4.069  0.00  0.00    -0.470 OA
ENDROOT
BRANCH   1   3
ATOM      2  C   UNL     1      -1.160   5.963  -4.329  0.00  0.00    +0.172 A 
ATOM      3  C   UNL     1      -0.045   5.360  -4.846  0.00  0.00    +0.172 A 
ATOM      4  C   UNL     1       0.016   5.272  -6.232  0.00  0.00    +0.040 A 
ATOM      5  C   UNL     1      -1.163   5.349  -6.965  0.00  0.00    +0.003 A 
ATOM      6  C   UNL     1      -2.377   5.518  -6.337  0.00  0.00    +0.003 A 
ATOM      7  C   UNL     1      -2.359   5.913  -5.028  0.00  0.00    +0.040 A 
BRANCH   2   9
ATOM      8  C   UNL     1      -2.395   7.182  -2.576  0.00  0.00    +0.253 C 
ATOM      9  O   UNL     1      -1.221   6.542  -3.064  0.00  0.00    -0.468 OA
ENDBRANCH   2   9
ENDBRANCH   1   3
BRANCH   1  10
ATOM     10  C   UNL     1       2.009   6.550  -4.357  0.00  0.00    +0.242 C 
BRANCH  10  11
ATOM     11  C   UNL     1       3.450   5.775  -4.678  0.00  0.00    +0.239 C 
ATOM     12  O   UNL     1       4.069   7.071  -5.219  0.00  0.00    -0.215 OA
BRANCH  11  13
ATOM     13  C   UNL     1       3.980   6.036  -3.126  0.00  0.00    +0.247 C 
BRANCH  13  14
ATOM     14  O   UNL     1       3.958   4.792  -2.475  0.00  0.00    -0.430 OA
BRANCH  14  15
ATOM     15  C   UNL     1       3.475   4.837  -1.164  0.00  0.00    +0.441 C 
ATOM     16  O   UNL     1       4.150   5.448  -0.286  0.00  0.00    -0.223 OA
ATOM     17  N   UNL     1       2.101   4.642  -0.823  0.00  0.00    -0.048 NA
ENDBRANCH  14  15
ENDBRANCH  13  14
ENDBRANCH  11  13
ENDBRANCH  10  11
ENDBRANCH   1  10
TORSDOF 7
ENDMDL
MODEL 8
REMARK VINA RESULT:      -5.5      5.069      8.673
REMARK  Name = 
REMARK  7 active torsions:
REMARK  status: ('A' for Active; 'I' for Inactive)
REMARK    1  A    between atoms: O_2  and  C_3
REMARK    2  A    between atoms: C_8  and  O_9
REMARK    3  A    between atoms: O_9  and  C_10
REMARK    4  A    between atoms: C_10  and  C_11
REMARK    5  A    between atoms: C_11  and  C_13
REMARK    6  A    between atoms: C_13  and  O_14
REMARK    7  A    between atoms: O_14  and  C_15
REMARK                            x       y       z     vdW  Elec       q    Type
REMARK                         _______ _______ _______ _____ _____    ______ ____
ROOT
ATOM      1  O   UNL     1       4.597   5.400 -10.565  0.00  0.00    -0.470 OA
ENDROOT
BRANCH   1   3
ATOM      2  C   UNL     1       6.049   5.286 -12.384  0.00  0.00    +0.172 A 
ATOM      3  C   UNL     1       5.904   5.524 -11.045  0.00  0.00    +0.172 A 
ATOM      4  C   UNL     1       6.805   6.422 -10.482  0.00  0.00    +0.040 A 
ATOM      5  C   UNL     1       8.014   6.657 -11.126  0.00  0.00    +0.003 A 
ATOM      6  C   UNL     1       8.322   6.021 -12.308  0.00  0.00    +0.003 A 
ATOM      7  C   UNL     1       7.299   5.406 -12.977  0.00  0.00    +0.040 A 
BRANCH   2   9
ATOM      8  C   UNL     1       4.157   5.671 -13.919  0.00  0.00    +0.253 C 
ATOM      9  O   UNL     1       5.033   4.805 -13.208  0.00  0.00    -0.468 OA
ENDBRANCH   2   9
ENDBRANCH   1   3
BRANCH   1  10
ATOM     10  C   UNL     1       4.071   6.414  -9.734  0.00  0.00    +0.242 C 
BRANCH  10  11
ATOM     11  C   UNL     1       2.630   5.782  -9.184  0.00  0.00    +0.239 C 
ATOM     12  O   UNL     1       2.314   5.198 -10.567  0.00  0.00    -0.215 OA
BRANCH  11  13
ATOM     13  C   UNL     1       3.393   4.406  -8.650  0.00  0.00    +0.247 C 
BRANCH  13  14
ATOM     14  O   UNL     1       2.430   3.647  -7.966  0.00  0.00    -0.430 OA
BRANCH  14  15
ATOM     15  C   UNL     1       2.196   4.065  -6.652  0.00  0.00    +0.441 C 
ATOM     16  O   UNL     1       3.142   4.603  -6.006  0.00  0.00    -0.223 OA
ATOM     17  N   UNL     1       0.895   4.338  -6.131  0.00  0.00    -0.048 NA
ENDBRANCH  14  15
ENDBRANCH  13  14
ENDBRANCH  11  13
ENDBRANCH  10  11
ENDBRANCH   1  10
TORSDOF 7
ENDMDL
MODEL 9
REMARK VINA RESULT:      -5.5      2.344      3.321
REMARK  Name = 
REMARK  7 active torsions:
REMARK  status: ('A' for Active; 'I' for Inactive)
REMARK    1  A    between atoms: O_2  and  C_3
REMARK    2  A    between atoms: C_8  and  O_9
REMARK    3  A    between atoms: O_9  and  C_10
REMARK    4  A    between atoms: C_10  and  C_11
REMARK    5  A    between atoms: C_11  and  C_13
REMARK    6  A    between atoms: C_13  and  O_14
REMARK    7  A    between atoms: O_14  and  C_15
REMARK                            x       y       z     vdW  Elec       q    Type
REMARK                         _______ _______ _______ _____ _____    ______ ____
ROOT
ATOM      1  O   UNL     1       0.763   6.364  -3.830  0.00  0.00    -0.470 OA
ENDROOT
BRANCH   1   3
ATOM      2  C   UNL     1      -1.430   6.656  -4.562  0.00  0.00    +0.172 A 
ATOM      3  C   UNL     1      -0.253   5.975  -4.709  0.00  0.00    +0.172 A 
ATOM      4  C   UNL     1       0.030   5.511  -5.989  0.00  0.00    +0.040 A 
ATOM      5  C   UNL     1      -1.014   5.341  -6.891  0.00  0.00    +0.003 A 
ATOM      6  C   UNL     1      -2.312   5.633  -6.534  0.00  0.00    +0.003 A 
ATOM      7  C   UNL     1      -2.502   6.373  -5.399  0.00  0.00    +0.040 A 
BRANCH   2   9
ATOM      8  C   UNL     1      -2.378   7.181  -2.346  0.00  0.00    +0.253 C 
ATOM      9  O   UNL     1      -1.690   7.558  -3.533  0.00  0.00    -0.468 OA
ENDBRANCH   2   9
ENDBRANCH   1   3
BRANCH   1  10
ATOM     10  C   UNL     1       1.081   5.529  -2.736  0.00  0.00    +0.242 C 
BRANCH  10  11
ATOM     11  C   UNL     1       2.597   6.038  -2.264  0.00  0.00    +0.239 C 
ATOM     12  O   UNL     1       2.777   4.800  -1.375  0.00  0.00    -0.215 OA
BRANCH  11  13
ATOM     13  C   UNL     1       3.292   5.326  -3.593  0.00  0.00    +0.247 C 
BRANCH  13  14
ATOM     14  O   UNL     1       4.451   6.061  -3.888  0.00  0.00    -0.430 OA
BRANCH  14  15
ATOM     15  C   UNL     1       4.216   7.249  -4.587  0.00  0.00    +0.441 C 
ATOM     16  O   UNL     1       5.007   8.222  -4.419  0.00  0.00    -0.223 OA
ATOM     17  N   UNL     1       3.439   7.320  -5.784  0.00  0.00    -0.048 NA
ENDBRANCH  14  15
ENDBRANCH  13  14
ENDBRANCH  11  13
ENDBRANCH  10  11
ENDBRANCH   1  10
TORSDOF 7
ENDMDL
