MODEL 1
REMARK VINA RESULT:      -5.0      0.000      0.000
REMARK  Name = 
REMARK  5 active torsions:
REMARK  status: ('A' for Active; 'I' for Inactive)
REMARK    1  A    between atoms: C_2  and  C_4
REMARK    2  A    between atoms: C_4  and  C_6
REMARK    3  A    between atoms: C_6  and  C_8
REMARK    4  A    between atoms: C_8  and  C_10
REMARK    5  A    between atoms: C_10  and  C_12
REMARK                            x       y       z     vdW  Elec       q    Type
REMARK                         _______ _______ _______ _____ _____    ______ ____
ROOT
ATOM      1  C   UNL     1       0.237   5.150  -3.117  0.00  0.00    +0.226 C 
ATOM      2  O   UNL     1       0.536   5.424  -4.557  0.00  0.00    -0.217 OA
ENDROOT
BRANCH   1   3
ATOM      3  C   UNL     1      -0.946   6.372  -2.848  0.00  0.00    +0.287 C 
ATOM      4  O   UNL     1      -1.783   6.123  -4.084  0.00  0.00    -0.208 OA
BRANCH   3   6
ATOM      5  O   UNL     1      -1.847   5.352  -1.340  0.00  0.00    -0.243 OA
ATOM      6  C   UNL     1      -1.837   5.341  -1.969  0.00  0.00    +0.397 C 
ATOM      7  O   UNL     1      -2.874   4.736  -2.696  0.00  0.00    -0.243 OA
ENDBRANCH   3   6
ENDBRANCH   1   3
BRANCH   1   8
ATOM      8  C   UNL     1       1.446   6.175  -2.465  0.00  0.00    +0.218 C 
ATOM      9  O   UNL     1       2.518   5.766  -3.431  0.00  0.00    -0.217 OA
BRANCH   8  10
ATOM     10  C   UNL     1       1.818   5.035  -1.236  0.00  0.00    +0.218 C 
ATOM     11  O   UNL     1       1.215   5.934  -0.179  0.00  0.00    -0.217 OA
BRANCH  10  12
ATOM     12  C   UNL     1       3.319   5.636  -0.944  0.00  0.00    +0.217 C 
ATOM     13  O   UNL     1       3.928   4.412  -0.613  0.00  0.00    -0.217 OA
ENDBRANCH  10  12
ENDBRANCH   8  10
ENDBRANCH   1   8
TORSDOF 5
ENDMDL
MODEL 2
REMARK VINA RESULT:      -5.0      2.623      3.568
REMARK  Name = 
REMARK  5 active torsions:
REMARK  status: ('A' for Active; 'I' for Inactive)
REMARK    1  A    between atoms: C_2  and  C_4
REMARK    2  A    between atoms: C_4  and  C_6
REMARK    3  A    between atoms: C_6  and  C_8
REMARK    4  A    between atoms: C_8  and  C_10
REMARK    5  A    between atoms: C_10  and  C_12
REMARK                            x       y       z     vdW  Elec       q    Type
REMARK                         _______ _______ _______ _____ _____    ______ ____
ROOT
ATOM      1  C   UNL     1      -1.426   5.513  -5.057  0.00  0.00    +0.226 C 
ATOM      2  O   UNL     1      -2.312   6.313  -5.960  0.00  0.00    -0.217 OA
ENDROOT
BRANCH   1   3
ATOM      3  C   UNL     1      -1.391   6.573  -3.702  0.00  0.00    +0.287 C 
ATOM      4  O   UNL     1      -2.879   6.831  -3.603  0.00  0.00    -0.208 OA
BRANCH   3   6
ATOM      5  O   UNL     1      -1.006   5.131  -2.324  0.00  0.00    -0.243 OA
ATOM      6  C   UNL     1      -1.487   5.310  -2.689  0.00  0.00    +0.397 C 
ATOM      7  O   UNL     1      -2.804   4.937  -2.382  0.00  0.00    -0.243 OA
ENDBRANCH   3   6
ENDBRANCH   1   3
BRANCH   1   8
ATOM      8  C   UNL     1       0.060   6.166  -5.607  0.00  0.00    +0.218 C 
ATOM      9  O   UNL     1      -0.229   5.972  -7.067  0.00  0.00    -0.217 OA
BRANCH   8  10
ATOM     10  C   UNL     1       0.868   4.674  -5.349  0.00  0.00    +0.218 C 
ATOM     11  O   UNL     1       1.697   5.282  -4.239  0.00  0.00    -0.217 OA
BRANCH  10  12
ATOM     12  C   UNL     1       2.053   4.968  -6.447  0.00  0.00    +0.217 C 
ATOM     13  O   UNL     1       2.233   3.636  -6.861  0.00  0.00    -0.217 OA
ENDBRANCH  10  12
ENDBRANCH   8  10
ENDBRANCH   1   8
TORSDOF 5
ENDMDL
MODEL 3
REMARK VINA RESULT:      -4.9      1.353      4.577
REMARK  Name = 
REMARK  5 active torsions:
REMARK  status: ('A' for Active; 'I' for Inactive)
REMARK    1  A    between atoms: C_2  and  C_4
REMARK    2  A    between atoms: C_4  and  C_6
REMARK    3  A    between atoms: C_6  and  C_8
REMARK    4  A    between atoms: C_8  and  C_10
REMARK    5  A    between atoms: C_10  and  C_12
REMARK                            x       y       z     vdW  Elec       q    Type
REMARK                         _______ _______ _______ _____ _____    ______ ____
ROOT
ATOM      1  C   UNL     1       2.133   6.494  -2.670  0.00  0.00    +0.226 C 
ATOM      2  O   UNL     1       2.640   7.228  -3.872  0.00  0.00    -0.217 OA
ENDROOT
BRANCH   1   3
ATOM      3  C   UNL     1       3.187   5.134  -2.720  0.00  0.00    +0.287 C 
ATOM      4  O   UNL     1       4.489   5.887  -2.887  0.00  0.00    -0.208 OA
BRANCH   3   6
ATOM      5  O   UNL     1       3.020   4.742  -0.734  0.00  0.00    -0.243 OA
ATOM      6  C   UNL     1       3.319   5.154  -1.104  0.00  0.00    +0.397 C 
ATOM      7  O   UNL     1       4.443   5.856  -0.642  0.00  0.00    -0.243 OA
ENDBRANCH   3   6
ENDBRANCH   1   3
BRANCH   1   8
ATOM      8  C   UNL     1       0.926   5.590  -3.484  0.00  0.00    +0.218 C 
ATOM      9  O   UNL     1       0.536   6.688  -4.429  0.00  0.00    -0.217 OA
BRANCH   8  10
ATOM     10  C   UNL     1      -0.228   5.939  -2.262  0.00  0.00    +0.218 C 
ATOM     11  O   UNL     1      -0.073   4.552  -1.678  0.00  0.00    -0.217 OA
BRANCH  10  12
ATOM     12  C   UNL     1      -1.520   5.460  -3.154  0.00  0.00    +0.217 C 
ATOM     13  O   UNL     1      -2.255   4.897  -2.096  0.00  0.00    -0.217 OA
ENDBRANCH  10  12
ENDBRANCH   8  10
ENDBRANCH   1   8
TORSDOF 5
ENDMDL
MODEL 4
REMARK VINA RESULT:      -4.9      2.178      3.643
REMARK  Name = 
REMARK  5 active torsions:
REMARK  status: ('A' for Active; 'I' for Inactive)
REMARK    1  A    between atoms: C_2  and  C_4
REMARK    2  A    between atoms: C_4  and  C_6
REMARK    3  A    between atoms: C_6  and  C_8
REMARK    4  A    between atoms: C_8  and  C_10
REMARK    5  A    between atoms: C_10  and  C_12
REMARK                            x       y       z     vdW  Elec       q    Type
REMARK                         _______ _______ _______ _____ _____    ______ ____
ROOT
ATOM      1  C   UNL     1      -0.567   5.961  -2.768  0.00  0.00    +0.226 C 
ATOM      2  O   UNL     1      -0.219   4.906  -1.765  0.00  0.00    -0.217 OA
ENDROOT
BRANCH   1   3
ATOM      3  C   UNL     1      -1.999   5.257  -3.415  0.00  0.00    +0.287 C 
ATOM      4  O   UNL     1      -2.605   4.786  -2.111  0.00  0.00    -0.208 OA
BRANCH   3   6
ATOM      5  O   UNL     1      -2.820   7.072  -3.812  0.00  0.00    -0.243 OA
ATOM      6  C   UNL     1      -2.764   6.684  -3.320  0.00  0.00    +0.397 C 
ATOM      7  O   UNL     1      -3.631   6.782  -2.220  0.00  0.00    -0.243 OA
ENDBRANCH   3   6
ENDBRANCH   1   3
BRANCH   1   8
ATOM      8  C   UNL     1       0.342   5.308  -4.066  0.00  0.00    +0.218 C 
ATOM      9  O   UNL     1       1.644   5.265  -3.322  0.00  0.00    -0.217 OA
BRANCH   8  10
ATOM     10  C   UNL     1       0.547   6.863  -4.767  0.00  0.00    +0.218 C 
ATOM     11  O   UNL     1      -0.333   6.483  -5.937  0.00  0.00    -0.217 OA
BRANCH  10  12
ATOM     12  C   UNL     1       1.900   6.456  -5.605  0.00  0.00    +0.217 C 
ATOM     13  O   UNL     1       1.646   7.257  -6.732  0.00  0.00    -0.217 OA
ENDBRANCH  10  12
ENDBRANCH   8  10
ENDBRANCH   1   8
TORSDOF 5
ENDMDL
MODEL 5
REMARK VINA RESULT:      -4.8      1.938      4.598
REMARK  Name = 
REMARK  5 active torsions:
REMARK  status: ('A' for Active; 'I' for Inactive)
REMARK    1  A    between atoms: C_2  and  C_4
REMARK    2  A    between atoms: C_4  and  C_6
REMARK    3  A    between atoms: C_6  and  C_8
REMARK    4  A    between atoms: C_8  and  C_10
REMARK    5  A    between atoms: C_10  and  C_12
REMARK                            x       y       z     vdW  Elec       q    Type
REMARK                         _______ _______ _______ _____ _____    ______ ____
ROOT
ATOM      1  C   UNL     1       0.633   6.804  -4.686  0.00  0.00    +0.226 C 
ATOM      2  O   UNL     1       0.660   6.874  -6.181  0.00  0.00    -0.217 OA
ENDROOT
BRANCH   1   3
ATOM      3  C   UNL     1       1.983   5.763  -4.440  0.00  0.00    +0.287 C 
ATOM      4  O   UNL     1       2.954   6.462  -5.367  0.00  0.00    -0.208 OA
BRANCH   3   6
ATOM      5  O   UNL     1       2.381   6.470  -2.578  0.00  0.00    -0.243 OA
ATOM      6  C   UNL     1       2.463   6.655  -3.174  0.00  0.00    +0.397 C 
ATOM      7  O   UNL     1       3.422   7.625  -3.504  0.00  0.00    -0.243 OA
ENDBRANCH   3   6
ENDBRANCH   1   3
BRANCH   1   8
ATOM      8  C   UNL     1      -0.425   5.460  -4.570  0.00  0.00    +0.218 C 
ATOM      9  O   UNL     1      -1.422   5.976  -5.565  0.00  0.00    -0.217 OA
BRANCH   8  10
ATOM     10  C   UNL     1      -1.169   6.106  -3.165  0.00  0.00    +0.218 C 
ATOM     11  O   UNL     1      -0.585   5.001  -2.312  0.00  0.00    -0.217 OA
BRANCH  10  12
ATOM     12  C   UNL     1      -2.570   5.269  -3.356  0.00  0.00    +0.217 C 
ATOM     13  O   UNL     1      -2.724   4.891  -2.011  0.00  0.00    -0.217 OA
ENDBRANCH  10  12
ENDBRANCH   8  10
ENDBRANCH   1   8
TORSDOF 5
ENDMDL
MODEL 6
REMARK VINA RESULT:      -4.8     10.303     12.485
REMARK  Name = 
REMARK  5 active torsions:
REMARK  status: ('A' for Active; 'I' for Inactive)
REMARK    1  A    between atoms: C_2  and  C_4
REMARK    2  A    between atoms: C_4  and  C_6
REMARK    3  A    between atoms: C_6  and  C_8
REMARK    4  A    between atoms: C_8  and  C_10
REMARK    5  A    between atoms: C_10  and  C_12
REMARK                            x       y       z     vdW  Elec       q    Type
REMARK                         _______ _______ _______ _____ _____    ______ ____
ROOT
ATOM      1  C   UNL     1       4.747   5.083 -12.130  0.00  0.00    +0.226 C 
ATOM      2  O   UNL     1       4.588   5.370 -10.670  0.00  0.00    -0.217 OA
ENDROOT
BRANCH   1   3
ATOM      3  C   UNL     1       5.884   6.315 -12.524  0.00  0.00    +0.287 C 
ATOM      4  O   UNL     1       6.819   6.117 -11.351  0.00  0.00    -0.208 OA
BRANCH   3   6
ATOM      5  O   UNL     1       6.703   5.279 -14.068  0.00  0.00    -0.243 OA
ATOM      6  C   UNL     1       6.723   5.271 -13.439  0.00  0.00    +0.397 C 
ATOM      7  O   UNL     1       7.789   4.662 -12.759  0.00  0.00    -0.243 OA
ENDBRANCH   3   6
ENDBRANCH   1   3
BRANCH   1   8
ATOM      8  C   UNL     1       3.469   6.089 -12.670  0.00  0.00    +0.218 C 
ATOM      9  O   UNL     1       2.453   5.564 -11.700  0.00  0.00    -0.217 OA
BRANCH   8  10
ATOM     10  C   UNL     1       3.107   5.016 -13.961  0.00  0.00    +0.218 C 
ATOM     11  O   UNL     1       3.554   6.042 -14.978  0.00  0.00    -0.217 OA
BRANCH  10  12
ATOM     12  C   UNL     1       1.544   5.499 -14.105  0.00  0.00    +0.217 C 
ATOM     13  O   UNL     1       1.069   4.343 -14.750  0.00  0.00    -0.217 OA
ENDBRANCH  10  12
ENDBRANCH   8  10
ENDBRANCH   1   8
TORSDOF 5
ENDMDL
MODEL 7
REMARK VINA RESULT:      -4.8      9.075     10.524
REMARK  Name = 
REMARK  5 active torsions:
REMARK  status: ('A' for Active; 'I' for Inactive)
REMARK    1  A    between atoms: C_2  and  C_4
REMARK    2  A    between atoms: C_4  and  C_6
REMARK    3  A    between atoms: C_6  and  C_8
REMARK    4  A    between atoms: C_8  and  C_10
REMARK    5  A    between atoms: C_10  and  C_12
REMARK                            x       y       z     vdW  Elec       q    Type
REMARK                         _______ _______ _______ _____ _____    ______ ____
ROOT
ATOM      1  C   UNL     1       4.004   6.723 -11.050  0.00  0.00    +0.226 C 
ATOM      2  O   UNL     1       3.958   7.027  -9.586  0.00  0.00    -0.217 OA
ENDROOT
BRANCH   1   3
ATOM      3  C   UNL     1       2.726   5.573 -11.128  0.00  0.00    +0.287 C 
ATOM      4  O   UNL     1       1.687   6.366 -10.366  0.00  0.00    -0.208 OA
BRANCH   3   6
ATOM      5  O   UNL     1       2.416   5.950 -13.100  0.00  0.00    -0.243 OA
ATOM      6  C   UNL     1       2.235   6.188 -12.546  0.00  0.00    +0.397 C 
ATOM      7  O   UNL     1       1.082   6.982 -12.443  0.00  0.00    -0.243 OA
ENDBRANCH   3   6
ENDBRANCH   1   3
BRANCH   1   8
ATOM      8  C   UNL     1       5.146   5.448 -10.952  0.00  0.00    +0.218 C 
ATOM      9  O   UNL     1       6.043   6.135  -9.965  0.00  0.00    -0.217 OA
BRANCH   8  10
ATOM     10  C   UNL     1       5.941   5.986 -12.375  0.00  0.00    +0.218 C 
ATOM     11  O   UNL     1       5.470   4.766 -13.134  0.00  0.00    -0.217 OA
BRANCH  10  12
ATOM     12  C   UNL     1       7.369   5.258 -12.016  0.00  0.00    +0.217 C 
ATOM     13  O   UNL     1       7.626   4.750 -13.302  0.00  0.00    -0.217 OA
ENDBRANCH  10  12
ENDBRANCH   8  10
ENDBRANCH   1   8
TORSDOF 5
ENDMDL
MODEL 8
REMARK VINA RESULT:      -4.8      8.811     10.931
REMARK  Name = 
REMARK  5 active torsions:
REMARK  status: ('A' for Active; 'I' for Inactive)
REMARK    1  A    between atoms: C_2  and  C_4
REMARK    2  A    between atoms: C_4  and  C_6
REMARK    3  A    between atoms: C_6  and  C_8
REMARK    4  A    between atoms: C_8  and  C_10
REMARK    5  A    between atoms: C_10  and  C_12
REMARK                            x       y       z     vdW  Elec       q    Type
REMARK                         _______ _______ _______ _____ _____    ______ ____
ROOT
ATOM      1  C   UNL     1       5.708   5.508 -10.478  0.00  0.00    +0.226 C 
ATOM      2  O   UNL     1       6.500   5.977  -9.299  0.00  0.00    -0.217 OA
ENDROOT
BRANCH   1   3
ATOM      3  C   UNL     1       6.421   6.498 -11.694  0.00  0.00    +0.287 C 
ATOM      4  O   UNL     1       7.865   6.336 -11.270  0.00  0.00    -0.208 OA
BRANCH   3   6
ATOM      5  O   UNL     1       6.098   5.128 -13.158  0.00  0.00    -0.243 OA
ATOM      6  C   UNL     1       6.515   5.228 -12.697  0.00  0.00    +0.397 C 
ATOM      7  O   UNL     1       7.787   4.637 -12.735  0.00  0.00    -0.243 OA
ENDBRANCH   3   6
ENDBRANCH   1   3
BRANCH   1   8
ATOM      8  C   UNL     1       4.425   6.633 -10.315  0.00  0.00    +0.218 C 
ATOM      9  O   UNL     1       4.207   6.391  -8.850  0.00  0.00    -0.217 OA
BRANCH   8  10
ATOM     10  C   UNL     1       3.283   5.488 -10.893  0.00  0.00    +0.218 C 
ATOM     11  O   UNL     1       3.119   6.261 -12.183  0.00  0.00    -0.217 OA
BRANCH  10  12
ATOM     12  C   UNL     1       1.985   6.244 -10.230  0.00  0.00    +0.217 C 
ATOM     13  O   UNL     1       1.210   5.090 -10.015  0.00  0.00    -0.217 OA
ENDBRANCH  10  12
ENDBRANCH   8  10
ENDBRANCH   1   8
TORSDOF 5
ENDMDL
MODEL 9
REMARK VINA RESULT:      -4.8      1.494      2.733
REMARK  Name = 
REMARK  5 active torsions:
REMARK  status: ('A' for Active; 'I' for Inactive)
REMARK    1  A    between atoms: C_2  and  C_4
REMARK    2  A    between atoms: C_4  and  C_6
REMARK    3  A    between atoms: C_6  and  C_8
REMARK    4  A    between atoms: C_8  and  C_10
REMARK    5  A    between atoms: C_10  and  C_12
REMARK                            x       y       z     vdW  Elec       q    Type
REMARK                         _______ _______ _______ _____ _____    ______ ____
ROOT
ATOM      1  C   UNL     1      -0.874   6.049  -2.812  0.00  0.00    +0.226 C 
ATOM      2  O   UNL     1      -1.796   4.983  -2.307  0.00  0.00    -0.217 OA
ENDROOT
BRANCH   1   3
ATOM      3  C   UNL     1      -1.016   5.750  -4.502  0.00  0.00    +0.287 C 
ATOM      4  O   UNL     1      -2.524   5.656  -4.569  0.00  0.00    -0.208 OA
BRANCH   3   6
ATOM      5  O   UNL     1      -0.546   7.658  -5.014  0.00  0.00    -0.243 OA
ATOM      6  C   UNL     1      -1.047   7.344  -4.799  0.00  0.00    +0.397 C 
ATOM      7  O   UNL     1      -2.343   7.861  -4.947  0.00  0.00    -0.243 OA
ENDBRANCH   3   6
ENDBRANCH   1   3
BRANCH   1   8
ATOM      8  C   UNL     1       0.559   5.109  -2.765  0.00  0.00    +0.218 C 
ATOM      9  O   UNL     1       0.215   4.386  -1.496  0.00  0.00    -0.217 OA
BRANCH   8  10
ATOM     10  C   UNL     1       1.437   6.398  -2.046  0.00  0.00    +0.218 C 
ATOM     11  O   UNL     1       2.147   6.681  -3.352  0.00  0.00    -0.217 OA
BRANCH  10  12
ATOM     12  C   UNL     1       2.676   5.449  -1.535  0.00  0.00    +0.217 C 
ATOM     13  O   UNL     1       2.862   6.072  -0.288  0.00  0.00    -0.217 OA
ENDBRANCH  10  12
ENDBRANCH   8  10
ENDBRANCH   1   8
TORSDOF 5
ENDMDL
