MODEL 1
REMARK VINA RESULT:      -9.5      0.000      0.000
REMARK  Name = 
REMARK  9 active torsions:
REMARK  status: ('A' for Active; 'I' for Inactive)
REMARK    1  A    between atoms: N_5  and  C_6
REMARK    2  A    between atoms: C_12  and  C_13
REMARK    3  A    between atoms: C_13  and  O_14
REMARK    4  A    between atoms: C_13  and  C_34
REMARK    5  A    between atoms: O_14  and  C_15
REMARK    6  A    between atoms: C_17  and  C_18
REMARK    7  A    between atoms: C_21  and  C_22
REMARK    8  A    between atoms: C_22  and  CA_23
REMARK    9  A    between atoms: CA_23  and  C_25
REMARK                            x       y       z     vdW  Elec       q    Type
REMARK                         _______ _______ _______ _____ _____    ______ ____
ROOT
ATOM      1  O   UNL     1       1.009   5.428  -7.978  0.00  0.00    -0.450 OA
ENDROOT
BRANCH   1   2
ATOM      2  C   UNL     1       1.083   6.147  -6.766  0.00  0.00    +0.229 A 
ATOM      3  N   UNL     1       2.277   6.416  -6.185  0.00  0.00    -0.176 NA
ATOM      4  C   UNL     1       2.434   6.671  -4.863  0.00  0.00    +0.259 A 
ATOM      5  N   UNL     1       3.604   6.153  -4.208  0.00  0.00    -0.086 NA
ATOM      6  N   UNL     1       1.317   6.937  -4.190  0.00  0.00    -0.211 NA
ATOM      7  C   UNL     1       0.071   6.647  -4.609  0.00  0.00    +0.089 A 
ATOM      8  C   UNL     1      -0.029   6.249  -5.936  0.00  0.00    +0.077 A 
BRANCH   7   9
ATOM      9  C   UNL     1      -0.919   6.125  -3.646  0.00  0.00    +0.018 A 
ATOM     10  C   UNL     1      -2.097   6.832  -3.419  0.00  0.00    +0.001 A 
ATOM     11  C   UNL     1      -2.685   6.904  -2.159  0.00  0.00    -0.004 A 
ATOM     12  C   UNL     1      -1.865   6.716  -1.076  0.00  0.00    -0.020 A 
ATOM     13  C   UNL     1      -0.871   5.767  -1.242  0.00  0.00    -0.004 A 
ATOM     14  C   UNL     1      -0.506   5.395  -2.533  0.00  0.00    +0.001 A 
BRANCH  12  15
ATOM     15  C   UNL     1      -2.266   7.306   0.205  0.00  0.00    +0.057 C 
BRANCH  15  16
ATOM     16  CA  UNL     1      -0.915   7.185   1.147  0.00  0.00    +0.199 C 
ATOM     17  N   UNL     1      -1.765   6.833   2.437  0.00  0.00    -0.120 NA
BRANCH  16  18
ATOM     18  C   UNL     1      -0.902   8.770   1.486  0.00  0.00    +0.382 C 
ATOM     19  OXT UNL     1      -2.235   9.186   1.593  0.00  0.00    -0.244 OA
ATOM     20  O   UNL     1      -0.192   9.488   0.758  0.00  0.00    -0.244 OA
ENDBRANCH  16  18
ENDBRANCH  15  16
ENDBRANCH  12  15
ENDBRANCH   7   9
ENDBRANCH   1   2
BRANCH   1  21
ATOM     21  C   UNL     1       2.470   5.453  -8.513  0.00  0.00    +0.285 C 
BRANCH  21  23
ATOM     22  C   UNL     1       2.929   6.137 -10.938  0.00  0.00    +0.083 A 
ATOM     23  C   UNL     1       2.096   5.526 -10.090  0.00  0.00    +0.044 A 
ATOM     24  C   UNL     1       0.764   5.206 -10.336  0.00  0.00    +0.002 A 
ATOM     25  C   UNL     1       0.310   5.412 -11.633  0.00  0.00    +0.011 A 
ATOM     26  C   UNL     1       1.034   6.263 -12.457  0.00  0.00    +0.059 A 
ATOM     27 CL   UNL     1       0.270   7.252 -13.693  0.00  0.00    -0.082 Cl
ATOM     28  C   UNL     1       2.367   6.513 -12.155  0.00  0.00    +0.030 A 
BRANCH  22  32
ATOM     29  C   UNL     1       7.197   5.284 -12.789  0.00  0.00    +0.054 C 
ATOM     30  C   UNL     1       6.248   5.493 -11.885  0.00  0.00    +0.081 A 
ATOM     31  N   UNL     1       4.925   5.301 -11.957  0.00  0.00    -0.169 NA
ATOM     32  N   UNL     1       4.302   5.703 -10.844  0.00  0.00    -0.229 N 
ATOM     33  C   UNL     1       5.173   6.672 -10.429  0.00  0.00    +0.102 A 
ATOM     34  C   UNL     1       6.466   6.292 -10.767  0.00  0.00    +0.037 A 
ENDBRANCH  22  32
ENDBRANCH  21  23
BRANCH  21  35
ATOM     35  C   UNL     1       2.651   3.805  -8.529  0.00  0.00    +0.438 C 
ATOM     36  F   UNL     1       1.796   3.267  -9.375  0.00  0.00    -0.166 F 
ATOM     37  F   UNL     1       3.984   3.678  -8.871  0.00  0.00    -0.166 F 
ATOM     38  F   UNL     1       2.382   3.405  -7.248  0.00  0.00    -0.166 F 
ENDBRANCH  21  35
ENDBRANCH   1  21
TORSDOF 9
ENDMDL
MODEL 2
REMARK VINA RESULT:      -9.1      4.493     11.276
REMARK  Name = 
REMARK  9 active torsions:
REMARK  status: ('A' for Active; 'I' for Inactive)
REMARK    1  A    between atoms: N_5  and  C_6
REMARK    2  A    between atoms: C_12  and  C_13
REMARK    3  A    between atoms: C_13  and  O_14
REMARK    4  A    between atoms: C_13  and  C_34
REMARK    5  A    between atoms: O_14  and  C_15
REMARK    6  A    between atoms: C_17  and  C_18
REMARK    7  A    between atoms: C_21  and  C_22
REMARK    8  A    between atoms: C_22  and  CA_23
REMARK    9  A    between atoms: CA_23  and  C_25
REMARK                            x       y       z     vdW  Elec       q    Type
REMARK                         _______ _______ _______ _____ _____    ______ ____
ROOT
ATOM      1  O   UNL     1       3.189   6.567  -2.906  0.00  0.00    -0.450 OA
ENDROOT
BRANCH   1   2
ATOM      2  C   UNL     1       2.737   6.804  -4.221  0.00  0.00    +0.229 A 
ATOM      3  N   UNL     1       1.420   6.972  -4.487  0.00  0.00    -0.176 NA
ATOM      4  C   UNL     1       0.859   6.749  -5.701  0.00  0.00    +0.259 A 
ATOM      5  N   UNL     1      -0.451   6.159  -5.743  0.00  0.00    -0.086 NA
ATOM      6  N   UNL     1       1.710   6.633  -6.717  0.00  0.00    -0.211 NA
ATOM      7  C   UNL     1       3.028   6.381  -6.601  0.00  0.00    +0.089 A 
ATOM      8  C   UNL     1       3.537   6.480  -5.312  0.00  0.00    +0.077 A 
BRANCH   7   9
ATOM      9  C   UNL     1       3.677   5.444  -7.540  0.00  0.00    +0.018 A 
ATOM     10  C   UNL     1       5.065   5.422  -7.640  0.00  0.00    +0.001 A 
ATOM     11  C   UNL     1       5.715   5.211  -8.853  0.00  0.00    -0.004 A 
ATOM     12  C   UNL     1       5.023   5.524  -9.995  0.00  0.00    -0.020 A 
ATOM     13  C   UNL     1       3.668   5.244  -9.962  0.00  0.00    -0.004 A 
ATOM     14  C   UNL     1       3.044   5.082  -8.727  0.00  0.00    +0.001 A 
BRANCH  12  15
ATOM     15  C   UNL     1       5.791   5.850 -11.200  0.00  0.00    +0.057 C 
BRANCH  15  16
ATOM     16  CA  UNL     1       7.311   6.167 -10.638  0.00  0.00    +0.199 C 
ATOM     17  N   UNL     1       7.171   7.716 -10.942  0.00  0.00    -0.120 NA
BRANCH  16  18
ATOM     18  C   UNL     1       8.000   5.863 -12.074  0.00  0.00    +0.382 C 
ATOM     19  OXT UNL     1       7.469   4.656 -12.546  0.00  0.00    -0.244 OA
ATOM     20  O   UNL     1       9.242   5.935 -12.119  0.00  0.00    -0.244 OA
ENDBRANCH  16  18
ENDBRANCH  15  16
ENDBRANCH  12  15
ENDBRANCH   7   9
ENDBRANCH   1   2
BRANCH   1  21
ATOM     21  C   UNL     1       1.904   6.710  -2.040  0.00  0.00    +0.285 C 
BRANCH  21  23
ATOM     22  C   UNL     1       2.121   7.912   0.211  0.00  0.00    +0.083 A 
ATOM     23  C   UNL     1       2.652   7.024  -0.635  0.00  0.00    +0.044 A 
ATOM     24  C   UNL     1       3.959   6.547  -0.610  0.00  0.00    +0.002 A 
ATOM     25  C   UNL     1       4.731   6.922   0.482  0.00  0.00    +0.011 A 
ATOM     26  C   UNL     1       4.327   8.020   1.228  0.00  0.00    +0.059 A 
ATOM     27 CL   UNL     1       5.472   9.092   2.022  0.00  0.00    -0.082 Cl
ATOM     28  C   UNL     1       2.997   8.419   1.166  0.00  0.00    +0.030 A 
BRANCH  22  32
ATOM     29  C   UNL     1      -1.438   6.937   3.170  0.00  0.00    +0.054 C 
ATOM     30  C   UNL     1      -0.795   7.346   2.083  0.00  0.00    +0.081 A 
ATOM     31  N   UNL     1       0.404   6.996   1.602  0.00  0.00    -0.169 NA
ATOM     32  N   UNL     1       0.726   7.695   0.507  0.00  0.00    -0.229 N 
ATOM     33  C   UNL     1       0.015   8.838   0.748  0.00  0.00    +0.102 A 
ATOM     34  C   UNL     1      -1.160   8.508   1.412  0.00  0.00    +0.037 A 
ENDBRANCH  22  32
ENDBRANCH  21  23
BRANCH  21  35
ATOM     35  C   UNL     1       1.758   5.090  -1.719  0.00  0.00    +0.438 C 
ATOM     36  F   UNL     1       1.590   4.903  -0.425  0.00  0.00    -0.166 F 
ATOM     37  F   UNL     1       0.681   4.747  -2.512  0.00  0.00    -0.166 F 
ATOM     38  F   UNL     1       2.938   4.536  -2.139  0.00  0.00    -0.166 F 
ENDBRANCH  21  35
ENDBRANCH   1  21
TORSDOF 9
ENDMDL
MODEL 3
REMARK VINA RESULT:      -8.7      4.060      9.916
REMARK  Name = 
REMARK  9 active torsions:
REMARK  status: ('A' for Active; 'I' for Inactive)
REMARK    1  A    between atoms: N_5  and  C_6
REMARK    2  A    between atoms: C_12  and  C_13
REMARK    3  A    between atoms: C_13  and  O_14
REMARK    4  A    between atoms: C_13  and  C_34
REMARK    5  A    between atoms: O_14  and  C_15
REMARK    6  A    between atoms: C_17  and  C_18
REMARK    7  A    between atoms: C_21  and  C_22
REMARK    8  A    between atoms: C_22  and  CA_23
REMARK    9  A    between atoms: CA_23  and  C_25
REMARK                            x       y       z     vdW  Elec       q    Type
REMARK                         _______ _______ _______ _____ _____    ______ ____
ROOT
ATOM      1  O   UNL     1      -0.120   4.828  -5.326  0.00  0.00    -0.450 OA
ENDROOT
BRANCH   1   2
ATOM      2  C   UNL     1       0.845   4.623  -6.335  0.00  0.00    +0.229 A 
ATOM      3  N   UNL     1       2.159   4.499  -6.029  0.00  0.00    -0.176 NA
ATOM      4  C   UNL     1       3.165   4.755  -6.901  0.00  0.00    +0.259 A 
ATOM      5  N   UNL     1       4.354   5.386  -6.395  0.00  0.00    -0.086 NA
ATOM      6  N   UNL     1       2.809   4.860  -8.179  0.00  0.00    -0.211 NA
ATOM      7  C   UNL     1       1.555   5.070  -8.620  0.00  0.00    +0.089 A 
ATOM      8  C   UNL     1       0.560   4.938  -7.659  0.00  0.00    +0.077 A 
BRANCH   7   9
ATOM      9  C   UNL     1       1.324   6.001  -9.743  0.00  0.00    +0.018 A 
ATOM     10  C   UNL     1       0.157   5.893 -10.496  0.00  0.00    +0.001 A 
ATOM     11  C   UNL     1       0.140   6.121 -11.869  0.00  0.00    -0.004 A 
ATOM     12  C   UNL     1       1.322   5.954 -12.544  0.00  0.00    -0.020 A 
ATOM     13  C   UNL     1       2.456   6.362 -11.864  0.00  0.00    -0.004 A 
ATOM     14  C   UNL     1       2.396   6.501 -10.479  0.00  0.00    +0.001 A 
BRANCH  12  15
ATOM     15  C   UNL     1       1.262   5.636 -13.974  0.00  0.00    +0.057 C 
BRANCH  15  16
ATOM     16  CA  UNL     1       0.614   6.990 -14.662  0.00  0.00    +0.199 C 
ATOM     17  N   UNL     1      -0.026   6.159 -15.851  0.00  0.00    -0.120 NA
BRANCH  16  18
ATOM     18  C   UNL     1       1.962   7.315 -15.504  0.00  0.00    +0.382 C 
ATOM     19  OXT UNL     1       1.584   7.509 -16.839  0.00  0.00    -0.244 OA
ATOM     20  O   UNL     1       2.917   6.534 -15.345  0.00  0.00    -0.244 OA
ENDBRANCH  16  18
ENDBRANCH  15  16
ENDBRANCH  12  15
ENDBRANCH   7   9
ENDBRANCH   1   2
BRANCH   1  21
ATOM     21  C   UNL     1      -0.559   6.308  -5.528  0.00  0.00    +0.285 C 
BRANCH  21  23
ATOM     22  C   UNL     1       0.161   6.066  -3.083  0.00  0.00    +0.083 A 
ATOM     23  C   UNL     1      -0.621   6.706  -3.957  0.00  0.00    +0.044 A 
ATOM     24  C   UNL     1      -1.737   7.478  -3.648  0.00  0.00    +0.002 A 
ATOM     25  C   UNL     1      -1.965   7.718  -2.298  0.00  0.00    +0.011 A 
ATOM     26  C   UNL     1      -1.357   6.886  -1.369  0.00  0.00    +0.059 A 
ATOM     27 CL   UNL     1      -2.105   6.489   0.171  0.00  0.00    -0.082 Cl
ATOM     28  C   UNL     1      -0.231   6.165  -1.751  0.00  0.00    +0.030 A 
BRANCH  22  32
ATOM     29  C   UNL     1       4.504   7.916  -3.382  0.00  0.00    +0.054 C 
ATOM     30  C   UNL     1       3.527   7.017  -3.383  0.00  0.00    +0.081 A 
ATOM     31  N   UNL     1       2.219   7.158  -3.626  0.00  0.00    -0.169 NA
ATOM     32  N   UNL     1       1.554   6.010  -3.456  0.00  0.00    -0.229 N 
ATOM     33  C   UNL     1       2.363   5.410  -2.531  0.00  0.00    +0.102 A 
ATOM     34  C   UNL     1       3.681   5.773  -2.780  0.00  0.00    +0.037 A 
ENDBRANCH  22  32
ENDBRANCH  21  23
BRANCH  21  35
ATOM     35  C   UNL     1      -2.180   5.973  -5.612  0.00  0.00    +0.438 C 
ATOM     36  F   UNL     1      -2.555   5.296  -4.544  0.00  0.00    -0.166 F 
ATOM     37  F   UNL     1      -2.718   7.239  -5.729  0.00  0.00    -0.166 F 
ATOM     38  F   UNL     1      -2.330   5.215  -6.742  0.00  0.00    -0.166 F 
ENDBRANCH  21  35
ENDBRANCH   1  21
TORSDOF 9
ENDMDL
MODEL 4
REMARK VINA RESULT:      -8.7      4.037     10.252
REMARK  Name = 
REMARK  9 active torsions:
REMARK  status: ('A' for Active; 'I' for Inactive)
REMARK    1  A    between atoms: N_5  and  C_6
REMARK    2  A    between atoms: C_12  and  C_13
REMARK    3  A    between atoms: C_13  and  O_14
REMARK    4  A    between atoms: C_13  and  C_34
REMARK    5  A    between atoms: O_14  and  C_15
REMARK    6  A    between atoms: C_17  and  C_18
REMARK    7  A    between atoms: C_21  and  C_22
REMARK    8  A    between atoms: C_22  and  CA_23
REMARK    9  A    between atoms: CA_23  and  C_25
REMARK                            x       y       z     vdW  Elec       q    Type
REMARK                         _______ _______ _______ _____ _____    ______ ____
ROOT
ATOM      1  O   UNL     1       1.420   6.284  -6.333  0.00  0.00    -0.450 OA
ENDROOT
BRANCH   1   2
ATOM      2  C   UNL     1       1.606   5.420  -7.432  0.00  0.00    +0.229 A 
ATOM      3  N   UNL     1       2.843   4.990  -7.781  0.00  0.00    -0.176 NA
ATOM      4  C   UNL     1       3.172   4.565  -9.024  0.00  0.00    +0.259 A 
ATOM      5  N   UNL     1       4.473   4.906  -9.534  0.00  0.00    -0.086 NA
ATOM      6  N   UNL     1       2.150   4.308  -9.837  0.00  0.00    -0.211 NA
ATOM      7  C   UNL     1       0.889   4.744  -9.658  0.00  0.00    +0.089 A 
ATOM      8  C   UNL     1       0.628   5.306  -8.415  0.00  0.00    +0.077 A 
BRANCH   7   9
ATOM      9  C   UNL     1       0.111   5.222 -10.819  0.00  0.00    +0.018 A 
ATOM     10  C   UNL     1       0.430   4.764 -12.095  0.00  0.00    +0.001 A 
ATOM     11  C   UNL     1       0.348   5.585 -13.216  0.00  0.00    -0.004 A 
ATOM     12  C   UNL     1       0.444   6.937 -13.008  0.00  0.00    -0.020 A 
ATOM     13  C   UNL     1      -0.160   7.404 -11.854  0.00  0.00    -0.004 A 
ATOM     14  C   UNL     1      -0.433   6.505 -10.827  0.00  0.00    +0.001 A 
BRANCH  12  15
ATOM     15  C   UNL     1       0.912   7.775 -14.117  0.00  0.00    +0.057 C 
BRANCH  15  16
ATOM     16  CA  UNL     1       0.920   6.758 -15.417  0.00  0.00    +0.199 C 
ATOM     17  N   UNL     1       2.196   7.459 -16.042  0.00  0.00    -0.120 NA
BRANCH  16  18
ATOM     18  C   UNL     1      -0.107   7.686 -16.261  0.00  0.00    +0.382 C 
ATOM     19  OXT UNL     1      -0.383   7.020 -17.462  0.00  0.00    -0.244 OA
ATOM     20  O   UNL     1       0.207   8.883 -16.394  0.00  0.00    -0.244 OA
ENDBRANCH  16  18
ENDBRANCH  15  16
ENDBRANCH  12  15
ENDBRANCH   7   9
ENDBRANCH   1   2
BRANCH   1  21
ATOM     21  C   UNL     1       2.313   5.665  -5.218  0.00  0.00    +0.285 C 
BRANCH  21  23
ATOM     22  C   UNL     1       1.529   5.409  -2.794  0.00  0.00    +0.083 A 
ATOM     23  C   UNL     1       1.332   6.008  -3.973  0.00  0.00    +0.044 A 
ATOM     24  C   UNL     1       0.176   6.673  -4.373  0.00  0.00    +0.002 A 
ATOM     25  C   UNL     1      -0.800   6.850  -3.400  0.00  0.00    +0.011 A 
ATOM     26  C   UNL     1      -0.760   6.044  -2.271  0.00  0.00    +0.059 A 
ATOM     27 CL   UNL     1      -2.215   5.537  -1.425  0.00  0.00    -0.082 Cl
ATOM     28  C   UNL     1       0.440   5.434  -1.926  0.00  0.00    +0.030 A 
BRANCH  22  32
ATOM     29  C   UNL     1       4.791   6.806   0.333  0.00  0.00    +0.054 C 
ATOM     30  C   UNL     1       4.221   6.135  -0.661  0.00  0.00    +0.081 A 
ATOM     31  N   UNL     1       3.211   6.476  -1.469  0.00  0.00    -0.169 NA
ATOM     32  N   UNL     1       2.884   5.483  -2.305  0.00  0.00    -0.229 N 
ATOM     33  C   UNL     1       3.271   4.411  -1.550  0.00  0.00    +0.102 A 
ATOM     34  C   UNL     1       4.392   4.762  -0.807  0.00  0.00    +0.037 A 
ENDBRANCH  22  32
ENDBRANCH  21  23
BRANCH  21  35
ATOM     35  C   UNL     1       3.238   7.023  -4.996  0.00  0.00    +0.438 C 
ATOM     36  F   UNL     1       2.713   7.774  -4.049  0.00  0.00    -0.166 F 
ATOM     37  F   UNL     1       4.470   6.472  -4.701  0.00  0.00    -0.166 F 
ATOM     38  F   UNL     1       3.211   7.673  -6.201  0.00  0.00    -0.166 F 
ENDBRANCH  21  35
ENDBRANCH   1  21
TORSDOF 9
ENDMDL
MODEL 5
REMARK VINA RESULT:      -8.5      3.766      9.779
REMARK  Name = 
REMARK  9 active torsions:
REMARK  status: ('A' for Active; 'I' for Inactive)
REMARK    1  A    between atoms: N_5  and  C_6
REMARK    2  A    between atoms: C_12  and  C_13
REMARK    3  A    between atoms: C_13  and  O_14
REMARK    4  A    between atoms: C_13  and  C_34
REMARK    5  A    between atoms: O_14  and  C_15
REMARK    6  A    between atoms: C_17  and  C_18
REMARK    7  A    between atoms: C_21  and  C_22
REMARK    8  A    between atoms: C_22  and  CA_23
REMARK    9  A    between atoms: CA_23  and  C_25
REMARK                            x       y       z     vdW  Elec       q    Type
REMARK                         _______ _______ _______ _____ _____    ______ ____
ROOT
ATOM      1  O   UNL     1       0.159   4.804  -5.266  0.00  0.00    -0.450 OA
ENDROOT
BRANCH   1   2
ATOM      2  C   UNL     1       1.319   4.560  -6.030  0.00  0.00    +0.229 A 
ATOM      3  N   UNL     1       2.527   4.403  -5.436  0.00  0.00    -0.176 NA
ATOM      4  C   UNL     1       3.710   4.621  -6.060  0.00  0.00    +0.259 A 
ATOM      5  N   UNL     1       4.773   5.224  -5.303  0.00  0.00    -0.086 NA
ATOM      6  N   UNL     1       3.654   4.719  -7.386  0.00  0.00    -0.211 NA
ATOM      7  C   UNL     1       2.538   4.959  -8.100  0.00  0.00    +0.089 A 
ATOM      8  C   UNL     1       1.349   4.866  -7.387  0.00  0.00    +0.077 A 
BRANCH   7   9
ATOM      9  C   UNL     1       2.593   5.881  -9.251  0.00  0.00    +0.018 A 
ATOM     10  C   UNL     1       2.112   5.464 -10.490  0.00  0.00    +0.001 A 
ATOM     11  C   UNL     1       2.720   5.843 -11.684  0.00  0.00    -0.004 A 
ATOM     12  C   UNL     1       4.045   6.192 -11.627  0.00  0.00    -0.020 A 
ATOM     13  C   UNL     1       4.427   6.885 -10.492  0.00  0.00    -0.004 A 
ATOM     14  C   UNL     1       3.619   6.818  -9.359  0.00  0.00    +0.001 A 
BRANCH  12  15
ATOM     15  C   UNL     1       4.848   6.057 -12.846  0.00  0.00    +0.057 C 
BRANCH  15  16
ATOM     16  CA  UNL     1       6.308   6.716 -12.443  0.00  0.00    +0.199 C 
ATOM     17  N   UNL     1       6.681   6.981 -13.960  0.00  0.00    -0.120 NA
BRANCH  16  18
ATOM     18  C   UNL     1       7.052   5.275 -12.425  0.00  0.00    +0.382 C 
ATOM     19  OXT UNL     1       8.031   5.323 -11.424  0.00  0.00    -0.244 OA
ATOM     20  O   UNL     1       7.453   4.844 -13.521  0.00  0.00    -0.244 OA
ENDBRANCH  16  18
ENDBRANCH  15  16
ENDBRANCH  12  15
ENDBRANCH   7   9
ENDBRANCH   1   2
BRANCH   1  21
ATOM     21  C   UNL     1      -0.255   6.249  -5.672  0.00  0.00    +0.285 C 
BRANCH  21  23
ATOM     22  C   UNL     1       0.007   6.208  -3.124  0.00  0.00    +0.083 A 
ATOM     23  C   UNL     1      -0.587   6.781  -4.176  0.00  0.00    +0.044 A 
ATOM     24  C   UNL     1      -1.719   7.590  -4.138  0.00  0.00    +0.002 A 
ATOM     25  C   UNL     1      -2.180   7.947  -2.877  0.00  0.00    +0.011 A 
ATOM     26  C   UNL     1      -1.772   7.190  -1.787  0.00  0.00    +0.059 A 
ATOM     27 CL   UNL     1      -2.795   6.934  -0.382  0.00  0.00    -0.082 Cl
ATOM     28  C   UNL     1      -0.616   6.426  -1.899  0.00  0.00    +0.030 A 
BRANCH  22  32
ATOM     29  C   UNL     1       4.381   7.975  -2.781  0.00  0.00    +0.054 C 
ATOM     30  C   UNL     1       3.397   7.090  -2.886  0.00  0.00    +0.081 A 
ATOM     31  N   UNL     1       2.158   7.225  -3.373  0.00  0.00    -0.169 NA
ATOM     32  N   UNL     1       1.442   6.104  -3.233  0.00  0.00    -0.229 N 
ATOM     33  C   UNL     1       2.055   5.576  -2.130  0.00  0.00    +0.102 A 
ATOM     34  C   UNL     1       3.405   5.900  -2.165  0.00  0.00    +0.037 A 
ENDBRANCH  22  32
ENDBRANCH  21  23
BRANCH  21  35
ATOM     35  C   UNL     1      -1.835   5.866  -5.996  0.00  0.00    +0.438 C 
ATOM     36  F   UNL     1      -2.552   6.967  -6.095  0.00  0.00    -0.166 F 
ATOM     37  F   UNL     1      -1.708   5.135  -7.162  0.00  0.00    -0.166 F 
ATOM     38  F   UNL     1      -2.246   5.115  -4.929  0.00  0.00    -0.166 F 
ENDBRANCH  21  35
ENDBRANCH   1  21
TORSDOF 9
ENDMDL
MODEL 6
REMARK VINA RESULT:      -8.5      3.069      4.645
REMARK  Name = 
REMARK  9 active torsions:
REMARK  status: ('A' for Active; 'I' for Inactive)
REMARK    1  A    between atoms: N_5  and  C_6
REMARK    2  A    between atoms: C_12  and  C_13
REMARK    3  A    between atoms: C_13  and  O_14
REMARK    4  A    between atoms: C_13  and  C_34
REMARK    5  A    between atoms: O_14  and  C_15
REMARK    6  A    between atoms: C_17  and  C_18
REMARK    7  A    between atoms: C_21  and  C_22
REMARK    8  A    between atoms: C_22  and  CA_23
REMARK    9  A    between atoms: CA_23  and  C_25
REMARK                            x       y       z     vdW  Elec       q    Type
REMARK                         _______ _______ _______ _____ _____    ______ ____
ROOT
ATOM      1  O   UNL     1       4.235   5.609  -6.574  0.00  0.00    -0.450 OA
ENDROOT
BRANCH   1   2
ATOM      2  C   UNL     1       3.835   5.274  -5.263  0.00  0.00    +0.229 A 
ATOM      3  N   UNL     1       2.575   4.849  -5.004  0.00  0.00    -0.176 NA
ATOM      4  C   UNL     1       1.980   4.945  -3.790  0.00  0.00    +0.259 A 
ATOM      5  N   UNL     1       0.580   5.268  -3.747  0.00  0.00    -0.086 NA
ATOM      6  N   UNL     1       2.790   5.214  -2.769  0.00  0.00    -0.211 NA
ATOM      7  C   UNL     1       4.033   5.720  -2.878  0.00  0.00    +0.089 A 
ATOM      8  C   UNL     1       4.554   5.736  -4.165  0.00  0.00    +0.077 A 
BRANCH   7   9
ATOM      9  C   UNL     1       4.484   6.756  -1.927  0.00  0.00    +0.018 A 
ATOM     10  C   UNL     1       4.469   6.488  -0.561  0.00  0.00    +0.001 A 
ATOM     11  C   UNL     1       4.146   7.463   0.380  0.00  0.00    -0.004 A 
ATOM     12  C   UNL     1       3.372   8.511  -0.048  0.00  0.00    -0.020 A 
ATOM     13  C   UNL     1       3.631   8.953  -1.334  0.00  0.00    -0.004 A 
ATOM     14  C   UNL     1       4.301   8.107  -2.214  0.00  0.00    +0.001 A 
BRANCH  12  15
ATOM     15  C   UNL     1       2.567   9.226   0.947  0.00  0.00    +0.057 C 
BRANCH  15  16
ATOM     16  CA  UNL     1       1.197   8.316   1.087  0.00  0.00    +0.199 C 
ATOM     17  N   UNL     1       0.259   9.584   0.930  0.00  0.00    -0.120 NA
BRANCH  16  18
ATOM     18  C   UNL     1       1.194   8.411   2.706  0.00  0.00    +0.382 C 
ATOM     19  OXT UNL     1       2.041   7.403   3.185  0.00  0.00    -0.244 OA
ATOM     20  O   UNL     1       0.080   8.456   3.258  0.00  0.00    -0.244 OA
ENDBRANCH  16  18
ENDBRANCH  15  16
ENDBRANCH  12  15
ENDBRANCH   7   9
ENDBRANCH   1   2
BRANCH   1  21
ATOM     21  C   UNL     1       2.904   5.599  -7.381  0.00  0.00    +0.285 C 
BRANCH  21  23
ATOM     22  C   UNL     1       2.983   5.343  -9.928  0.00  0.00    +0.083 A 
ATOM     23  C   UNL     1       3.562   5.861  -8.840  0.00  0.00    +0.044 A 
ATOM     24  C   UNL     1       4.862   6.350  -8.758  0.00  0.00    +0.002 A 
ATOM     25  C   UNL     1       5.565   6.438  -9.953  0.00  0.00    +0.011 A 
ATOM     26  C   UNL     1       5.120   5.691 -11.035  0.00  0.00    +0.059 A 
ATOM     27 CL   UNL     1       6.217   5.032 -12.239  0.00  0.00    -0.082 Cl
ATOM     28  C   UNL     1       3.799   5.259 -11.053  0.00  0.00    +0.030 A 
BRANCH  22  32
ATOM     29  C   UNL     1      -0.710   7.680 -11.738  0.00  0.00    +0.054 C 
ATOM     30  C   UNL     1      -0.014   6.743 -11.104  0.00  0.00    +0.081 A 
ATOM     31  N   UNL     1       1.182   6.807 -10.508  0.00  0.00    -0.169 NA
ATOM     32  N   UNL     1       1.571   5.615 -10.040  0.00  0.00    -0.229 N 
ATOM     33  C   UNL     1       0.905   4.799 -10.912  0.00  0.00    +0.102 A 
ATOM     34  C   UNL     1      -0.304   5.391 -11.253  0.00  0.00    +0.037 A 
ENDBRANCH  22  32
ENDBRANCH  21  23
BRANCH  21  35
ATOM     35  C   UNL     1       2.566   7.203  -7.133  0.00  0.00    +0.438 C 
ATOM     36  F   UNL     1       2.670   7.865  -8.267  0.00  0.00    -0.166 F 
ATOM     37  F   UNL     1       1.293   7.137  -6.600  0.00  0.00    -0.166 F 
ATOM     38  F   UNL     1       3.507   7.630  -6.234  0.00  0.00    -0.166 F 
ENDBRANCH  21  35
ENDBRANCH   1  21
TORSDOF 9
ENDMDL
MODEL 7
REMARK VINA RESULT:      -8.4      2.769      4.037
REMARK  Name = 
REMARK  9 active torsions:
REMARK  status: ('A' for Active; 'I' for Inactive)
REMARK    1  A    between atoms: N_5  and  C_6
REMARK    2  A    between atoms: C_12  and  C_13
REMARK    3  A    between atoms: C_13  and  O_14
REMARK    4  A    between atoms: C_13  and  C_34
REMARK    5  A    between atoms: O_14  and  C_15
REMARK    6  A    between atoms: C_17  and  C_18
REMARK    7  A    between atoms: C_21  and  C_22
REMARK    8  A    between atoms: C_22  and  CA_23
REMARK    9  A    between atoms: CA_23  and  C_25
REMARK                            x       y       z     vdW  Elec       q    Type
REMARK                         _______ _______ _______ _____ _____    ______ ____
ROOT
ATOM      1  O   UNL     1      -0.935   5.393  -6.395  0.00  0.00    -0.450 OA
ENDROOT
BRANCH   1   2
ATOM      2  C   UNL     1      -1.631   5.979  -5.317  0.00  0.00    +0.229 A 
ATOM      3  N   UNL     1      -2.036   7.271  -5.367  0.00  0.00    -0.176 NA
ATOM      4  C   UNL     1      -2.281   8.029  -4.271  0.00  0.00    +0.259 A 
ATOM      5  N   UNL     1      -1.902   9.415  -4.308  0.00  0.00    -0.086 NA
ATOM      6  N   UNL     1      -2.389   7.366  -3.122  0.00  0.00    -0.211 NA
ATOM      7  C   UNL     1      -1.951   6.110  -2.907  0.00  0.00    +0.089 A 
ATOM      8  C   UNL     1      -1.573   5.413  -4.048  0.00  0.00    +0.077 A 
BRANCH   7   9
ATOM      9  C   UNL     1      -1.287   5.778  -1.631  0.00  0.00    +0.018 A 
ATOM     10  C   UNL     1      -1.496   6.586  -0.517  0.00  0.00    +0.001 A 
ATOM     11  C   UNL     1      -0.486   6.851   0.404  0.00  0.00    -0.004 A 
ATOM     12  C   UNL     1       0.807   6.742  -0.040  0.00  0.00    -0.020 A 
ATOM     13  C   UNL     1       1.042   5.714  -0.936  0.00  0.00    -0.004 A 
ATOM     14  C   UNL     1      -0.037   5.163  -1.624  0.00  0.00    +0.001 A 
BRANCH  12  15
ATOM     15  C   UNL     1       1.844   7.509   0.658  0.00  0.00    +0.057 C 
BRANCH  15  16
ATOM     16  CA  UNL     1       3.162   7.399  -0.331  0.00  0.00    +0.199 C 
ATOM     17  N   UNL     1       4.081   6.863   0.844  0.00  0.00    -0.120 NA
BRANCH  16  18
ATOM     18  C   UNL     1       3.593   8.941  -0.077  0.00  0.00    +0.382 C 
ATOM     19  OXT UNL     1       2.764   9.445   0.934  0.00  0.00    -0.244 OA
ATOM     20  O   UNL     1       3.680   9.666  -1.084  0.00  0.00    -0.244 OA
ENDBRANCH  16  18
ENDBRANCH  15  16
ENDBRANCH  12  15
ENDBRANCH   7   9
ENDBRANCH   1   2
BRANCH   1  21
ATOM     21  C   UNL     1       0.522   5.915  -6.224  0.00  0.00    +0.285 C 
BRANCH  21  23
ATOM     22  C   UNL     1       1.675   6.948  -8.264  0.00  0.00    +0.083 A 
ATOM     23  C   UNL     1       0.895   5.966  -7.802  0.00  0.00    +0.044 A 
ATOM     24  C   UNL     1       0.084   5.133  -8.567  0.00  0.00    +0.002 A 
ATOM     25  C   UNL     1       0.214   5.244  -9.946  0.00  0.00    +0.011 A 
ATOM     26  C   UNL     1       0.796   6.393 -10.463  0.00  0.00    +0.059 A 
ATOM     27 CL   UNL     1       0.326   7.071 -12.015  0.00  0.00    -0.082 Cl
ATOM     28  C   UNL     1       1.613   7.158  -9.639  0.00  0.00    +0.030 A 
BRANCH  22  32
ATOM     29  C   UNL     1       4.211   6.967  -4.272  0.00  0.00    +0.054 C 
ATOM     30  C   UNL     1       3.923   6.960  -5.568  0.00  0.00    +0.081 A 
ATOM     31  N   UNL     1       2.830   7.382  -6.215  0.00  0.00    -0.169 NA
ATOM     32  N   UNL     1       2.902   7.133  -7.528  0.00  0.00    -0.229 N 
ATOM     33  C   UNL     1       3.721   6.038  -7.510  0.00  0.00    +0.102 A 
ATOM     34  C   UNL     1       4.631   6.171  -6.468  0.00  0.00    +0.037 A 
ENDBRANCH  22  32
ENDBRANCH  21  23
BRANCH  21  35
ATOM     35  C   UNL     1       1.194   4.415  -6.009  0.00  0.00    +0.438 C 
ATOM     36  F   UNL     1       2.060   4.169  -6.971  0.00  0.00    -0.166 F 
ATOM     37  F   UNL     1       1.733   4.533  -4.743  0.00  0.00    -0.166 F 
ATOM     38  F   UNL     1       0.141   3.541  -6.069  0.00  0.00    -0.166 F 
ENDBRANCH  21  35
ENDBRANCH   1  21
TORSDOF 9
ENDMDL
MODEL 8
REMARK VINA RESULT:      -8.2      2.296      3.334
REMARK  Name = 
REMARK  9 active torsions:
REMARK  status: ('A' for Active; 'I' for Inactive)
REMARK    1  A    between atoms: N_5  and  C_6
REMARK    2  A    between atoms: C_12  and  C_13
REMARK    3  A    between atoms: C_13  and  O_14
REMARK    4  A    between atoms: C_13  and  C_34
REMARK    5  A    between atoms: O_14  and  C_15
REMARK    6  A    between atoms: C_17  and  C_18
REMARK    7  A    between atoms: C_21  and  C_22
REMARK    8  A    between atoms: C_22  and  CA_23
REMARK    9  A    between atoms: CA_23  and  C_25
REMARK                            x       y       z     vdW  Elec       q    Type
REMARK                         _______ _______ _______ _____ _____    ______ ____
ROOT
ATOM      1  O   UNL     1       0.580   4.878  -7.813  0.00  0.00    -0.450 OA
ENDROOT
BRANCH   1   2
ATOM      2  C   UNL     1       0.488   5.206  -6.443  0.00  0.00    +0.229 A 
ATOM      3  N   UNL     1      -0.509   6.000  -5.982  0.00  0.00    -0.176 NA
ATOM      4  C   UNL     1      -0.431   6.721  -4.837  0.00  0.00    +0.259 A 
ATOM      5  N   UNL     1      -1.026   8.029  -4.820  0.00  0.00    -0.086 NA
ATOM      6  N   UNL     1       0.565   6.396  -4.016  0.00  0.00    -0.211 NA
ATOM      7  C   UNL     1       1.656   5.687  -4.363  0.00  0.00    +0.089 A 
ATOM      8  C   UNL     1       1.594   5.079  -5.610  0.00  0.00    +0.077 A 
BRANCH   7   9
ATOM      9  C   UNL     1       2.980   6.085  -3.843  0.00  0.00    +0.018 A 
ATOM     10  C   UNL     1       3.578   5.333  -2.836  0.00  0.00    +0.001 A 
ATOM     11  C   UNL     1       4.332   5.921  -1.824  0.00  0.00    -0.004 A 
ATOM     12  C   UNL     1       4.071   7.236  -1.534  0.00  0.00    -0.020 A 
ATOM     13  C   UNL     1       3.769   8.034  -2.623  0.00  0.00    -0.004 A 
ATOM     14  C   UNL     1       3.349   7.428  -3.805  0.00  0.00    +0.001 A 
BRANCH  12  15
ATOM     15  C   UNL     1       4.397   7.725  -0.191  0.00  0.00    +0.057 C 
BRANCH  15  16
ATOM     16  CA  UNL     1       3.399   9.024   0.019  0.00  0.00    +0.199 C 
ATOM     17  N   UNL     1       4.294   9.605   1.191  0.00  0.00    -0.120 NA
BRANCH  16  18
ATOM     18  C   UNL     1       2.429   8.225   1.043  0.00  0.00    +0.382 C 
ATOM     19  OXT UNL     1       3.242   7.400   1.831  0.00  0.00    -0.244 OA
ATOM     20  O   UNL     1       1.443   7.655   0.542  0.00  0.00    -0.244 OA
ENDBRANCH  16  18
ENDBRANCH  15  16
ENDBRANCH  12  15
ENDBRANCH   7   9
ENDBRANCH   1   2
BRANCH   1  21
ATOM     21  C   UNL     1       2.025   5.308  -8.200  0.00  0.00    +0.285 C 
BRANCH  21  23
ATOM     22  C   UNL     1       2.592   6.276 -10.502  0.00  0.00    +0.083 A 
ATOM     23  C   UNL     1       1.739   5.544  -9.779  0.00  0.00    +0.044 A 
ATOM     24  C   UNL     1       0.438   5.206 -10.140  0.00  0.00    +0.002 A 
ATOM     25  C   UNL     1       0.051   5.539 -11.432  0.00  0.00    +0.011 A 
ATOM     26  C   UNL     1       0.783   6.502 -12.112  0.00  0.00    +0.059 A 
ATOM     27 CL   UNL     1       0.050   7.596 -13.276  0.00  0.00    -0.082 Cl
ATOM     28  C   UNL     1       2.086   6.765 -11.703  0.00  0.00    +0.030 A 
BRANCH  22  32
ATOM     29  C   UNL     1       6.854   5.264 -12.287  0.00  0.00    +0.054 C 
ATOM     30  C   UNL     1       5.912   5.573 -11.405  0.00  0.00    +0.081 A 
ATOM     31  N   UNL     1       4.593   5.349 -11.431  0.00  0.00    -0.169 NA
ATOM     32  N   UNL     1       3.975   5.884 -10.372  0.00  0.00    -0.229 N 
ATOM     33  C   UNL     1       4.831   6.915 -10.102  0.00  0.00    +0.102 A 
ATOM     34  C   UNL     1       6.127   6.517 -10.406  0.00  0.00    +0.037 A 
ENDBRANCH  22  32
ENDBRANCH  21  23
BRANCH  21  35
ATOM     35  C   UNL     1       2.585   3.764  -8.428  0.00  0.00    +0.438 C 
ATOM     36  F   UNL     1       3.870   3.790  -8.717  0.00  0.00    -0.166 F 
ATOM     37  F   UNL     1       2.260   3.172  -7.223  0.00  0.00    -0.166 F 
ATOM     38  F   UNL     1       1.861   3.275  -9.482  0.00  0.00    -0.166 F 
ENDBRANCH  21  35
ENDBRANCH   1  21
TORSDOF 9
ENDMDL
MODEL 9
REMARK VINA RESULT:      -8.2      1.538      1.874
REMARK  Name = 
REMARK  9 active torsions:
REMARK  status: ('A' for Active; 'I' for Inactive)
REMARK    1  A    between atoms: N_5  and  C_6
REMARK    2  A    between atoms: C_12  and  C_13
REMARK    3  A    between atoms: C_13  and  O_14
REMARK    4  A    between atoms: C_13  and  C_34
REMARK    5  A    between atoms: O_14  and  C_15
REMARK    6  A    between atoms: C_17  and  C_18
REMARK    7  A    between atoms: C_21  and  C_22
REMARK    8  A    between atoms: C_22  and  CA_23
REMARK    9  A    between atoms: CA_23  and  C_25
REMARK                            x       y       z     vdW  Elec       q    Type
REMARK                         _______ _______ _______ _____ _____    ______ ____
ROOT
ATOM      1  O   UNL     1       1.638   6.917  -9.272  0.00  0.00    -0.450 OA
ENDROOT
BRANCH   1   2
ATOM      2  C   UNL     1       1.961   7.051  -7.905  0.00  0.00    +0.229 A 
ATOM      3  N   UNL     1       3.202   6.754  -7.448  0.00  0.00    -0.176 NA
ATOM      4  C   UNL     1       3.473   6.414  -6.164  0.00  0.00    +0.259 A 
ATOM      5  N   UNL     1       4.464   5.400  -5.928  0.00  0.00    -0.086 NA
ATOM      6  N   UNL     1       2.507   6.664  -5.284  0.00  0.00    -0.211 NA
ATOM      7  C   UNL     1       1.216   6.891  -5.593  0.00  0.00    +0.089 A 
ATOM      8  C   UNL     1       0.957   7.093  -6.943  0.00  0.00    +0.077 A 
BRANCH   7   9
ATOM      9  C   UNL     1       0.152   6.298  -4.757  0.00  0.00    +0.018 A 
ATOM     10  C   UNL     1      -1.076   6.945  -4.648  0.00  0.00    +0.001 A 
ATOM     11  C   UNL     1      -1.802   6.956  -3.460  0.00  0.00    -0.004 A 
ATOM     12  C   UNL     1      -1.098   6.775  -2.297  0.00  0.00    -0.020 A 
ATOM     13  C   UNL     1      -0.049   5.877  -2.372  0.00  0.00    -0.004 A 
ATOM     14  C   UNL     1       0.474   5.557  -3.623  0.00  0.00    +0.001 A 
BRANCH  12  15
ATOM     15  C   UNL     1      -1.666   7.311  -1.055  0.00  0.00    +0.057 C 
BRANCH  15  16
ATOM     16  CA  UNL     1      -0.767   6.606   0.137  0.00  0.00    +0.199 C 
ATOM     17  N   UNL     1      -1.994   6.585   1.141  0.00  0.00    -0.120 NA
BRANCH  16  18
ATOM     18  C   UNL     1      -0.228   8.029   0.694  0.00  0.00    +0.382 C 
ATOM     19  OXT UNL     1      -1.195   8.994   0.383  0.00  0.00    -0.244 OA
ATOM     20  O   UNL     1       0.935   8.343   0.381  0.00  0.00    -0.244 OA
ENDBRANCH  16  18
ENDBRANCH  15  16
ENDBRANCH  12  15
ENDBRANCH   7   9
ENDBRANCH   1   2
BRANCH   1  21
ATOM     21  C   UNL     1       1.595   5.377  -9.493  0.00  0.00    +0.285 C 
BRANCH  21  23
ATOM     22  C   UNL     1       2.775   6.158 -11.627  0.00  0.00    +0.083 A 
ATOM     23  C   UNL     1       1.802   5.408 -11.102  0.00  0.00    +0.044 A 
ATOM     24  C   UNL     1       0.715   4.876 -11.789  0.00  0.00    +0.002 A 
ATOM     25  C   UNL     1       0.728   5.022 -13.171  0.00  0.00    +0.011 A 
ATOM     26  C   UNL     1       1.554   5.990 -13.724  0.00  0.00    +0.059 A 
ATOM     27 CL   UNL     1       1.136   6.856 -15.195  0.00  0.00    -0.082 Cl
ATOM     28  C   UNL     1       2.634   6.453 -12.980  0.00  0.00    +0.030 A 
BRANCH  22  32
ATOM     29  C   UNL     1       7.408   5.239 -11.876  0.00  0.00    +0.054 C 
ATOM     30  C   UNL     1       6.238   5.633 -11.387  0.00  0.00    +0.081 A 
ATOM     31  N   UNL     1       4.994   5.269 -11.719  0.00  0.00    -0.169 NA
ATOM     32  N   UNL     1       4.074   5.955 -11.032  0.00  0.00    -0.229 N 
ATOM     33  C   UNL     1       4.774   7.106 -10.796  0.00  0.00    +0.102 A 
ATOM     34  C   UNL     1       6.117   6.792 -10.628  0.00  0.00    +0.037 A 
ENDBRANCH  22  32
ENDBRANCH  21  23
BRANCH  21  35
ATOM     35  C   UNL     1      -0.057   5.288  -9.606  0.00  0.00    +0.438 C 
ATOM     36  F   UNL     1      -0.585   5.205  -8.401  0.00  0.00    -0.166 F 
ATOM     37  F   UNL     1      -0.348   6.445 -10.302  0.00  0.00    -0.166 F 
ATOM     38  F   UNL     1      -0.305   4.149 -10.323  0.00  0.00    -0.166 F 
ENDBRANCH  21  35
ENDBRANCH   1  21
TORSDOF 9
ENDMDL
