MODEL 1
REMARK VINA RESULT:     -11.4      0.000      0.000
REMARK  Name = 
REMARK  4 active torsions:
REMARK  status: ('A' for Active; 'I' for Inactive)
REMARK    1  A    between atoms: O_2  and  C_3
REMARK    2  A    between atoms: C_6  and  C_7
REMARK    3  A    between atoms: C_12  and  C_13
REMARK    4  A    between atoms: C_21  and  C_22
REMARK                            x       y       z     vdW  Elec       q    Type
REMARK                         _______ _______ _______ _____ _____    ______ ____
ROOT
ATOM      1  C   UNL     1       2.751   6.194 -11.698  0.00  0.00    +0.135 A 
ATOM      2  C   UNL     1       3.585   6.334 -10.595  0.00  0.00    +0.011 A 
ATOM      3  C   UNL     1       3.039   6.239  -9.321  0.00  0.00    -0.001 A 
ATOM      4  C   UNL     1       1.662   6.314  -9.152  0.00  0.00    -0.000 A 
ATOM      5  C   UNL     1       0.939   6.741 -10.259  0.00  0.00    +0.003 A 
ATOM      6  C   UNL     1       1.447   6.653 -11.549  0.00  0.00    +0.037 A 
ENDROOT
BRANCH   2   7
ATOM      7  C   UNL     1       5.035   6.276 -10.866  0.00  0.00    +0.022 C 
ATOM      8  C   UNL     1       5.412   5.268 -11.909  0.00  0.00    +0.004 C 
ATOM      9  C   UNL     1       6.927   5.334 -12.064  0.00  0.00    +0.000 C 
ATOM     10  C   UNL     1       7.382   6.741 -12.412  0.00  0.00    +0.000 C 
ATOM     11  C   UNL     1       7.004   7.728 -11.333  0.00  0.00    +0.000 C 
ATOM     12  C   UNL     1       7.609   7.329 -10.014  0.00  0.00    +0.000 C 
ATOM     13  C   UNL     1       7.209   5.910  -9.674  0.00  0.00    +0.000 C 
ATOM     14  C   UNL     1       7.624   4.964 -10.768  0.00  0.00    +0.000 C 
ATOM     15  C   UNL     1       5.500   7.671 -11.178  0.00  0.00    +0.004 C 
ATOM     16  C   UNL     1       5.707   5.851  -9.566  0.00  0.00    +0.004 C 
ENDBRANCH   2   7
BRANCH   4  17
ATOM     17  C   UNL     1       0.981   5.711  -8.002  0.00  0.00    -0.000 A 
ATOM     18  C   UNL     1       1.521   5.753  -6.723  0.00  0.00    -0.000 A 
ATOM     19  C   UNL     1       0.700   5.568  -5.617  0.00  0.00    +0.000 A 
ATOM     20  C   UNL     1      -0.671   5.680  -5.807  0.00  0.00    +0.000 A 
ATOM     21  C   UNL     1      -1.428   6.018  -4.705  0.00  0.00    +0.007 A 
ATOM     22  C   UNL     1      -0.945   5.841  -3.415  0.00  0.00    +0.080 A 
ATOM     23  C   UNL     1       0.324   5.291  -3.272  0.00  0.00    +0.007 A 
ATOM     24  C   UNL     1      -1.209   5.321  -7.024  0.00  0.00    +0.000 A 
ATOM     25  C   UNL     1       1.201   5.351  -4.348  0.00  0.00    +0.000 A 
ATOM     26  C   UNL     1      -0.323   5.241  -8.092  0.00  0.00    -0.000 A 
BRANCH  22  27
ATOM     27  C   UNL     1      -1.904   5.873  -2.305  0.00  0.00    +0.388 C 
ATOM     28  O   UNL     1      -2.216   7.054  -1.638  0.00  0.00    -0.241 OA
ATOM     29  O   UNL     1      -2.611   4.862  -2.024  0.00  0.00    -0.241 OA
ENDBRANCH  22  27
ENDBRANCH   4  17
BRANCH   1  31
ATOM     30  C   UNL     1       2.270   5.165 -13.888  0.00  0.00    +0.252 C 
ATOM     31  O   UNL     1       3.145   5.468 -12.826  0.00  0.00    -0.472 OA
ENDBRANCH   1  31
TORSDOF 4
ENDMDL
MODEL 2
REMARK VINA RESULT:     -11.3      2.157      9.629
REMARK  Name = 
REMARK  4 active torsions:
REMARK  status: ('A' for Active; 'I' for Inactive)
REMARK    1  A    between atoms: O_2  and  C_3
REMARK    2  A    between atoms: C_6  and  C_7
REMARK    3  A    between atoms: C_12  and  C_13
REMARK    4  A    between atoms: C_21  and  C_22
REMARK                            x       y       z     vdW  Elec       q    Type
REMARK                         _______ _______ _______ _____ _____    ______ ____
ROOT
ATOM      1  C   UNL     1       1.974   6.702  -3.990  0.00  0.00    +0.135 A 
ATOM      2  C   UNL     1       1.118   6.630  -5.083  0.00  0.00    +0.011 A 
ATOM      3  C   UNL     1       1.655   6.419  -6.347  0.00  0.00    -0.001 A 
ATOM      4  C   UNL     1       3.018   6.587  -6.555  0.00  0.00    -0.000 A 
ATOM      5  C   UNL     1       3.715   7.211  -5.527  0.00  0.00    +0.003 A 
ATOM      6  C   UNL     1       3.232   7.246  -4.224  0.00  0.00    +0.037 A 
ENDROOT
BRANCH   2   7
ATOM      7  C   UNL     1      -0.318   6.486  -4.773  0.00  0.00    +0.022 C 
ATOM      8  C   UNL     1      -0.602   5.511  -3.670  0.00  0.00    +0.004 C 
ATOM      9  C   UNL     1      -2.114   5.480  -3.483  0.00  0.00    +0.000 C 
ATOM     10  C   UNL     1      -2.660   6.869  -3.198  0.00  0.00    +0.000 C 
ATOM     11  C   UNL     1      -2.375   7.820  -4.335  0.00  0.00    +0.000 C 
ATOM     12  C   UNL     1      -2.977   7.309  -5.616  0.00  0.00    +0.000 C 
ATOM     13  C   UNL     1      -2.485   5.905  -5.891  0.00  0.00    +0.000 C 
ATOM     14  C   UNL     1      -2.809   4.993  -4.740  0.00  0.00    +0.000 C 
ATOM     15  C   UNL     1      -0.875   7.859  -4.524  0.00  0.00    +0.004 C 
ATOM     16  C   UNL     1      -0.985   5.945  -6.033  0.00  0.00    +0.004 C 
ENDBRANCH   2   7
BRANCH   4  17
ATOM     17  C   UNL     1       3.735   5.901  -7.634  0.00  0.00    -0.000 A 
ATOM     18  C   UNL     1       3.490   6.179  -8.973  0.00  0.00    -0.000 A 
ATOM     19  C   UNL     1       4.438   5.852  -9.934  0.00  0.00    +0.000 A 
ATOM     20  C   UNL     1       5.725   5.570  -9.499  0.00  0.00    +0.000 A 
ATOM     21  C   UNL     1       6.747   5.762 -10.405  0.00  0.00    +0.007 A 
ATOM     22  C   UNL     1       6.500   5.815 -11.771  0.00  0.00    +0.080 A 
ATOM     23  C   UNL     1       5.187   5.647 -12.196  0.00  0.00    +0.007 A 
ATOM     24  C   UNL     1       5.900   4.992  -8.260  0.00  0.00    +0.000 A 
ATOM     25  C   UNL     1       4.160   5.872 -11.288  0.00  0.00    +0.000 A 
ATOM     26  C   UNL     1       4.830   5.086  -7.378  0.00  0.00    -0.000 A 
BRANCH  22  27
ATOM     27  C   UNL     1       7.636   5.658 -12.687  0.00  0.00    +0.388 C 
ATOM     28  O   UNL     1       8.913   6.104 -12.355  0.00  0.00    -0.241 OA
ATOM     29  O   UNL     1       7.536   4.962 -13.738  0.00  0.00    -0.241 OA
ENDBRANCH  22  27
ENDBRANCH   4  17
BRANCH   1  31
ATOM     30  C   UNL     1       2.632   5.592  -1.887  0.00  0.00    +0.252 C 
ATOM     31  O   UNL     1       1.657   6.096  -2.771  0.00  0.00    -0.472 OA
ENDBRANCH   1  31
TORSDOF 4
ENDMDL
MODEL 3
REMARK VINA RESULT:     -10.2      3.513      8.187
REMARK  Name = 
REMARK  4 active torsions:
REMARK  status: ('A' for Active; 'I' for Inactive)
REMARK    1  A    between atoms: O_2  and  C_3
REMARK    2  A    between atoms: C_6  and  C_7
REMARK    3  A    between atoms: C_12  and  C_13
REMARK    4  A    between atoms: C_21  and  C_22
REMARK                            x       y       z     vdW  Elec       q    Type
REMARK                         _______ _______ _______ _____ _____    ______ ____
ROOT
ATOM      1  C   UNL     1      -0.225   6.311  -5.683  0.00  0.00    +0.135 A 
ATOM      2  C   UNL     1       0.981   5.843  -6.191  0.00  0.00    +0.011 A 
ATOM      3  C   UNL     1       1.046   5.454  -7.523  0.00  0.00    -0.001 A 
ATOM      4  C   UNL     1      -0.126   5.242  -8.238  0.00  0.00    -0.000 A 
ATOM      5  C   UNL     1      -1.293   5.188  -7.486  0.00  0.00    +0.003 A 
ATOM      6  C   UNL     1      -1.380   5.753  -6.219  0.00  0.00    +0.037 A 
ENDROOT
BRANCH   2   7
ATOM      7  C   UNL     1       2.174   6.079  -5.353  0.00  0.00    +0.022 C 
ATOM      8  C   UNL     1       3.036   7.206  -5.835  0.00  0.00    +0.004 C 
ATOM      9  C   UNL     1       4.211   7.311  -4.870  0.00  0.00    +0.000 C 
ATOM     10  C   UNL     1       3.732   7.505  -3.442  0.00  0.00    +0.000 C 
ATOM     11  C   UNL     1       2.883   6.344  -2.980  0.00  0.00    +0.000 C 
ATOM     12  C   UNL     1       3.654   5.055  -3.068  0.00  0.00    +0.000 C 
ATOM     13  C   UNL     1       4.184   4.869  -4.473  0.00  0.00    +0.000 C 
ATOM     14  C   UNL     1       5.038   6.039  -4.879  0.00  0.00    +0.000 C 
ATOM     15  C   UNL     1       1.712   6.237  -3.931  0.00  0.00    +0.004 C 
ATOM     16  C   UNL     1       3.014   4.809  -5.420  0.00  0.00    +0.004 C 
ENDBRANCH   2   7
BRANCH   4  17
ATOM     17  C   UNL     1      -0.184   5.364  -9.699  0.00  0.00    -0.000 A 
ATOM     18  C   UNL     1      -0.176   6.598 -10.335  0.00  0.00    -0.000 A 
ATOM     19  C   UNL     1       0.191   6.687 -11.672  0.00  0.00    +0.000 A 
ATOM     20  C   UNL     1       0.854   5.604 -12.231  0.00  0.00    +0.000 A 
ATOM     21  C   UNL     1       1.657   5.860 -13.323  0.00  0.00    +0.007 A 
ATOM     22  C   UNL     1       1.496   7.010 -14.084  0.00  0.00    +0.080 A 
ATOM     23  C   UNL     1       0.481   7.887 -13.720  0.00  0.00    +0.007 A 
ATOM     24  C   UNL     1       0.575   4.337 -11.767  0.00  0.00    +0.000 A 
ATOM     25  C   UNL     1      -0.016   7.828 -12.424  0.00  0.00    +0.000 A 
ATOM     26  C   UNL     1      -0.049   4.256 -10.527  0.00  0.00    -0.000 A 
BRANCH  22  27
ATOM     27  C   UNL     1       2.116   7.053 -15.414  0.00  0.00    +0.388 C 
ATOM     28  O   UNL     1       3.462   6.753 -15.605  0.00  0.00    -0.241 OA
ATOM     29  O   UNL     1       1.415   7.198 -16.457  0.00  0.00    -0.241 OA
ENDBRANCH  22  27
ENDBRANCH   4  17
BRANCH   1  31
ATOM     30  C   UNL     1      -1.470   8.103  -4.532  0.00  0.00    +0.252 C 
ATOM     31  O   UNL     1      -0.278   7.408  -4.818  0.00  0.00    -0.472 OA
ENDBRANCH   1  31
TORSDOF 4
ENDMDL
MODEL 4
REMARK VINA RESULT:     -10.2      2.307      2.866
REMARK  Name = 
REMARK  4 active torsions:
REMARK  status: ('A' for Active; 'I' for Inactive)
REMARK    1  A    between atoms: O_2  and  C_3
REMARK    2  A    between atoms: C_6  and  C_7
REMARK    3  A    between atoms: C_12  and  C_13
REMARK    4  A    between atoms: C_21  and  C_22
REMARK                            x       y       z     vdW  Elec       q    Type
REMARK                         _______ _______ _______ _____ _____    ______ ____
ROOT
ATOM      1  C   UNL     1       2.601   6.186 -10.712  0.00  0.00    +0.135 A 
ATOM      2  C   UNL     1       3.769   6.484 -10.020  0.00  0.00    +0.011 A 
ATOM      3  C   UNL     1       3.731   6.556  -8.633  0.00  0.00    -0.001 A 
ATOM      4  C   UNL     1       2.508   6.637  -7.979  0.00  0.00    -0.000 A 
ATOM      5  C   UNL     1       1.407   6.901  -8.784  0.00  0.00    +0.003 A 
ATOM      6  C   UNL     1       1.415   6.645 -10.150  0.00  0.00    +0.037 A 
ENDROOT
BRANCH   2   7
ATOM      7  C   UNL     1       5.021   6.408 -10.797  0.00  0.00    +0.022 C 
ATOM      8  C   UNL     1       4.929   5.521 -12.002  0.00  0.00    +0.004 C 
ATOM      9  C   UNL     1       6.293   5.551 -12.682  0.00  0.00    +0.000 C 
ATOM     10  C   UNL     1       6.702   6.973 -13.026  0.00  0.00    +0.000 C 
ATOM     11  C   UNL     1       6.805   7.835 -11.790  0.00  0.00    +0.000 C 
ATOM     12  C   UNL     1       7.803   7.257 -10.824  0.00  0.00    +0.000 C 
ATOM     13  C   UNL     1       7.441   5.822 -10.507  0.00  0.00    +0.000 C 
ATOM     14  C   UNL     1       7.370   5.002 -11.766  0.00  0.00    +0.000 C 
ATOM     15  C   UNL     1       5.453   7.812 -11.113  0.00  0.00    +0.004 C 
ATOM     16  C   UNL     1       6.073   5.804  -9.875  0.00  0.00    +0.004 C 
ENDBRANCH   2   7
BRANCH   4  17
ATOM     17  C   UNL     1       2.330   6.185  -6.595  0.00  0.00    -0.000 A 
ATOM     18  C   UNL     1       3.374   5.642  -5.859  0.00  0.00    -0.000 A 
ATOM     19  C   UNL     1       3.307   5.621  -4.471  0.00  0.00    +0.000 A 
ATOM     20  C   UNL     1       2.364   6.435  -3.859  0.00  0.00    +0.000 A 
ATOM     21  C   UNL     1       2.620   6.820  -2.560  0.00  0.00    +0.007 A 
ATOM     22  C   UNL     1       3.515   6.119  -1.762  0.00  0.00    +0.080 A 
ATOM     23  C   UNL     1       4.130   5.000  -2.313  0.00  0.00    +0.007 A 
ATOM     24  C   UNL     1       1.181   6.698  -4.515  0.00  0.00    +0.000 A 
ATOM     25  C   UNL     1       4.182   4.883  -3.696  0.00  0.00    +0.000 A 
ATOM     26  C   UNL     1       1.167   6.457  -5.885  0.00  0.00    -0.000 A 
BRANCH  22  27
ATOM     27  C   UNL     1       3.476   6.346  -0.313  0.00  0.00    +0.388 C 
ATOM     28  O   UNL     1       2.286   6.628   0.353  0.00  0.00    -0.241 OA
ATOM     29  O   UNL     1       4.490   6.125   0.410  0.00  0.00    -0.241 OA
ENDBRANCH  22  27
ENDBRANCH   4  17
BRANCH   1  31
ATOM     30  C   UNL     1       1.537   5.246 -12.730  0.00  0.00    +0.252 C 
ATOM     31  O   UNL     1       2.601   5.320 -11.809  0.00  0.00    -0.472 OA
ENDBRANCH   1  31
TORSDOF 4
ENDMDL
MODEL 5
REMARK VINA RESULT:     -10.1      2.422      9.317
REMARK  Name = 
REMARK  4 active torsions:
REMARK  status: ('A' for Active; 'I' for Inactive)
REMARK    1  A    between atoms: O_2  and  C_3
REMARK    2  A    between atoms: C_6  and  C_7
REMARK    3  A    between atoms: C_12  and  C_13
REMARK    4  A    between atoms: C_21  and  C_22
REMARK                            x       y       z     vdW  Elec       q    Type
REMARK                         _______ _______ _______ _____ _____    ______ ____
ROOT
ATOM      1  C   UNL     1       0.826   6.034  -5.089  0.00  0.00    +0.135 A 
ATOM      2  C   UNL     1       2.108   5.717  -4.657  0.00  0.00    +0.011 A 
ATOM      3  C   UNL     1       3.138   5.662  -5.588  0.00  0.00    -0.001 A 
ATOM      4  C   UNL     1       2.841   5.616  -6.944  0.00  0.00    -0.000 A 
ATOM      5  C   UNL     1       1.513   5.369  -7.265  0.00  0.00    +0.003 A 
ATOM      6  C   UNL     1       0.480   5.609  -6.367  0.00  0.00    +0.037 A 
ENDROOT
BRANCH   2   7
ATOM      7  C   UNL     1       2.330   5.756  -3.198  0.00  0.00    +0.022 C 
ATOM      8  C   UNL     1       2.698   7.114  -2.681  0.00  0.00    +0.004 C 
ATOM      9  C   UNL     1       2.893   6.979  -1.176  0.00  0.00    +0.000 C 
ATOM     10  C   UNL     1       1.651   6.412  -0.511  0.00  0.00    +0.000 C 
ATOM     11  C   UNL     1       1.319   5.036  -1.039  0.00  0.00    +0.000 C 
ATOM     12  C   UNL     1       2.469   4.092  -0.817  0.00  0.00    +0.000 C 
ATOM     13  C   UNL     1       3.729   4.664  -1.429  0.00  0.00    +0.000 C 
ATOM     14  C   UNL     1       4.028   6.023  -0.857  0.00  0.00    +0.000 C 
ATOM     15  C   UNL     1       1.119   5.164  -2.533  0.00  0.00    +0.004 C 
ATOM     16  C   UNL     1       3.507   4.831  -2.909  0.00  0.00    +0.004 C 
ENDBRANCH   2   7
BRANCH   4  17
ATOM     17  C   UNL     1       3.782   6.087  -7.967  0.00  0.00    -0.000 A 
ATOM     18  C   UNL     1       5.110   5.681  -7.987  0.00  0.00    -0.000 A 
ATOM     19  C   UNL     1       5.849   5.785  -9.158  0.00  0.00    +0.000 A 
ATOM     20  C   UNL     1       5.154   5.973 -10.345  0.00  0.00    +0.000 A 
ATOM     21  C   UNL     1       5.776   5.563 -11.505  0.00  0.00    +0.007 A 
ATOM     22  C   UNL     1       7.151   5.376 -11.560  0.00  0.00    +0.080 A 
ATOM     23  C   UNL     1       7.883   5.637 -10.407  0.00  0.00    +0.007 A 
ATOM     24  C   UNL     1       3.965   6.670 -10.319  0.00  0.00    +0.000 A 
ATOM     25  C   UNL     1       7.223   5.636  -9.185  0.00  0.00    +0.000 A 
ATOM     26  C   UNL     1       3.351   6.801  -9.079  0.00  0.00    -0.000 A 
BRANCH  22  27
ATOM     27  C   UNL     1       7.787   5.297 -12.880  0.00  0.00    +0.388 C 
ATOM     28  O   UNL     1       7.078   4.911 -14.014  0.00  0.00    -0.241 OA
ATOM     29  O   UNL     1       8.958   5.738 -13.068  0.00  0.00    -0.241 OA
ENDBRANCH  22  27
ENDBRANCH   4  17
BRANCH   1  31
ATOM     30  C   UNL     1      -1.090   7.581  -4.925  0.00  0.00    +0.252 C 
ATOM     31  O   UNL     1      -0.003   6.888  -4.355  0.00  0.00    -0.472 OA
ENDBRANCH   1  31
TORSDOF 4
ENDMDL
MODEL 6
REMARK VINA RESULT:     -10.0      2.207      8.772
REMARK  Name = 
REMARK  4 active torsions:
REMARK  status: ('A' for Active; 'I' for Inactive)
REMARK    1  A    between atoms: O_2  and  C_3
REMARK    2  A    between atoms: C_6  and  C_7
REMARK    3  A    between atoms: C_12  and  C_13
REMARK    4  A    between atoms: C_21  and  C_22
REMARK                            x       y       z     vdW  Elec       q    Type
REMARK                         _______ _______ _______ _____ _____    ______ ____
ROOT
ATOM      1  C   UNL     1       0.272   6.254  -5.431  0.00  0.00    +0.135 A 
ATOM      2  C   UNL     1       1.608   5.871  -5.405  0.00  0.00    +0.011 A 
ATOM      3  C   UNL     1       2.301   5.761  -6.604  0.00  0.00    -0.001 A 
ATOM      4  C   UNL     1       1.603   5.728  -7.805  0.00  0.00    -0.000 A 
ATOM      5  C   UNL     1       0.229   5.549  -7.701  0.00  0.00    +0.003 A 
ATOM      6  C   UNL     1      -0.467   5.845  -6.535  0.00  0.00    +0.037 A 
ENDROOT
BRANCH   2   7
ATOM      7  C   UNL     1       2.267   5.901  -4.084  0.00  0.00    +0.022 C 
ATOM      8  C   UNL     1       1.358   5.537  -2.950  0.00  0.00    +0.004 C 
ATOM      9  C   UNL     1       2.185   5.621  -1.672  0.00  0.00    +0.000 C 
ATOM     10  C   UNL     1       3.411   4.728  -1.755  0.00  0.00    +0.000 C 
ATOM     11  C   UNL     1       4.316   5.133  -2.894  0.00  0.00    +0.000 C 
ATOM     12  C   UNL     1       4.758   6.563  -2.737  0.00  0.00    +0.000 C 
ATOM     13  C   UNL     1       3.549   7.463  -2.602  0.00  0.00    +0.000 C 
ATOM     14  C   UNL     1       2.692   7.032  -1.443  0.00  0.00    +0.000 C 
ATOM     15  C   UNL     1       3.502   5.048  -4.166  0.00  0.00    +0.004 C 
ATOM     16  C   UNL     1       2.720   7.338  -3.853  0.00  0.00    +0.004 C 
ENDBRANCH   2   7
BRANCH   4  17
ATOM     17  C   UNL     1       2.209   6.147  -9.073  0.00  0.00    -0.000 A 
ATOM     18  C   UNL     1       3.520   6.596  -9.149  0.00  0.00    -0.000 A 
ATOM     19  C   UNL     1       4.190   6.579 -10.366  0.00  0.00    +0.000 A 
ATOM     20  C   UNL     1       3.650   5.810 -11.388  0.00  0.00    +0.000 A 
ATOM     21  C   UNL     1       4.519   5.369 -12.363  0.00  0.00    +0.007 A 
ATOM     22  C   UNL     1       5.747   5.984 -12.568  0.00  0.00    +0.080 A 
ATOM     23  C   UNL     1       6.063   7.076 -11.768  0.00  0.00    +0.007 A 
ATOM     24  C   UNL     1       2.283   5.647 -11.450  0.00  0.00    +0.000 A 
ATOM     25  C   UNL     1       5.392   7.233 -10.561  0.00  0.00    +0.000 A 
ATOM     26  C   UNL     1       1.573   5.931 -10.290  0.00  0.00    -0.000 A 
BRANCH  22  27
ATOM     27  C   UNL     1       6.456   5.716 -13.825  0.00  0.00    +0.388 C 
ATOM     28  O   UNL     1       6.184   6.433 -14.987  0.00  0.00    -0.241 OA
ATOM     29  O   UNL     1       7.456   4.942 -13.859  0.00  0.00    -0.241 OA
ENDBRANCH  22  27
ENDBRANCH   4  17
BRANCH   1  31
ATOM     30  C   UNL     1      -1.501   7.780  -4.650  0.00  0.00    +0.252 C 
ATOM     31  O   UNL     1      -0.250   7.151  -4.495  0.00  0.00    -0.472 OA
ENDBRANCH   1  31
TORSDOF 4
ENDMDL
MODEL 7
REMARK VINA RESULT:      -9.8      2.764      5.116
REMARK  Name = 
REMARK  4 active torsions:
REMARK  status: ('A' for Active; 'I' for Inactive)
REMARK    1  A    between atoms: O_2  and  C_3
REMARK    2  A    between atoms: C_6  and  C_7
REMARK    3  A    between atoms: C_12  and  C_13
REMARK    4  A    between atoms: C_21  and  C_22
REMARK                            x       y       z     vdW  Elec       q    Type
REMARK                         _______ _______ _______ _____ _____    ______ ____
ROOT
ATOM      1  C   UNL     1       4.705   6.113  -9.891  0.00  0.00    +0.135 A 
ATOM      2  C   UNL     1       3.535   5.595  -9.348  0.00  0.00    +0.011 A 
ATOM      3  C   UNL     1       3.492   5.304  -7.990  0.00  0.00    -0.001 A 
ATOM      4  C   UNL     1       4.673   5.238  -7.261  0.00  0.00    -0.000 A 
ATOM      5  C   UNL     1       5.844   5.216  -8.007  0.00  0.00    +0.003 A 
ATOM      6  C   UNL     1       5.896   5.687  -9.313  0.00  0.00    +0.037 A 
ENDROOT
BRANCH   2   7
ATOM      7  C   UNL     1       2.333   5.674 -10.202  0.00  0.00    +0.022 C 
ATOM      8  C   UNL     1       2.640   5.833 -11.661  0.00  0.00    +0.004 C 
ATOM      9  C   UNL     1       1.304   5.900 -12.391  0.00  0.00    +0.000 C 
ATOM     10  C   UNL     1       0.456   4.675 -12.097  0.00  0.00    +0.000 C 
ATOM     11  C   UNL     1       0.148   4.555 -10.624  0.00  0.00    +0.000 C 
ATOM     12  C   UNL     1      -0.573   5.780 -10.131  0.00  0.00    +0.000 C 
ATOM     13  C   UNL     1       0.234   7.017 -10.461  0.00  0.00    +0.000 C 
ATOM     14  C   UNL     1       0.497   7.103 -11.939  0.00  0.00    +0.000 C 
ATOM     15  C   UNL     1       1.470   4.482  -9.893  0.00  0.00    +0.004 C 
ATOM     16  C   UNL     1       1.567   6.916  -9.766  0.00  0.00    +0.004 C 
ENDBRANCH   2   7
BRANCH   4  17
ATOM     17  C   UNL     1       4.712   5.475  -5.814  0.00  0.00    -0.000 A 
ATOM     18  C   UNL     1       4.641   6.753  -5.276  0.00  0.00    -0.000 A 
ATOM     19  C   UNL     1       4.259   6.927  -3.952  0.00  0.00    +0.000 A 
ATOM     20  C   UNL     1       3.644   5.860  -3.313  0.00  0.00    +0.000 A 
ATOM     21  C   UNL     1       2.821   6.160  -2.248  0.00  0.00    +0.007 A 
ATOM     22  C   UNL     1       2.920   7.372  -1.577  0.00  0.00    +0.080 A 
ATOM     23  C   UNL     1       3.895   8.267  -2.004  0.00  0.00    +0.007 A 
ATOM     24  C   UNL     1       3.986   4.576  -3.676  0.00  0.00    +0.000 A 
ATOM     25  C   UNL     1       4.405   8.132  -3.289  0.00  0.00    +0.000 A 
ATOM     26  C   UNL     1       4.624   4.429  -4.903  0.00  0.00    -0.000 A 
BRANCH  22  27
ATOM     27  C   UNL     1       2.288   7.488  -0.258  0.00  0.00    +0.388 C 
ATOM     28  O   UNL     1       2.187   8.710   0.402  0.00  0.00    -0.241 OA
ATOM     29  O   UNL     1       1.659   6.516   0.253  0.00  0.00    -0.241 OA
ENDBRANCH  22  27
ENDBRANCH   4  17
BRANCH   1  31
ATOM     30  C   UNL     1       5.841   7.805 -11.281  0.00  0.00    +0.252 C 
ATOM     31  O   UNL     1       4.680   7.141 -10.838  0.00  0.00    -0.472 OA
ENDBRANCH   1  31
TORSDOF 4
ENDMDL
MODEL 8
REMARK VINA RESULT:      -9.8      2.972      8.383
REMARK  Name = 
REMARK  4 active torsions:
REMARK  status: ('A' for Active; 'I' for Inactive)
REMARK    1  A    between atoms: O_2  and  C_3
REMARK    2  A    between atoms: C_6  and  C_7
REMARK    3  A    between atoms: C_12  and  C_13
REMARK    4  A    between atoms: C_21  and  C_22
REMARK                            x       y       z     vdW  Elec       q    Type
REMARK                         _______ _______ _______ _____ _____    ______ ____
ROOT
ATOM      1  C   UNL     1       0.288   6.181  -5.843  0.00  0.00    +0.135 A 
ATOM      2  C   UNL     1       1.554   5.616  -5.944  0.00  0.00    +0.011 A 
ATOM      3  C   UNL     1       2.001   5.183  -7.187  0.00  0.00    -0.001 A 
ATOM      4  C   UNL     1       1.098   5.032  -8.231  0.00  0.00    -0.000 A 
ATOM      5  C   UNL     1      -0.245   5.081  -7.882  0.00  0.00    +0.003 A 
ATOM      6  C   UNL     1      -0.681   5.688  -6.710  0.00  0.00    +0.037 A 
ENDROOT
BRANCH   2   7
ATOM      7  C   UNL     1       2.440   5.793  -4.776  0.00  0.00    +0.022 C 
ATOM      8  C   UNL     1       1.713   5.807  -3.466  0.00  0.00    +0.004 C 
ATOM      9  C   UNL     1       2.762   6.000  -2.377  0.00  0.00    +0.000 C 
ATOM     10  C   UNL     1       3.829   4.921  -2.448  0.00  0.00    +0.000 C 
ATOM     11  C   UNL     1       4.556   4.947  -3.772  0.00  0.00    +0.000 C 
ATOM     12  C   UNL     1       5.198   6.289  -3.998  0.00  0.00    +0.000 C 
ATOM     13  C   UNL     1       4.159   7.382  -3.881  0.00  0.00    +0.000 C 
ATOM     14  C   UNL     1       3.478   7.327  -2.540  0.00  0.00    +0.000 C 
ATOM     15  C   UNL     1       3.520   4.752  -4.857  0.00  0.00    +0.004 C 
ATOM     16  C   UNL     1       3.107   7.154  -4.935  0.00  0.00    +0.004 C 
ENDBRANCH   2   7
BRANCH   4  17
ATOM     17  C   UNL     1       1.508   5.114  -9.637  0.00  0.00    -0.000 A 
ATOM     18  C   UNL     1       0.761   4.536 -10.655  0.00  0.00    -0.000 A 
ATOM     19  C   UNL     1       0.920   4.970 -11.965  0.00  0.00    +0.000 A 
ATOM     20  C   UNL     1       1.566   6.182 -12.167  0.00  0.00    +0.000 A 
ATOM     21  C   UNL     1       1.277   6.856 -13.335  0.00  0.00    +0.007 A 
ATOM     22  C   UNL     1       0.729   6.201 -14.430  0.00  0.00    +0.080 A 
ATOM     23  C   UNL     1       0.498   4.835 -14.315  0.00  0.00    +0.007 A 
ATOM     24  C   UNL     1       2.543   6.575 -11.279  0.00  0.00    +0.000 A 
ATOM     25  C   UNL     1       0.401   4.281 -13.045  0.00  0.00    +0.000 A 
ATOM     26  C   UNL     1       2.551   5.936 -10.045  0.00  0.00    -0.000 A 
BRANCH  22  27
ATOM     27  C   UNL     1       0.781   6.870 -15.735  0.00  0.00    +0.388 C 
ATOM     28  O   UNL     1       1.972   7.367 -16.258  0.00  0.00    -0.241 OA
ATOM     29  O   UNL     1      -0.219   6.869 -16.510  0.00  0.00    -0.241 OA
ENDBRANCH  22  27
ENDBRANCH   4  17
BRANCH   1  31
ATOM     30  C   UNL     1      -1.244   7.781  -4.757  0.00  0.00    +0.252 C 
ATOM     31  O   UNL     1       0.050   7.304  -5.045  0.00  0.00    -0.472 OA
ENDBRANCH   1  31
TORSDOF 4
ENDMDL
MODEL 9
REMARK VINA RESULT:      -9.7      3.101      5.306
REMARK  Name = 
REMARK  4 active torsions:
REMARK  status: ('A' for Active; 'I' for Inactive)
REMARK    1  A    between atoms: O_2  and  C_3
REMARK    2  A    between atoms: C_6  and  C_7
REMARK    3  A    between atoms: C_12  and  C_13
REMARK    4  A    between atoms: C_21  and  C_22
REMARK                            x       y       z     vdW  Elec       q    Type
REMARK                         _______ _______ _______ _____ _____    ______ ____
ROOT
ATOM      1  C   UNL     1       4.200   6.109  -9.522  0.00  0.00    +0.135 A 
ATOM      2  C   UNL     1       2.931   5.579  -9.320  0.00  0.00    +0.011 A 
ATOM      3  C   UNL     1       2.529   5.267  -8.027  0.00  0.00    -0.001 A 
ATOM      4  C   UNL     1       3.472   5.193  -7.010  0.00  0.00    -0.000 A 
ATOM      5  C   UNL     1       4.800   5.186  -7.416  0.00  0.00    +0.003 A 
ATOM      6  C   UNL     1       5.196   5.678  -8.654  0.00  0.00    +0.037 A 
ENDROOT
BRANCH   2   7
ATOM      7  C   UNL     1       2.000   5.669 -10.463  0.00  0.00    +0.022 C 
ATOM      8  C   UNL     1       2.686   5.719 -11.795  0.00  0.00    +0.004 C 
ATOM      9  C   UNL     1       1.593   5.812 -12.854  0.00  0.00    +0.000 C 
ATOM     10  C   UNL     1       0.617   4.655 -12.737  0.00  0.00    +0.000 C 
ATOM     11  C   UNL     1      -0.071   4.644 -11.392  0.00  0.00    +0.000 C 
ATOM     12  C   UNL     1      -0.810   5.934 -11.164  0.00  0.00    +0.000 C 
ATOM     13  C   UNL     1       0.137   7.104 -11.327  0.00  0.00    +0.000 C 
ATOM     14  C   UNL     1       0.780   7.082 -12.687  0.00  0.00    +0.000 C 
ATOM     15  C   UNL     1       1.008   4.547 -10.336  0.00  0.00    +0.004 C 
ATOM     16  C   UNL     1       1.233   6.976 -10.302  0.00  0.00    +0.004 C 
ENDBRANCH   2   7
BRANCH   4  17
ATOM     17  C   UNL     1       3.122   5.406  -5.602  0.00  0.00    -0.000 A 
ATOM     18  C   UNL     1       3.831   4.807  -4.569  0.00  0.00    -0.000 A 
ATOM     19  C   UNL     1       3.767   5.335  -3.286  0.00  0.00    +0.000 A 
ATOM     20  C   UNL     1       3.273   6.625  -3.144  0.00  0.00    +0.000 A 
ATOM     21  C   UNL     1       3.677   7.329  -2.030  0.00  0.00    +0.007 A 
ATOM     22  C   UNL     1       4.183   6.682  -0.910  0.00  0.00    +0.080 A 
ATOM     23  C   UNL     1       4.249   5.293  -0.944  0.00  0.00    +0.007 A 
ATOM     24  C   UNL     1       2.319   7.076  -4.030  0.00  0.00    +0.000 A 
ATOM     25  C   UNL     1       4.239   4.656  -2.178  0.00  0.00    +0.000 A 
ATOM     26  C   UNL     1       2.195   6.369  -5.220  0.00  0.00    -0.000 A 
BRANCH  22  27
ATOM     27  C   UNL     1       4.252   7.429   0.351  0.00  0.00    +0.388 C 
ATOM     28  O   UNL     1       4.484   6.794   1.568  0.00  0.00    -0.241 OA
ATOM     29  O   UNL     1       4.274   8.694   0.360  0.00  0.00    -0.241 OA
ENDBRANCH  22  27
ENDBRANCH   4  17
BRANCH   1  31
ATOM     30  C   UNL     1       5.703   7.499 -10.899  0.00  0.00    +0.252 C 
ATOM     31  O   UNL     1       4.422   7.152 -10.426  0.00  0.00    -0.472 OA
ENDBRANCH   1  31
TORSDOF 4
ENDMDL
