MODEL 1
REMARK VINA RESULT:      -5.6      0.000      0.000
REMARK  Name = 
REMARK  2 active torsions:
REMARK  status: ('A' for Active; 'I' for Inactive)
REMARK    1  A    between atoms: C_2  and  C_3
REMARK    2  A    between atoms: C_3  and  C_4
REMARK                            x       y       z     vdW  Elec       q    Type
REMARK                         _______ _______ _______ _____ _____    ______ ____
ROOT
ATOM      1  C   UNL     1       6.555   6.543 -10.538  0.00  0.00    -0.017 A 
ATOM      2  C   UNL     1       5.233   6.740 -10.894  0.00  0.00    +0.041 A 
ATOM      3  C   UNL     1       4.276   6.198 -10.052  0.00  0.00    +0.234 A 
ATOM      4  O   UNL     1       2.916   6.481 -10.210  0.00  0.00    -0.283 OA
ATOM      5  C   UNL     1       4.579   5.211  -9.123  0.00  0.00    +0.234 A 
ATOM      6  O   UNL     1       3.748   4.098  -8.962  0.00  0.00    -0.283 OA
ATOM      7  C   UNL     1       5.895   5.134  -8.691  0.00  0.00    +0.045 A 
ATOM      8  C   UNL     1       6.876   5.810  -9.406  0.00  0.00    -0.001 A 
ENDROOT
BRANCH   1   9
ATOM      9  C   UNL     1       7.573   6.818 -11.581  0.00  0.00    +0.047 C 
BRANCH   9  11
ATOM     10  N   UNL     1       7.716   4.745 -12.814  0.00  0.00    -0.131 NA
ATOM     11  C   UNL     1       8.422   5.591 -11.864  0.00  0.00    +0.114 C 
ENDBRANCH   9  11
ENDBRANCH   1   9
TORSDOF 2
ENDMDL
MODEL 2
REMARK VINA RESULT:      -5.4      7.811      9.456
REMARK  Name = 
REMARK  2 active torsions:
REMARK  status: ('A' for Active; 'I' for Inactive)
REMARK    1  A    between atoms: C_2  and  C_3
REMARK    2  A    between atoms: C_3  and  C_4
REMARK                            x       y       z     vdW  Elec       q    Type
REMARK                         _______ _______ _______ _____ _____    ______ ____
ROOT
ATOM      1  C   UNL     1      -1.792   6.563  -5.118  0.00  0.00    -0.017 A 
ATOM      2  C   UNL     1      -0.492   7.001  -4.949  0.00  0.00    +0.041 A 
ATOM      3  C   UNL     1       0.421   6.626  -5.920  0.00  0.00    +0.234 A 
ATOM      4  O   UNL     1       1.716   7.153  -5.952  0.00  0.00    -0.283 OA
ATOM      5  C   UNL     1       0.176   5.584  -6.806  0.00  0.00    +0.234 A 
ATOM      6  O   UNL     1       1.164   4.638  -7.091  0.00  0.00    -0.283 OA
ATOM      7  C   UNL     1      -1.152   5.264  -7.050  0.00  0.00    +0.045 A 
ATOM      8  C   UNL     1      -2.129   5.764  -6.200  0.00  0.00    -0.001 A 
ENDROOT
BRANCH   1   9
ATOM      9  C   UNL     1      -2.689   6.667  -3.940  0.00  0.00    +0.047 C 
BRANCH   9  11
ATOM     10  N   UNL     1      -2.524   4.954  -2.245  0.00  0.00    -0.131 NA
ATOM     11  C   UNL     1      -3.181   5.301  -3.496  0.00  0.00    +0.114 C 
ENDBRANCH   9  11
ENDBRANCH   1   9
TORSDOF 2
ENDMDL
MODEL 3
REMARK VINA RESULT:      -5.1      3.294      4.202
REMARK  Name = 
REMARK  2 active torsions:
REMARK  status: ('A' for Active; 'I' for Inactive)
REMARK    1  A    between atoms: C_2  and  C_3
REMARK    2  A    between atoms: C_3  and  C_4
REMARK                            x       y       z     vdW  Elec       q    Type
REMARK                         _______ _______ _______ _____ _____    ______ ____
ROOT
ATOM      1  C   UNL     1       5.602   5.997 -10.595  0.00  0.00    -0.017 A 
ATOM      2  C   UNL     1       5.789   5.734 -11.940  0.00  0.00    +0.041 A 
ATOM      3  C   UNL     1       7.042   5.280 -12.315  0.00  0.00    +0.234 A 
ATOM      4  O   UNL     1       7.296   4.813 -13.608  0.00  0.00    -0.283 OA
ATOM      5  C   UNL     1       8.158   5.423 -11.499  0.00  0.00    +0.234 A 
ATOM      6  O   UNL     1       9.379   5.853 -12.025  0.00  0.00    -0.283 OA
ATOM      7  C   UNL     1       7.930   5.552 -10.137  0.00  0.00    +0.045 A 
ATOM      8  C   UNL     1       6.644   5.835  -9.696  0.00  0.00    -0.001 A 
ENDROOT
BRANCH   1   9
ATOM      9  C   UNL     1       4.399   6.788 -10.232  0.00  0.00    +0.047 C 
BRANCH   9  11
ATOM     10  N   UNL     1       3.052   4.891  -9.581  0.00  0.00    -0.131 NA
ATOM     11  C   UNL     1       3.123   6.012 -10.505  0.00  0.00    +0.114 C 
ENDBRANCH   9  11
ENDBRANCH   1   9
TORSDOF 2
ENDMDL
MODEL 4
REMARK VINA RESULT:      -5.0      0.993      2.097
REMARK  Name = 
REMARK  2 active torsions:
REMARK  status: ('A' for Active; 'I' for Inactive)
REMARK    1  A    between atoms: C_2  and  C_3
REMARK    2  A    between atoms: C_3  and  C_4
REMARK                            x       y       z     vdW  Elec       q    Type
REMARK                         _______ _______ _______ _____ _____    ______ ____
ROOT
ATOM      1  C   UNL     1       6.322   6.264 -10.889  0.00  0.00    -0.017 A 
ATOM      2  C   UNL     1       6.389   5.771  -9.599  0.00  0.00    +0.041 A 
ATOM      3  C   UNL     1       5.189   5.649  -8.918  0.00  0.00    +0.234 A 
ATOM      4  O   UNL     1       5.111   5.000  -7.682  0.00  0.00    -0.283 OA
ATOM      5  C   UNL     1       4.036   6.309  -9.324  0.00  0.00    +0.234 A 
ATOM      6  O   UNL     1       3.218   6.960  -8.395  0.00  0.00    -0.283 OA
ATOM      7  C   UNL     1       3.952   6.670 -10.660  0.00  0.00    +0.045 A 
ATOM      8  C   UNL     1       5.104   6.638 -11.436  0.00  0.00    -0.001 A 
ENDROOT
BRANCH   1   9
ATOM      9  C   UNL     1       7.599   6.710 -11.499  0.00  0.00    +0.047 C 
BRANCH   9  11
ATOM     10  N   UNL     1       7.815   4.758 -12.905  0.00  0.00    -0.131 NA
ATOM     11  C   UNL     1       8.480   5.530 -11.866  0.00  0.00    +0.114 C 
ENDBRANCH   9  11
ENDBRANCH   1   9
TORSDOF 2
ENDMDL
MODEL 5
REMARK VINA RESULT:      -5.0      6.877      8.246
REMARK  Name = 
REMARK  2 active torsions:
REMARK  status: ('A' for Active; 'I' for Inactive)
REMARK    1  A    between atoms: C_2  and  C_3
REMARK    2  A    between atoms: C_3  and  C_4
REMARK                            x       y       z     vdW  Elec       q    Type
REMARK                         _______ _______ _______ _____ _____    ______ ____
ROOT
ATOM      1  C   UNL     1      -0.090   5.639  -6.442  0.00  0.00    -0.017 A 
ATOM      2  C   UNL     1       0.232   5.676  -5.097  0.00  0.00    +0.041 A 
ATOM      3  C   UNL     1      -0.820   5.570  -4.203  0.00  0.00    +0.234 A 
ATOM      4  O   UNL     1      -0.603   5.416  -2.831  0.00  0.00    -0.283 OA
ATOM      5  C   UNL     1      -2.139   5.786  -4.582  0.00  0.00    +0.234 A 
ATOM      6  O   UNL     1      -2.997   6.550  -3.786  0.00  0.00    -0.283 OA
ATOM      7  C   UNL     1      -2.448   5.609  -5.923  0.00  0.00    +0.045 A 
ATOM      8  C   UNL     1      -1.412   5.531  -6.844  0.00  0.00    -0.001 A 
ENDROOT
BRANCH   1   9
ATOM      9  C   UNL     1       0.962   6.082  -7.391  0.00  0.00    +0.047 C 
BRANCH   9  11
ATOM     10  N   UNL     1       2.148   8.125  -7.895  0.00  0.00    -0.131 NA
ATOM     11  C   UNL     1       1.784   7.220  -6.815  0.00  0.00    +0.114 C 
ENDBRANCH   9  11
ENDBRANCH   1   9
TORSDOF 2
ENDMDL
MODEL 6
REMARK VINA RESULT:      -5.0      3.415      4.491
REMARK  Name = 
REMARK  2 active torsions:
REMARK  status: ('A' for Active; 'I' for Inactive)
REMARK    1  A    between atoms: C_2  and  C_3
REMARK    2  A    between atoms: C_3  and  C_4
REMARK                            x       y       z     vdW  Elec       q    Type
REMARK                         _______ _______ _______ _____ _____    ______ ____
ROOT
ATOM      1  C   UNL     1       5.816   5.651  -9.673  0.00  0.00    -0.017 A 
ATOM      2  C   UNL     1       7.180   5.729  -9.890  0.00  0.00    +0.041 A 
ATOM      3  C   UNL     1       7.596   5.801 -11.208  0.00  0.00    +0.234 A 
ATOM      4  O   UNL     1       8.928   6.062 -11.543  0.00  0.00    -0.283 OA
ATOM      5  C   UNL     1       6.769   5.447 -12.267  0.00  0.00    +0.234 A 
ATOM      6  O   UNL     1       7.250   4.664 -13.321  0.00  0.00    -0.283 OA
ATOM      7  C   UNL     1       5.401   5.510 -12.048  0.00  0.00    +0.045 A 
ATOM      8  C   UNL     1       4.936   5.617 -10.744  0.00  0.00    -0.001 A 
ENDROOT
BRANCH   1   9
ATOM      9  C   UNL     1       5.380   5.241  -8.315  0.00  0.00    +0.047 C 
BRANCH   9  11
ATOM     10  N   UNL     1       3.115   4.659  -7.708  0.00  0.00    -0.131 NA
ATOM     11  C   UNL     1       3.998   5.780  -7.991  0.00  0.00    +0.114 C 
ENDBRANCH   9  11
ENDBRANCH   1   9
TORSDOF 2
ENDMDL
MODEL 7
REMARK VINA RESULT:      -4.8      6.250      7.995
REMARK  Name = 
REMARK  2 active torsions:
REMARK  status: ('A' for Active; 'I' for Inactive)
REMARK    1  A    between atoms: C_2  and  C_3
REMARK    2  A    between atoms: C_3  and  C_4
REMARK                            x       y       z     vdW  Elec       q    Type
REMARK                         _______ _______ _______ _____ _____    ______ ____
ROOT
ATOM      1  C   UNL     1      -0.515   5.392  -6.948  0.00  0.00    -0.017 A 
ATOM      2  C   UNL     1       0.386   4.807  -6.078  0.00  0.00    +0.041 A 
ATOM      3  C   UNL     1       1.651   4.545  -6.576  0.00  0.00    +0.234 A 
ATOM      4  O   UNL     1       2.694   4.123  -5.746  0.00  0.00    -0.283 OA
ATOM      5  C   UNL     1       1.918   4.509  -7.940  0.00  0.00    +0.234 A 
ATOM      6  O   UNL     1       2.702   3.491  -8.490  0.00  0.00    -0.283 OA
ATOM      7  C   UNL     1       1.062   5.221  -8.768  0.00  0.00    +0.045 A 
ATOM      8  C   UNL     1      -0.151   5.662  -8.259  0.00  0.00    -0.001 A 
ENDROOT
BRANCH   1   9
ATOM      9  C   UNL     1      -1.942   5.370  -6.543  0.00  0.00    +0.047 C 
BRANCH   9  11
ATOM     10  N   UNL     1      -2.739   5.482  -4.265  0.00  0.00    -0.131 NA
ATOM     11  C   UNL     1      -2.195   6.279  -5.354  0.00  0.00    +0.114 C 
ENDBRANCH   9  11
ENDBRANCH   1   9
TORSDOF 2
ENDMDL
MODEL 8
REMARK VINA RESULT:      -4.7      1.468      1.763
REMARK  Name = 
REMARK  2 active torsions:
REMARK  status: ('A' for Active; 'I' for Inactive)
REMARK    1  A    between atoms: C_2  and  C_3
REMARK    2  A    between atoms: C_3  and  C_4
REMARK                            x       y       z     vdW  Elec       q    Type
REMARK                         _______ _______ _______ _____ _____    ______ ____
ROOT
ATOM      1  C   UNL     1       5.068   5.993 -10.192  0.00  0.00    -0.017 A 
ATOM      2  C   UNL     1       3.885   6.704 -10.095  0.00  0.00    +0.041 A 
ATOM      3  C   UNL     1       3.333   6.823  -8.830  0.00  0.00    +0.234 A 
ATOM      4  O   UNL     1       2.244   7.662  -8.582  0.00  0.00    -0.283 OA
ATOM      5  C   UNL     1       3.704   5.993  -7.779  0.00  0.00    +0.234 A 
ATOM      6  O   UNL     1       2.741   5.433  -6.935  0.00  0.00    -0.283 OA
ATOM      7  C   UNL     1       4.957   5.402  -7.853  0.00  0.00    +0.045 A 
ATOM      8  C   UNL     1       5.632   5.413  -9.066  0.00  0.00    -0.001 A 
ENDROOT
BRANCH   1   9
ATOM      9  C   UNL     1       5.485   5.577 -11.553  0.00  0.00    +0.047 C 
BRANCH   9  11
ATOM     10  N   UNL     1       7.552   4.749 -12.492  0.00  0.00    -0.131 NA
ATOM     11  C   UNL     1       6.952   5.880 -11.800  0.00  0.00    +0.114 C 
ENDBRANCH   9  11
ENDBRANCH   1   9
TORSDOF 2
ENDMDL
MODEL 9
REMARK VINA RESULT:      -4.7      3.397      4.353
REMARK  Name = 
REMARK  2 active torsions:
REMARK  status: ('A' for Active; 'I' for Inactive)
REMARK    1  A    between atoms: C_2  and  C_3
REMARK    2  A    between atoms: C_3  and  C_4
REMARK                            x       y       z     vdW  Elec       q    Type
REMARK                         _______ _______ _______ _____ _____    ______ ____
ROOT
ATOM      1  C   UNL     1       4.739   5.679  -9.790  0.00  0.00    -0.017 A 
ATOM      2  C   UNL     1       4.853   5.543 -11.162  0.00  0.00    +0.041 A 
ATOM      3  C   UNL     1       6.132   5.376 -11.665  0.00  0.00    +0.234 A 
ATOM      4  O   UNL     1       6.355   5.051 -13.006  0.00  0.00    -0.283 OA
ATOM      5  C   UNL     1       7.266   5.691 -10.926  0.00  0.00    +0.234 A 
ATOM      6  O   UNL     1       8.328   6.390 -11.507  0.00  0.00    -0.283 OA
ATOM      7  C   UNL     1       7.141   5.687  -9.545  0.00  0.00    +0.045 A 
ATOM      8  C   UNL     1       5.869   5.676  -8.987  0.00  0.00    -0.001 A 
ENDROOT
BRANCH   1   9
ATOM      9  C   UNL     1       3.442   6.187  -9.277  0.00  0.00    +0.047 C 
BRANCH   9  11
ATOM     10  N   UNL     1       2.763   7.531  -7.388  0.00  0.00    -0.131 NA
ATOM     11  C   UNL     1       3.453   6.306  -7.764  0.00  0.00    +0.114 C 
ENDBRANCH   9  11
ENDBRANCH   1   9
TORSDOF 2
ENDMDL
