MODEL 1
REMARK VINA RESULT:      -7.7      0.000      0.000
REMARK  Name = 
REMARK  4 active torsions:
REMARK  status: ('A' for Active; 'I' for Inactive)
REMARK    1  A    between atoms: CA_3  and  C_4
REMARK    2  A    between atoms: CA_10  and  N_11
REMARK    3  A    between atoms: C_12  and  CA_14
REMARK    4  A    between atoms: CA_14  and  C_16
REMARK                            x       y       z     vdW  Elec       q    Type
REMARK                         _______ _______ _______ _____ _____    ______ ____
ROOT
ATOM      1  C   UNL     1       3.760   5.087  -3.446  0.00  0.00    +0.029 C 
ATOM      2  C   UNL     1       3.154   5.254  -4.383  0.00  0.00    -0.013 C 
ATOM      3  C   UNL     1       2.872   4.031  -5.187  0.00  0.00    +0.083 C 
ATOM      4  S   UNL     1       1.423   4.168  -6.226  0.00  0.00    -0.114 S 
ATOM      5  C   UNL     1       0.987   6.023  -6.139  0.00  0.00    +0.157 C 
ATOM      6  N   UNL     1       2.393   6.596  -6.224  0.00  0.00    -0.242 N 
ATOM      7  C   UNL     1       2.063   7.566  -7.238  0.00  0.00    +0.253 C 
ATOM      8  O   UNL     1       2.598   8.476  -7.870  0.00  0.00    -0.273 OA
ATOM      9  CA  UNL     1       0.992   6.472  -7.775  0.00  0.00    +0.200 C 
ATOM     10  CA  UNL     1       3.176   6.409  -5.050  0.00  0.00    +0.128 C 
ENDROOT
BRANCH   9  11
ATOM     11  N   UNL     1       2.163   5.489  -8.231  0.00  0.00    -0.194 NA
ATOM     12  C   UNL     1       2.291   5.707  -9.636  0.00  0.00    +0.264 C 
ATOM     13  O   UNL     1       1.280   5.748 -10.398  0.00  0.00    -0.271 OA
BRANCH  12  14
ATOM     14  CA  UNL     1       3.537   4.898 -10.317  0.00  0.00    +0.191 C 
ATOM     15  N   UNL     1       3.742   3.994  -9.012  0.00  0.00    -0.118 NA
BRANCH  14  16
ATOM     16  C   UNL     1       4.594   6.040  -9.807  0.00  0.00    +0.004 A 
ATOM     17  C   UNL     1       4.751   7.027 -10.778  0.00  0.00    +0.001 A 
ATOM     18  C   UNL     1       6.011   7.480 -11.154  0.00  0.00    +0.042 A 
ATOM     19  C   UNL     1       7.152   6.905 -10.609  0.00  0.00    +0.196 A 
ATOM     20  O   UNL     1       8.324   6.796 -11.359  0.00  0.00    -0.287 OA
ATOM     21  C   UNL     1       6.985   6.183  -9.434  0.00  0.00    +0.042 A 
ATOM     22  C   UNL     1       5.750   5.570  -9.258  0.00  0.00    +0.001 A 
ENDBRANCH  14  16
ENDBRANCH  12  14
ENDBRANCH   9  11
BRANCH  10  23
ATOM     23  C   UNL     1       4.195   7.396  -4.658  0.00  0.00    +0.401 C 
ATOM     24  OXT UNL     1       4.009   8.080  -3.455  0.00  0.00    -0.239 OA
ATOM     25  O   UNL     1       5.376   7.167  -5.026  0.00  0.00    -0.239 OA
ENDBRANCH  10  23
TORSDOF 4
ENDMDL
MODEL 2
REMARK VINA RESULT:      -7.6      4.685      7.084
REMARK  Name = 
REMARK  4 active torsions:
REMARK  status: ('A' for Active; 'I' for Inactive)
REMARK    1  A    between atoms: CA_3  and  C_4
REMARK    2  A    between atoms: CA_10  and  N_11
REMARK    3  A    between atoms: C_12  and  CA_14
REMARK    4  A    between atoms: CA_14  and  C_16
REMARK                            x       y       z     vdW  Elec       q    Type
REMARK                         _______ _______ _______ _____ _____    ______ ____
ROOT
ATOM      1  C   UNL     1       2.578   9.454   0.588  0.00  0.00    +0.029 C 
ATOM      2  C   UNL     1       2.858   8.528   0.008  0.00  0.00    -0.013 C 
ATOM      3  C   UNL     1       3.675   8.765  -1.216  0.00  0.00    +0.083 C 
ATOM      4  S   UNL     1       4.647   7.351  -1.721  0.00  0.00    -0.114 S 
ATOM      5  C   UNL     1       3.969   5.936  -0.638  0.00  0.00    +0.157 C 
ATOM      6  N   UNL     1       2.488   6.269  -0.720  0.00  0.00    -0.242 N 
ATOM      7  C   UNL     1       2.081   4.921  -1.025  0.00  0.00    +0.253 C 
ATOM      8  O   UNL     1       1.051   4.277  -1.220  0.00  0.00    -0.273 OA
ATOM      9  CA  UNL     1       3.504   4.787  -1.796  0.00  0.00    +0.200 C 
ATOM     10  CA  UNL     1       2.104   7.428   0.013  0.00  0.00    +0.128 C 
ENDROOT
BRANCH   9  11
ATOM     11  N   UNL     1       3.043   5.829  -2.912  0.00  0.00    -0.194 NA
ATOM     12  C   UNL     1       2.955   5.058  -4.111  0.00  0.00    +0.264 C 
ATOM     13  O   UNL     1       3.872   4.255  -4.454  0.00  0.00    -0.271 OA
BRANCH  12  14
ATOM     14  CA  UNL     1       2.364   5.892  -5.387  0.00  0.00    +0.191 C 
ATOM     15  N   UNL     1       1.872   7.094  -4.451  0.00  0.00    -0.118 NA
BRANCH  14  16
ATOM     16  C   UNL     1       0.935   5.099  -5.278  0.00  0.00    +0.004 A 
ATOM     17  C   UNL     1       0.386   4.909  -6.546  0.00  0.00    +0.001 A 
ATOM     18  C   UNL     1      -0.951   5.192  -6.805  0.00  0.00    +0.042 A 
ATOM     19  C   UNL     1      -1.756   5.734  -5.812  0.00  0.00    +0.196 A 
ATOM     20  O   UNL     1      -2.785   6.622  -6.133  0.00  0.00    -0.287 OA
ATOM     21  C   UNL     1      -1.304   5.606  -4.504  0.00  0.00    +0.042 A 
ATOM     22  C   UNL     1       0.074   5.563  -4.331  0.00  0.00    +0.001 A 
ENDBRANCH  14  16
ENDBRANCH  12  14
ENDBRANCH   9  11
BRANCH  10  23
ATOM     23  C   UNL     1       0.767   7.529   0.618  0.00  0.00    +0.401 C 
ATOM     24  OXT UNL     1      -0.332   7.599  -0.241  0.00  0.00    -0.239 OA
ATOM     25  O   UNL     1       0.606   6.968   1.732  0.00  0.00    -0.239 OA
ENDBRANCH  10  23
TORSDOF 4
ENDMDL
MODEL 3
REMARK VINA RESULT:      -7.5      2.455      6.425
REMARK  Name = 
REMARK  4 active torsions:
REMARK  status: ('A' for Active; 'I' for Inactive)
REMARK    1  A    between atoms: CA_3  and  C_4
REMARK    2  A    between atoms: CA_10  and  N_11
REMARK    3  A    between atoms: C_12  and  CA_14
REMARK    4  A    between atoms: CA_14  and  C_16
REMARK                            x       y       z     vdW  Elec       q    Type
REMARK                         _______ _______ _______ _____ _____    ______ ____
ROOT
ATOM      1  C   UNL     1       1.536   6.807 -12.559  0.00  0.00    +0.029 C 
ATOM      2  C   UNL     1       1.601   6.244 -11.584  0.00  0.00    -0.013 C 
ATOM      3  C   UNL     1       0.540   6.566 -10.588  0.00  0.00    +0.083 C 
ATOM      4  S   UNL     1       0.245   5.263  -9.399  0.00  0.00    -0.114 S 
ATOM      5  C   UNL     1       1.698   4.062  -9.686  0.00  0.00    +0.157 C 
ATOM      6  N   UNL     1       2.811   5.082  -9.865  0.00  0.00    -0.242 N 
ATOM      7  C   UNL     1       3.721   4.423  -8.962  0.00  0.00    +0.253 C 
ATOM      8  O   UNL     1       4.869   4.546  -8.537  0.00  0.00    -0.273 OA
ATOM      9  CA  UNL     1       2.396   3.965  -8.143  0.00  0.00    +0.200 C 
ATOM     10  CA  UNL     1       2.759   5.801 -11.093  0.00  0.00    +0.128 C 
ENDROOT
BRANCH   9  11
ATOM     11  N   UNL     1       2.093   5.470  -7.711  0.00  0.00    -0.194 NA
ATOM     12  C   UNL     1       1.861   5.401  -6.303  0.00  0.00    +0.264 C 
ATOM     13  O   UNL     1       1.104   4.521  -5.796  0.00  0.00    -0.271 OA
BRANCH  12  14
ATOM     14  CA  UNL     1       1.657   6.862  -5.598  0.00  0.00    +0.191 C 
ATOM     15  N   UNL     1       2.666   7.565  -6.623  0.00  0.00    -0.118 NA
BRANCH  14  16
ATOM     16  C   UNL     1       2.839   6.534  -4.513  0.00  0.00    +0.004 A 
ATOM     17  C   UNL     1       2.294   6.329  -3.247  0.00  0.00    +0.001 A 
ATOM     18  C   UNL     1       2.831   6.942  -2.120  0.00  0.00    +0.042 A 
ATOM     19  C   UNL     1       3.893   7.829  -2.245  0.00  0.00    +0.196 A 
ATOM     20  O   UNL     1       4.019   8.917  -1.380  0.00  0.00    -0.287 OA
ATOM     21  C   UNL     1       4.621   7.767  -3.427  0.00  0.00    +0.042 A 
ATOM     22  C   UNL     1       3.924   7.357  -4.558  0.00  0.00    +0.001 A 
ENDBRANCH  14  16
ENDBRANCH  12  14
ENDBRANCH   9  11
BRANCH  10  23
ATOM     23  C   UNL     1       3.992   6.267 -11.747  0.00  0.00    +0.401 C 
ATOM     24  OXT UNL     1       4.769   7.212 -11.072  0.00  0.00    -0.239 OA
ATOM     25  O   UNL     1       4.584   5.444 -12.491  0.00  0.00    -0.239 OA
ENDBRANCH  10  23
TORSDOF 4
ENDMDL
MODEL 4
REMARK VINA RESULT:      -7.3      2.969      4.186
REMARK  Name = 
REMARK  4 active torsions:
REMARK  status: ('A' for Active; 'I' for Inactive)
REMARK    1  A    between atoms: CA_3  and  C_4
REMARK    2  A    between atoms: CA_10  and  N_11
REMARK    3  A    between atoms: C_12  and  CA_14
REMARK    4  A    between atoms: CA_14  and  C_16
REMARK                            x       y       z     vdW  Elec       q    Type
REMARK                         _______ _______ _______ _____ _____    ______ ____
ROOT
ATOM      1  C   UNL     1       2.865   7.350  -2.713  0.00  0.00    +0.029 C 
ATOM      2  C   UNL     1       2.856   6.676  -3.618  0.00  0.00    -0.013 C 
ATOM      3  C   UNL     1       3.933   6.930  -4.615  0.00  0.00    +0.083 C 
ATOM      4  S   UNL     1       4.322   5.514  -5.636  0.00  0.00    -0.114 S 
ATOM      5  C   UNL     1       2.914   4.288  -5.251  0.00  0.00    +0.157 C 
ATOM      6  N   UNL     1       1.753   5.269  -5.222  0.00  0.00    -0.242 N 
ATOM      7  C   UNL     1       0.902   4.468  -6.067  0.00  0.00    +0.253 C 
ATOM      8  O   UNL     1      -0.236   4.488  -6.534  0.00  0.00    -0.273 OA
ATOM      9  CA  UNL     1       2.270   3.981  -6.790  0.00  0.00    +0.200 C 
ATOM     10  CA  UNL     1       1.734   6.126  -4.085  0.00  0.00    +0.128 C 
ENDROOT
BRANCH   9  11
ATOM     11  N   UNL     1       2.522   5.439  -7.387  0.00  0.00    -0.194 NA
ATOM     12  C   UNL     1       2.836   5.217  -8.762  0.00  0.00    +0.264 C 
ATOM     13  O   UNL     1       3.662   4.326  -9.121  0.00  0.00    -0.271 OA
BRANCH  12  14
ATOM     14  CA  UNL     1       3.006   6.593  -9.628  0.00  0.00    +0.191 C 
ATOM     15  N   UNL     1       1.998   7.390  -8.673  0.00  0.00    -0.118 NA
BRANCH  14  16
ATOM     16  C   UNL     1       1.816   6.129 -10.652  0.00  0.00    +0.004 A 
ATOM     17  C   UNL     1       2.338   5.864 -11.918  0.00  0.00    +0.001 A 
ATOM     18  C   UNL     1       1.739   6.368 -13.067  0.00  0.00    +0.042 A 
ATOM     19  C   UNL     1       0.634   7.204 -12.971  0.00  0.00    +0.196 A 
ATOM     20  O   UNL     1       0.426   8.221 -13.905  0.00  0.00    -0.287 OA
ATOM     21  C   UNL     1      -0.059   7.187 -11.767  0.00  0.00    +0.042 A 
ATOM     22  C   UNL     1       0.689   6.894 -10.632  0.00  0.00    +0.001 A 
ENDBRANCH  14  16
ENDBRANCH  12  14
ENDBRANCH   9  11
BRANCH  10  23
ATOM     23  C   UNL     1       0.462   6.606  -3.523  0.00  0.00    +0.401 C 
ATOM     24  OXT UNL     1      -0.405   7.298  -4.373  0.00  0.00    -0.239 OA
ATOM     25  O   UNL     1      -0.046   5.917  -2.602  0.00  0.00    -0.239 OA
ENDBRANCH  10  23
TORSDOF 4
ENDMDL
MODEL 5
REMARK VINA RESULT:      -7.0      4.852      6.787
REMARK  Name = 
REMARK  4 active torsions:
REMARK  status: ('A' for Active; 'I' for Inactive)
REMARK    1  A    between atoms: CA_3  and  C_4
REMARK    2  A    between atoms: CA_10  and  N_11
REMARK    3  A    between atoms: C_12  and  CA_14
REMARK    4  A    between atoms: CA_14  and  C_16
REMARK                            x       y       z     vdW  Elec       q    Type
REMARK                         _______ _______ _______ _____ _____    ______ ____
ROOT
ATOM      1  C   UNL     1       3.821   6.091  -0.704  0.00  0.00    +0.029 C 
ATOM      2  C   UNL     1       2.707   6.097  -0.882  0.00  0.00    -0.013 C 
ATOM      3  C   UNL     1       2.267   5.550  -2.197  0.00  0.00    +0.083 C 
ATOM      4  S   UNL     1       0.583   4.949  -2.203  0.00  0.00    -0.114 S 
ATOM      5  C   UNL     1      -0.120   5.578  -0.545  0.00  0.00    +0.157 C 
ATOM      6  N   UNL     1       0.494   6.969  -0.545  0.00  0.00    -0.242 N 
ATOM      7  C   UNL     1      -0.735   7.639  -0.202  0.00  0.00    +0.253 C 
ATOM      8  O   UNL     1      -1.145   8.774   0.038  0.00  0.00    -0.273 OA
ATOM      9  CA  UNL     1      -1.477   6.466  -1.042  0.00  0.00    +0.200 C 
ATOM     10  CA  UNL     1       1.899   6.992  -0.313  0.00  0.00    +0.128 C 
ENDROOT
BRANCH   9  11
ATOM     11  N   UNL     1      -0.856   6.998  -2.412  0.00  0.00    -0.194 NA
ATOM     12  C   UNL     1      -1.988   7.334  -3.214  0.00  0.00    +0.264 C 
ATOM     13  O   UNL     1      -2.980   6.554  -3.327  0.00  0.00    -0.271 OA
BRANCH  12  14
ATOM     14  CA  UNL     1      -1.599   8.038  -4.638  0.00  0.00    +0.191 C 
ATOM     15  N   UNL     1      -3.004   7.635  -5.290  0.00  0.00    -0.118 NA
BRANCH  14  16
ATOM     16  C   UNL     1      -0.863   6.666  -5.146  0.00  0.00    +0.004 A 
ATOM     17  C   UNL     1       0.449   6.933  -5.535  0.00  0.00    +0.001 A 
ATOM     18  C   UNL     1       0.963   6.444  -6.731  0.00  0.00    +0.042 A 
ATOM     19  C   UNL     1       0.151   5.726  -7.600  0.00  0.00    +0.196 A 
ATOM     20  O   UNL     1       0.338   5.806  -8.981  0.00  0.00    -0.287 OA
ATOM     21  C   UNL     1      -1.017   5.195  -7.066  0.00  0.00    +0.042 A 
ATOM     22  C   UNL     1      -1.584   5.896  -6.008  0.00  0.00    +0.001 A 
ENDBRANCH  14  16
ENDBRANCH  12  14
ENDBRANCH   9  11
BRANCH  10  23
ATOM     23  C   UNL     1       2.529   8.127   0.381  0.00  0.00    +0.401 C 
ATOM     24  OXT UNL     1       2.857   9.252  -0.379  0.00  0.00    -0.239 OA
ATOM     25  O   UNL     1       2.209   8.303   1.584  0.00  0.00    -0.239 OA
ENDBRANCH  10  23
TORSDOF 4
ENDMDL
MODEL 6
REMARK VINA RESULT:      -6.9      3.823      5.708
REMARK  Name = 
REMARK  4 active torsions:
REMARK  status: ('A' for Active; 'I' for Inactive)
REMARK    1  A    between atoms: CA_3  and  C_4
REMARK    2  A    between atoms: CA_10  and  N_11
REMARK    3  A    between atoms: C_12  and  CA_14
REMARK    4  A    between atoms: CA_14  and  C_16
REMARK                            x       y       z     vdW  Elec       q    Type
REMARK                         _______ _______ _______ _____ _____    ______ ____
ROOT
ATOM      1  C   UNL     1       2.538   9.354   0.735  0.00  0.00    +0.029 C 
ATOM      2  C   UNL     1       2.789   8.444   0.118  0.00  0.00    -0.013 C 
ATOM      3  C   UNL     1       3.655   8.695  -1.068  0.00  0.00    +0.083 C 
ATOM      4  S   UNL     1       4.569   7.258  -1.614  0.00  0.00    -0.114 S 
ATOM      5  C   UNL     1       3.785   5.830  -0.622  0.00  0.00    +0.157 C 
ATOM      6  N   UNL     1       2.326   6.245  -0.731  0.00  0.00    -0.242 N 
ATOM      7  C   UNL     1       1.861   4.936  -1.115  0.00  0.00    +0.253 C 
ATOM      8  O   UNL     1       0.805   4.358  -1.371  0.00  0.00    -0.273 OA
ATOM      9  CA  UNL     1       3.298   4.764  -1.849  0.00  0.00    +0.200 C 
ATOM     10  CA  UNL     1       1.979   7.386   0.047  0.00  0.00    +0.128 C 
ENDROOT
BRANCH   9  11
ATOM     11  N   UNL     1       2.927   5.881  -2.925  0.00  0.00    -0.194 NA
ATOM     12  C   UNL     1       3.317   5.319  -4.179  0.00  0.00    +0.264 C 
ATOM     13  O   UNL     1       4.441   4.756  -4.334  0.00  0.00    -0.271 OA
BRANCH  12  14
ATOM     14  CA  UNL     1       2.908   6.237  -5.467  0.00  0.00    +0.191 C 
ATOM     15  N   UNL     1       1.435   5.613  -5.522  0.00  0.00    -0.118 NA
BRANCH  14  16
ATOM     16  C   UNL     1       3.522   5.119  -6.494  0.00  0.00    +0.004 A 
ATOM     17  C   UNL     1       4.567   5.664  -7.239  0.00  0.00    +0.001 A 
ATOM     18  C   UNL     1       4.641   5.488  -8.617  0.00  0.00    +0.042 A 
ATOM     19  C   UNL     1       3.632   4.813  -9.291  0.00  0.00    +0.196 A 
ATOM     20  O   UNL     1       3.285   5.167 -10.597  0.00  0.00    -0.287 OA
ATOM     21  C   UNL     1       2.798   4.010  -8.523  0.00  0.00    +0.042 A 
ATOM     22  C   UNL     1       2.604   4.407  -7.206  0.00  0.00    +0.001 A 
ENDBRANCH  14  16
ENDBRANCH  12  14
ENDBRANCH   9  11
BRANCH  10  23
ATOM     23  C   UNL     1       0.630   7.529   0.617  0.00  0.00    +0.401 C 
ATOM     24  OXT UNL     1      -0.441   7.655  -0.271  0.00  0.00    -0.239 OA
ATOM     25  O   UNL     1       0.417   6.957   1.716  0.00  0.00    -0.239 OA
ENDBRANCH  10  23
TORSDOF 4
ENDMDL
MODEL 7
REMARK VINA RESULT:      -6.8      2.410      3.016
REMARK  Name = 
REMARK  4 active torsions:
REMARK  status: ('A' for Active; 'I' for Inactive)
REMARK    1  A    between atoms: CA_3  and  C_4
REMARK    2  A    between atoms: CA_10  and  N_11
REMARK    3  A    between atoms: C_12  and  CA_14
REMARK    4  A    between atoms: CA_14  and  C_16
REMARK                            x       y       z     vdW  Elec       q    Type
REMARK                         _______ _______ _______ _____ _____    ______ ____
ROOT
ATOM      1  C   UNL     1       2.812   7.421  -2.937  0.00  0.00    +0.029 C 
ATOM      2  C   UNL     1       2.831   6.741  -3.838  0.00  0.00    -0.013 C 
ATOM      3  C   UNL     1       3.969   6.956  -4.776  0.00  0.00    +0.083 C 
ATOM      4  S   UNL     1       4.369   5.523  -5.768  0.00  0.00    -0.114 S 
ATOM      5  C   UNL     1       2.904   4.342  -5.454  0.00  0.00    +0.157 C 
ATOM      6  N   UNL     1       1.774   5.359  -5.493  0.00  0.00    -0.242 N 
ATOM      7  C   UNL     1       0.946   4.579  -6.379  0.00  0.00    +0.253 C 
ATOM      8  O   UNL     1      -0.164   4.630  -6.908  0.00  0.00    -0.273 OA
ATOM      9  CA  UNL     1       2.337   4.046  -7.025  0.00  0.00    +0.200 C 
ATOM     10  CA  UNL     1       1.720   6.223  -4.363  0.00  0.00    +0.128 C 
ENDROOT
BRANCH   9  11
ATOM     11  N   UNL     1       2.665   5.492  -7.613  0.00  0.00    -0.194 NA
ATOM     12  C   UNL     1       3.076   5.249  -8.959  0.00  0.00    +0.264 C 
ATOM     13  O   UNL     1       3.906   4.336  -9.247  0.00  0.00    -0.271 OA
BRANCH  12  14
ATOM     14  CA  UNL     1       3.341   6.611  -9.822  0.00  0.00    +0.191 C 
ATOM     15  N   UNL     1       2.245   6.205 -10.915  0.00  0.00    -0.118 NA
BRANCH  14  16
ATOM     16  C   UNL     1       4.562   5.889 -10.640  0.00  0.00    +0.004 A 
ATOM     17  C   UNL     1       5.745   6.611 -10.489  0.00  0.00    +0.001 A 
ATOM     18  C   UNL     1       6.551   6.916 -11.580  0.00  0.00    +0.042 A 
ATOM     19  C   UNL     1       6.157   6.557 -12.863  0.00  0.00    +0.196 A 
ATOM     20  O   UNL     1       6.491   7.353 -13.961  0.00  0.00    -0.287 OA
ATOM     21  C   UNL     1       5.179   5.575 -12.963  0.00  0.00    +0.042 A 
ATOM     22  C   UNL     1       4.270   5.504 -11.914  0.00  0.00    +0.001 A 
ENDBRANCH  14  16
ENDBRANCH  12  14
ENDBRANCH   9  11
BRANCH  10  23
ATOM     23  C   UNL     1       0.434   6.746  -3.874  0.00  0.00    +0.401 C 
ATOM     24  OXT UNL     1      -0.345   7.491  -4.762  0.00  0.00    -0.239 OA
ATOM     25  O   UNL     1      -0.161   6.060  -3.004  0.00  0.00    -0.239 OA
ENDBRANCH  10  23
TORSDOF 4
ENDMDL
MODEL 8
REMARK VINA RESULT:      -6.7      3.786      6.093
REMARK  Name = 
REMARK  4 active torsions:
REMARK  status: ('A' for Active; 'I' for Inactive)
REMARK    1  A    between atoms: CA_3  and  C_4
REMARK    2  A    between atoms: CA_10  and  N_11
REMARK    3  A    between atoms: C_12  and  CA_14
REMARK    4  A    between atoms: CA_14  and  C_16
REMARK                            x       y       z     vdW  Elec       q    Type
REMARK                         _______ _______ _______ _____ _____    ______ ____
ROOT
ATOM      1  C   UNL     1       2.784   9.186   0.973  0.00  0.00    +0.029 C 
ATOM      2  C   UNL     1       2.870   8.372   0.196  0.00  0.00    -0.013 C 
ATOM      3  C   UNL     1       3.622   8.742  -1.036  0.00  0.00    +0.083 C 
ATOM      4  S   UNL     1       4.317   7.344  -1.907  0.00  0.00    -0.114 S 
ATOM      5  C   UNL     1       3.504   5.842  -1.057  0.00  0.00    +0.157 C 
ATOM      6  N   UNL     1       2.093   6.390  -0.917  0.00  0.00    -0.242 N 
ATOM      7  C   UNL     1       1.456   5.206  -1.436  0.00  0.00    +0.253 C 
ATOM      8  O   UNL     1       0.325   4.769  -1.644  0.00  0.00    -0.273 OA
ATOM      9  CA  UNL     1       2.778   5.038  -2.362  0.00  0.00    +0.200 C 
ATOM     10  CA  UNL     1       1.953   7.412   0.065  0.00  0.00    +0.128 C 
ENDROOT
BRANCH   9  11
ATOM     11  N   UNL     1       2.408   6.345  -3.198  0.00  0.00    -0.194 NA
ATOM     12  C   UNL     1       2.279   5.887  -4.545  0.00  0.00    +0.264 C 
ATOM     13  O   UNL     1       3.139   5.122  -5.073  0.00  0.00    -0.271 OA
BRANCH  12  14
ATOM     14  CA  UNL     1       1.765   7.039  -5.585  0.00  0.00    +0.191 C 
ATOM     15  N   UNL     1       0.251   6.901  -5.084  0.00  0.00    -0.118 NA
BRANCH  14  16
ATOM     16  C   UNL     1       1.574   5.924  -6.769  0.00  0.00    +0.004 A 
ATOM     17  C   UNL     1       2.344   6.259  -7.882  0.00  0.00    +0.001 A 
ATOM     18  C   UNL     1       1.812   6.228  -9.166  0.00  0.00    +0.042 A 
ATOM     19  C   UNL     1       0.471   5.921  -9.360  0.00  0.00    +0.196 A 
ATOM     20  O   UNL     1      -0.249   6.500 -10.406  0.00  0.00    -0.287 OA
ATOM     21  C   UNL     1      -0.179   5.280  -8.313  0.00  0.00    +0.042 A 
ATOM     22  C   UNL     1       0.288   5.561  -7.034  0.00  0.00    +0.001 A 
ENDBRANCH  14  16
ENDBRANCH  12  14
ENDBRANCH   9  11
BRANCH  10  23
ATOM     23  C   UNL     1       0.697   7.571   0.814  0.00  0.00    +0.401 C 
ATOM     24  OXT UNL     1      -0.459   7.872   0.090  0.00  0.00    -0.239 OA
ATOM     25  O   UNL     1       0.572   6.886   1.862  0.00  0.00    -0.239 OA
ENDBRANCH  10  23
TORSDOF 4
ENDMDL
MODEL 9
REMARK VINA RESULT:      -6.5      3.446      5.879
REMARK  Name = 
REMARK  4 active torsions:
REMARK  status: ('A' for Active; 'I' for Inactive)
REMARK    1  A    between atoms: CA_3  and  C_4
REMARK    2  A    between atoms: CA_10  and  N_11
REMARK    3  A    between atoms: C_12  and  CA_14
REMARK    4  A    between atoms: CA_14  and  C_16
REMARK                            x       y       z     vdW  Elec       q    Type
REMARK                         _______ _______ _______ _____ _____    ______ ____
ROOT
ATOM      1  C   UNL     1       3.237   7.610  -1.035  0.00  0.00    +0.029 C 
ATOM      2  C   UNL     1       3.596   7.223  -2.032  0.00  0.00    -0.013 C 
ATOM      3  C   UNL     1       3.888   8.267  -3.055  0.00  0.00    +0.083 C 
ATOM      4  S   UNL     1       5.043   7.742  -4.315  0.00  0.00    -0.114 S 
ATOM      5  C   UNL     1       5.194   5.864  -4.025  0.00  0.00    +0.157 C 
ATOM      6  N   UNL     1       3.731   5.552  -3.752  0.00  0.00    -0.242 N 
ATOM      7  C   UNL     1       3.684   4.423  -4.647  0.00  0.00    +0.253 C 
ATOM      8  O   UNL     1       2.892   3.557  -5.017  0.00  0.00    -0.273 OA
ATOM      9  CA  UNL     1       4.773   5.229  -5.540  0.00  0.00    +0.200 C 
ATOM     10  CA  UNL     1       3.254   6.020  -2.495  0.00  0.00    +0.128 C 
ENDROOT
BRANCH   9  11
ATOM     11  N   UNL     1       3.699   6.347  -5.914  0.00  0.00    -0.194 NA
ATOM     12  C   UNL     1       3.038   5.840  -7.074  0.00  0.00    +0.264 C 
ATOM     13  O   UNL     1       3.686   5.352  -8.048  0.00  0.00    -0.271 OA
BRANCH  12  14
ATOM     14  CA  UNL     1       1.785   6.763  -7.574  0.00  0.00    +0.191 C 
ATOM     15  N   UNL     1       2.269   8.006  -6.689  0.00  0.00    -0.118 NA
BRANCH  14  16
ATOM     16  C   UNL     1       0.834   6.165  -6.384  0.00  0.00    +0.004 A 
ATOM     17  C   UNL     1      -0.254   5.482  -6.926  0.00  0.00    +0.001 A 
ATOM     18  C   UNL     1      -1.547   5.696  -6.462  0.00  0.00    +0.042 A 
ATOM     19  C   UNL     1      -1.790   6.649  -5.481  0.00  0.00    +0.196 A 
ATOM     20  O   UNL     1      -2.988   7.366  -5.464  0.00  0.00    -0.287 OA
ATOM     21  C   UNL     1      -0.696   7.067  -4.734  0.00  0.00    +0.042 A 
ATOM     22  C   UNL     1       0.537   7.032  -5.376  0.00  0.00    +0.001 A 
ENDBRANCH  14  16
ENDBRANCH  12  14
ENDBRANCH   9  11
BRANCH  10  23
ATOM     23  C   UNL     1       2.201   5.292  -1.769  0.00  0.00    +0.401 C 
ATOM     24  OXT UNL     1       0.985   5.085  -2.424  0.00  0.00    -0.239 OA
ATOM     25  O   UNL     1       2.581   4.421  -0.946  0.00  0.00    -0.239 OA
ENDBRANCH  10  23
TORSDOF 4
ENDMDL
