MODEL 1
REMARK VINA RESULT:      -8.8      0.000      0.000
REMARK  Name = 
REMARK  0 active torsions:
REMARK  status: ('A' for Active; 'I' for Inactive)
REMARK                            x       y       z     vdW  Elec       q    Type
REMARK                         _______ _______ _______ _____ _____    ______ ____
ROOT
ATOM      1  C   UNL     1       4.060   4.965  -2.059  0.00  0.00    +0.090 C 
ATOM      2  N   UNL     1       4.107   6.077  -2.994  0.00  0.00    -0.271 NA
ATOM      3  C   UNL     1       2.970   6.941  -2.793  0.00  0.00    +0.077 C 
ATOM      4  C   UNL     1       1.830   6.657  -3.731  0.00  0.00    +0.039 C 
ATOM      5  C   UNL     1       2.278   6.830  -5.145  0.00  0.00    -0.041 C 
ATOM      6  C   UNL     1       1.468   6.454  -6.134  0.00  0.00    -0.008 C 
ATOM      7  C   UNL     1       0.062   6.341  -5.720  0.00  0.00    -0.004 A 
ATOM      8  C   UNL     1      -0.958   5.735  -6.425  0.00  0.00    -0.014 A 
ATOM      9  C   UNL     1      -2.266   6.153  -6.208  0.00  0.00    -0.004 A 
ATOM     10  C   UNL     1      -2.510   7.133  -5.283  0.00  0.00    -0.000 A 
ATOM     11  C   UNL     1      -1.527   7.702  -4.488  0.00  0.00    -0.000 A 
ATOM     12  C   UNL     1      -0.920   4.829  -7.613  0.00  0.00    +0.096 C 
ATOM     13  C   UNL     1      -0.014   5.339  -8.669  0.00  0.00    +0.183 C 
ATOM     14  O   UNL     1      -0.423   5.335  -9.869  0.00  0.00    -0.290 OA
ATOM     15  C   UNL     1       1.399   5.732  -8.567  0.00  0.00    +0.064 A 
ATOM     16  S   UNL     1       2.447   6.227  -9.835  0.00  0.00    -0.084 S 
ATOM     17  C   UNL     1       3.758   6.805  -8.889  0.00  0.00    +0.036 A 
ATOM     18  C   UNL     1       3.421   6.254  -7.657  0.00  0.00    +0.008 A 
ATOM     19  C   UNL     1      -0.246   7.207  -4.676  0.00  0.00    -0.000 A 
ATOM     20  C   UNL     1       2.067   6.250  -7.460  0.00  0.00    +0.009 A 
ATOM     21  C   UNL     1       3.740   6.603  -5.373  0.00  0.00    +0.039 C 
ATOM     22  C   UNL     1       4.169   5.589  -4.344  0.00  0.00    +0.077 C 
ENDROOT
TORSDOF 0
ENDMDL
MODEL 2
REMARK VINA RESULT:      -8.8      3.851      7.521
REMARK  Name = 
REMARK  0 active torsions:
REMARK  status: ('A' for Active; 'I' for Inactive)
REMARK                            x       y       z     vdW  Elec       q    Type
REMARK                         _______ _______ _______ _____ _____    ______ ____
ROOT
ATOM      1  C   UNL     1       0.898   4.145 -13.906  0.00  0.00    +0.090 C 
ATOM      2  N   UNL     1       0.731   5.334 -13.087  0.00  0.00    -0.271 NA
ATOM      3  C   UNL     1       1.818   6.252 -13.320  0.00  0.00    +0.077 C 
ATOM      4  C   UNL     1       2.925   6.137 -12.309  0.00  0.00    +0.039 C 
ATOM      5  C   UNL     1       2.396   6.410 -10.940  0.00  0.00    -0.041 C 
ATOM      6  C   UNL     1       3.177   6.185  -9.883  0.00  0.00    -0.008 C 
ATOM      7  C   UNL     1       4.606   6.133 -10.223  0.00  0.00    -0.004 A 
ATOM      8  C   UNL     1       5.627   5.668  -9.417  0.00  0.00    -0.014 A 
ATOM      9  C   UNL     1       6.914   6.153  -9.615  0.00  0.00    -0.004 A 
ATOM     10  C   UNL     1       7.141   7.056 -10.619  0.00  0.00    -0.000 A 
ATOM     11  C   UNL     1       6.165   7.479 -11.508  0.00  0.00    -0.000 A 
ATOM     12  C   UNL     1       5.587   4.877  -8.150  0.00  0.00    +0.096 C 
ATOM     13  C   UNL     1       4.597   5.419  -7.190  0.00  0.00    +0.183 C 
ATOM     14  O   UNL     1       4.944   5.556  -5.978  0.00  0.00    -0.290 OA
ATOM     15  C   UNL     1       3.168   5.701  -7.392  0.00  0.00    +0.064 A 
ATOM     16  S   UNL     1       2.028   6.239  -6.226  0.00  0.00    -0.084 S 
ATOM     17  C   UNL     1       0.732   6.633  -7.280  0.00  0.00    +0.036 A 
ATOM     18  C   UNL     1       1.166   5.994  -8.437  0.00  0.00    +0.008 A 
ATOM     19  C   UNL     1       4.910   6.916 -11.330  0.00  0.00    -0.000 A 
ATOM     20  C   UNL     1       2.525   6.066  -8.572  0.00  0.00    +0.009 A 
ATOM     21  C   UNL     1       0.942   6.104 -10.756  0.00  0.00    +0.039 C 
ATOM     22  C   UNL     1       0.633   4.971 -11.700  0.00  0.00    +0.077 C 
ENDROOT
TORSDOF 0
ENDMDL
MODEL 3
REMARK VINA RESULT:      -8.4      3.113      5.478
REMARK  Name = 
REMARK  0 active torsions:
REMARK  status: ('A' for Active; 'I' for Inactive)
REMARK                            x       y       z     vdW  Elec       q    Type
REMARK                         _______ _______ _______ _____ _____    ______ ____
ROOT
ATOM      1  C   UNL     1       3.536   4.389  -8.828  0.00  0.00    +0.090 C 
ATOM      2  N   UNL     1       2.646   5.503  -8.550  0.00  0.00    -0.271 NA
ATOM      3  C   UNL     1       3.326   6.492  -7.751  0.00  0.00    +0.077 C 
ATOM      4  C   UNL     1       3.053   6.361  -6.278  0.00  0.00    +0.039 C 
ATOM      5  C   UNL     1       1.590   6.504  -6.015  0.00  0.00    -0.041 C 
ATOM      6  C   UNL     1       1.120   6.243  -4.795  0.00  0.00    -0.008 C 
ATOM      7  C   UNL     1       2.156   6.291  -3.754  0.00  0.00    -0.004 A 
ATOM      8  C   UNL     1       2.044   5.822  -2.460  0.00  0.00    -0.014 A 
ATOM      9  C   UNL     1       2.838   6.387  -1.469  0.00  0.00    -0.004 A 
ATOM     10  C   UNL     1       3.727   7.374  -1.806  0.00  0.00    -0.000 A 
ATOM     11  C   UNL     1       3.936   7.808  -3.106  0.00  0.00    -0.000 A 
ATOM     12  C   UNL     1       1.019   4.938  -1.827  0.00  0.00    +0.096 C 
ATOM     13  C   UNL     1      -0.360   5.355  -2.172  0.00  0.00    +0.183 C 
ATOM     14  O   UNL     1      -1.221   5.420  -1.244  0.00  0.00    -0.290 OA
ATOM     15  C   UNL     1      -0.957   5.576  -3.498  0.00  0.00    +0.064 A 
ATOM     16  S   UNL     1      -2.589   5.964  -3.864  0.00  0.00    -0.084 S 
ATOM     17  C   UNL     1      -2.403   6.367  -5.523  0.00  0.00    +0.036 A 
ATOM     18  C   UNL     1      -1.137   5.839  -5.753  0.00  0.00    +0.008 A 
ATOM     19  C   UNL     1       3.184   7.169  -4.079  0.00  0.00    -0.000 A 
ATOM     20  C   UNL     1      -0.322   5.992  -4.665  0.00  0.00    +0.009 A 
ATOM     21  C   UNL     1       0.706   6.109  -7.156  0.00  0.00    +0.039 C 
ATOM     22  C   UNL     1       1.450   5.034  -7.906  0.00  0.00    +0.077 C 
ENDROOT
TORSDOF 0
ENDMDL
MODEL 4
REMARK VINA RESULT:      -8.2      2.327      4.796
REMARK  Name = 
REMARK  0 active torsions:
REMARK  status: ('A' for Active; 'I' for Inactive)
REMARK                            x       y       z     vdW  Elec       q    Type
REMARK                         _______ _______ _______ _____ _____    ______ ____
ROOT
ATOM      1  C   UNL     1      -1.629   7.834  -0.540  0.00  0.00    +0.090 C 
ATOM      2  N   UNL     1      -1.680   6.605  -1.314  0.00  0.00    -0.271 NA
ATOM      3  C   UNL     1      -0.532   5.786  -1.018  0.00  0.00    +0.077 C 
ATOM      4  C   UNL     1       0.590   5.949  -2.006  0.00  0.00    +0.039 C 
ATOM      5  C   UNL     1       0.121   5.581  -3.376  0.00  0.00    -0.041 C 
ATOM      6  C   UNL     1       0.910   5.826  -4.421  0.00  0.00    -0.008 C 
ATOM      7  C   UNL     1       2.321   6.005  -4.050  0.00  0.00    -0.004 A 
ATOM      8  C   UNL     1       3.324   6.518  -4.850  0.00  0.00    -0.014 A 
ATOM      9  C   UNL     1       4.639   6.144  -4.602  0.00  0.00    -0.004 A 
ATOM     10  C   UNL     1       4.909   5.301  -3.556  0.00  0.00    -0.000 A 
ATOM     11  C   UNL     1       3.945   4.838  -2.674  0.00  0.00    -0.000 A 
ATOM     12  C   UNL     1       3.256   7.254  -6.149  0.00  0.00    +0.096 C 
ATOM     13  C   UNL     1       2.338   6.598  -7.109  0.00  0.00    +0.183 C 
ATOM     14  O   UNL     1       2.727   6.442  -8.306  0.00  0.00    -0.290 OA
ATOM     15  C   UNL     1       0.931   6.212  -6.930  0.00  0.00    +0.064 A 
ATOM     16  S   UNL     1      -0.133   5.541  -8.100  0.00  0.00    -0.084 S 
ATOM     17  C   UNL     1      -1.422   5.086  -7.061  0.00  0.00    +0.036 A 
ATOM     18  C   UNL     1      -1.070   5.802  -5.921  0.00  0.00    +0.008 A 
ATOM     19  C   UNL     1       2.655   5.292  -2.905  0.00  0.00    -0.000 A 
ATOM     20  C   UNL     1       0.287   5.843  -5.752  0.00  0.00    +0.009 A 
ATOM     21  C   UNL     1      -1.347   5.765  -3.606  0.00  0.00    +0.039 C 
ATOM     22  C   UNL     1      -1.769   6.906  -2.717  0.00  0.00    +0.077 C 
ENDROOT
TORSDOF 0
ENDMDL
MODEL 5
REMARK VINA RESULT:      -8.0      3.686      5.744
REMARK  Name = 
REMARK  0 active torsions:
REMARK  status: ('A' for Active; 'I' for Inactive)
REMARK                            x       y       z     vdW  Elec       q    Type
REMARK                         _______ _______ _______ _____ _____    ______ ____
ROOT
ATOM      1  C   UNL     1       2.037   3.796  -6.504  0.00  0.00    +0.090 C 
ATOM      2  N   UNL     1       2.645   5.074  -6.836  0.00  0.00    -0.271 NA
ATOM      3  C   UNL     1       1.660   5.957  -7.408  0.00  0.00    +0.077 C 
ATOM      4  C   UNL     1       1.663   5.962  -8.912  0.00  0.00    +0.039 C 
ATOM      5  C   UNL     1       3.000   6.396  -9.418  0.00  0.00    -0.041 C 
ATOM      6  C   UNL     1       3.266   6.297 -10.721  0.00  0.00    -0.008 C 
ATOM      7  C   UNL     1       2.057   6.203 -11.552  0.00  0.00    -0.004 A 
ATOM      8  C   UNL     1       1.999   5.836 -12.882  0.00  0.00    -0.014 A 
ATOM      9  C   UNL     1       0.943   6.294 -13.660  0.00  0.00    -0.004 A 
ATOM     10  C   UNL     1      -0.026   7.072 -13.083  0.00  0.00    -0.000 A 
ATOM     11  C   UNL     1      -0.055   7.386 -11.733  0.00  0.00    -0.000 A 
ATOM     12  C   UNL     1       3.024   5.201 -13.764  0.00  0.00    +0.096 C 
ATOM     13  C   UNL     1       4.348   5.853 -13.635  0.00  0.00    +0.183 C 
ATOM     14  O   UNL     1       4.989   6.133 -14.692  0.00  0.00    -0.290 OA
ATOM     15  C   UNL     1       5.139   6.111 -12.423  0.00  0.00    +0.064 A 
ATOM     16  S   UNL     1       6.716   6.784 -12.320  0.00  0.00    -0.084 S 
ATOM     17  C   UNL     1       6.784   7.052 -10.626  0.00  0.00    +0.036 A 
ATOM     18  C   UNL     1       5.700   6.279 -10.221  0.00  0.00    +0.008 A 
ATOM     19  C   UNL     1       0.972   6.850 -10.971  0.00  0.00    -0.000 A 
ATOM     20  C   UNL     1       4.677   6.334 -11.128  0.00  0.00    +0.009 A 
ATOM     21  C   UNL     1       4.142   6.114  -8.493  0.00  0.00    +0.039 C 
ATOM     22  C   UNL     1       3.759   4.877  -7.722  0.00  0.00    +0.077 C 
ENDROOT
TORSDOF 0
ENDMDL
MODEL 6
REMARK VINA RESULT:      -7.9      3.293      5.037
REMARK  Name = 
REMARK  0 active torsions:
REMARK  status: ('A' for Active; 'I' for Inactive)
REMARK                            x       y       z     vdW  Elec       q    Type
REMARK                         _______ _______ _______ _____ _____    ______ ____
ROOT
ATOM      1  C   UNL     1       5.172   8.002  -4.248  0.00  0.00    +0.090 C 
ATOM      2  N   UNL     1       4.593   6.882  -3.524  0.00  0.00    -0.271 NA
ATOM      3  C   UNL     1       4.083   5.904  -4.452  0.00  0.00    +0.077 C 
ATOM      4  C   UNL     1       2.609   6.043  -4.716  0.00  0.00    +0.039 C 
ATOM      5  C   UNL     1       1.846   5.890  -3.441  0.00  0.00    -0.041 C 
ATOM      6  C   UNL     1       0.540   6.155  -3.430  0.00  0.00    -0.008 C 
ATOM      7  C   UNL     1      -0.069   6.123  -4.767  0.00  0.00    -0.004 A 
ATOM      8  C   UNL     1      -1.317   6.600  -5.115  0.00  0.00    -0.014 A 
ATOM      9  C   UNL     1      -1.966   6.047  -6.213  0.00  0.00    -0.004 A 
ATOM     10  C   UNL     1      -1.340   5.066  -6.935  0.00  0.00    -0.000 A 
ATOM     11  C   UNL     1      -0.052   4.624  -6.677  0.00  0.00    -0.000 A 
ATOM     12  C   UNL     1      -2.268   7.480  -4.370  0.00  0.00    +0.096 C 
ATOM     13  C   UNL     1      -2.434   7.049  -2.962  0.00  0.00    +0.183 C 
ATOM     14  O   UNL     1      -3.607   6.983  -2.485  0.00  0.00    -0.290 OA
ATOM     15  C   UNL     1      -1.405   6.815  -1.938  0.00  0.00    +0.064 A 
ATOM     16  S   UNL     1      -1.641   6.410  -0.285  0.00  0.00    -0.084 S 
ATOM     17  C   UNL     1      -0.025   5.998   0.122  0.00  0.00    +0.036 A 
ATOM     18  C   UNL     1       0.640   6.535  -0.976  0.00  0.00    +0.008 A 
ATOM     19  C   UNL     1       0.595   5.251  -5.623  0.00  0.00    -0.000 A 
ATOM     20  C   UNL     1      -0.091   6.396  -2.124  0.00  0.00    +0.009 A 
ATOM     21  C   UNL     1       2.603   6.271  -2.207  0.00  0.00    +0.039 C 
ATOM     22  C   UNL     1       3.571   7.346  -2.627  0.00  0.00    +0.077 C 
ENDROOT
TORSDOF 0
ENDMDL
MODEL 7
REMARK VINA RESULT:      -7.7      2.469      5.572
REMARK  Name = 
REMARK  0 active torsions:
REMARK  status: ('A' for Active; 'I' for Inactive)
REMARK                            x       y       z     vdW  Elec       q    Type
REMARK                         _______ _______ _______ _____ _____    ______ ____
ROOT
ATOM      1  C   UNL     1       2.188   6.885  -4.228  0.00  0.00    +0.090 C 
ATOM      2  N   UNL     1       2.023   5.667  -5.003  0.00  0.00    -0.271 NA
ATOM      3  C   UNL     1       3.307   5.062  -5.253  0.00  0.00    +0.077 C 
ATOM      4  C   UNL     1       3.886   5.421  -6.593  0.00  0.00    +0.039 C 
ATOM      5  C   UNL     1       2.965   4.978  -7.682  0.00  0.00    -0.041 C 
ATOM      6  C   UNL     1       3.210   5.359  -8.936  0.00  0.00    -0.008 C 
ATOM      7  C   UNL     1       4.600   5.783  -9.150  0.00  0.00    -0.004 A 
ATOM      8  C   UNL     1       5.093   6.465 -10.245  0.00  0.00    -0.014 A 
ATOM      9  C   UNL     1       6.437   6.328 -10.574  0.00  0.00    -0.004 A 
ATOM     10  C   UNL     1       7.241   5.544  -9.788  0.00  0.00    -0.000 A 
ATOM     11  C   UNL     1       6.808   4.918  -8.630  0.00  0.00    -0.000 A 
ATOM     12  C   UNL     1       4.385   7.179 -11.351  0.00  0.00    +0.096 C 
ATOM     13  C   UNL     1       3.273   6.373 -11.907  0.00  0.00    +0.183 C 
ATOM     14  O   UNL     1       3.161   6.289 -13.167  0.00  0.00    -0.290 OA
ATOM     15  C   UNL     1       2.144   5.745 -11.207  0.00  0.00    +0.064 A 
ATOM     16  S   UNL     1       0.818   4.899 -11.898  0.00  0.00    -0.084 S 
ATOM     17  C   UNL     1       0.155   4.223 -10.465  0.00  0.00    +0.036 A 
ATOM     18  C   UNL     1       0.821   4.989  -9.513  0.00  0.00    +0.008 A 
ATOM     19  C   UNL     1       5.482   5.138  -8.290  0.00  0.00    -0.000 A 
ATOM     20  C   UNL     1       2.104   5.268  -9.899  0.00  0.00    +0.009 A 
ATOM     21  C   UNL     1       1.523   4.901  -7.291  0.00  0.00    +0.039 C 
ATOM     22  C   UNL     1       1.323   5.949  -6.226  0.00  0.00    +0.077 C 
ENDROOT
TORSDOF 0
ENDMDL
MODEL 8
REMARK VINA RESULT:      -7.6      3.171      4.863
REMARK  Name = 
REMARK  0 active torsions:
REMARK  status: ('A' for Active; 'I' for Inactive)
REMARK                            x       y       z     vdW  Elec       q    Type
REMARK                         _______ _______ _______ _____ _____    ______ ____
ROOT
ATOM      1  C   UNL     1       4.581   6.134  -7.515  0.00  0.00    +0.090 C 
ATOM      2  N   UNL     1       4.051   5.114  -6.624  0.00  0.00    -0.271 NA
ATOM      3  C   UNL     1       2.850   4.546  -7.184  0.00  0.00    +0.077 C 
ATOM      4  C   UNL     1       1.589   5.169  -6.651  0.00  0.00    +0.039 C 
ATOM      5  C   UNL     1       1.519   4.993  -5.170  0.00  0.00    -0.041 C 
ATOM      6  C   UNL     1       0.569   5.628  -4.484  0.00  0.00    -0.008 C 
ATOM      7  C   UNL     1      -0.562   6.054  -5.321  0.00  0.00    -0.004 A 
ATOM      8  C   UNL     1      -1.558   6.942  -4.968  0.00  0.00    -0.014 A 
ATOM      9  C   UNL     1      -2.796   6.846  -5.591  0.00  0.00    -0.004 A 
ATOM     10  C   UNL     1      -2.987   5.893  -6.557  0.00  0.00    -0.000 A 
ATOM     11  C   UNL     1      -1.988   5.043  -7.005  0.00  0.00    -0.000 A 
ATOM     12  C   UNL     1      -1.656   7.894  -3.820  0.00  0.00    +0.096 C 
ATOM     13  C   UNL     1      -1.283   7.254  -2.537  0.00  0.00    +0.183 C 
ATOM     14  O   UNL     1      -2.026   7.445  -1.528  0.00  0.00    -0.290 OA
ATOM     15  C   UNL     1      -0.058   6.518  -2.191  0.00  0.00    +0.064 A 
ATOM     16  S   UNL     1       0.384   5.872  -0.661  0.00  0.00    -0.084 S 
ATOM     17  C   UNL     1       1.728   4.922  -1.150  0.00  0.00    +0.036 A 
ATOM     18  C   UNL     1       1.941   5.449  -2.420  0.00  0.00    +0.008 A 
ATOM     19  C   UNL     1      -0.745   5.218  -6.417  0.00  0.00    -0.000 A 
ATOM     20  C   UNL     1       0.762   5.773  -3.034  0.00  0.00    +0.009 A 
ATOM     21  C   UNL     1       2.846   4.869  -4.489  0.00  0.00    +0.039 C 
ATOM     22  C   UNL     1       3.817   5.669  -5.319  0.00  0.00    +0.077 C 
ENDROOT
TORSDOF 0
ENDMDL
MODEL 9
REMARK VINA RESULT:      -7.6      3.083      5.031
REMARK  Name = 
REMARK  0 active torsions:
REMARK  status: ('A' for Active; 'I' for Inactive)
REMARK                            x       y       z     vdW  Elec       q    Type
REMARK                         _______ _______ _______ _____ _____    ______ ____
ROOT
ATOM      1  C   UNL     1       4.834   6.935  -0.325  0.00  0.00    +0.090 C 
ATOM      2  N   UNL     1       3.777   5.938  -0.287  0.00  0.00    -0.271 NA
ATOM      3  C   UNL     1       3.934   5.010  -1.379  0.00  0.00    +0.077 C 
ATOM      4  C   UNL     1       3.090   5.349  -2.576  0.00  0.00    +0.039 C 
ATOM      5  C   UNL     1       1.646   5.354  -2.199  0.00  0.00    -0.041 C 
ATOM      6  C   UNL     1       0.746   5.805  -3.073  0.00  0.00    -0.008 C 
ATOM      7  C   UNL     1       1.239   5.810  -4.458  0.00  0.00    -0.004 A 
ATOM      8  C   UNL     1       0.658   6.448  -5.536  0.00  0.00    -0.014 A 
ATOM      9  C   UNL     1       0.888   5.954  -6.814  0.00  0.00    -0.004 A 
ATOM     10  C   UNL     1       1.707   4.866  -6.973  0.00  0.00    -0.000 A 
ATOM     11  C   UNL     1       2.383   4.254  -5.929  0.00  0.00    -0.000 A 
ATOM     12  C   UNL     1      -0.420   7.482  -5.594  0.00  0.00    +0.096 C 
ATOM     13  C   UNL     1      -1.569   7.133  -4.727  0.00  0.00    +0.183 C 
ATOM     14  O   UNL     1      -2.740   7.254  -5.199  0.00  0.00    -0.290 OA
ATOM     15  C   UNL     1      -1.581   6.791  -3.297  0.00  0.00    +0.064 A 
ATOM     16  S   UNL     1      -2.947   6.487  -2.301  0.00  0.00    -0.084 S 
ATOM     17  C   UNL     1      -2.138   5.862  -0.921  0.00  0.00    +0.036 A 
ATOM     18  C   UNL     1      -0.837   6.257  -1.212  0.00  0.00    +0.008 A 
ATOM     19  C   UNL     1       2.191   4.820  -4.678  0.00  0.00    -0.000 A 
ATOM     20  C   UNL     1      -0.575   6.181  -2.553  0.00  0.00    +0.009 A 
ATOM     21  C   UNL     1       1.374   5.668  -0.760  0.00  0.00    +0.039 C 
ATOM     22  C   UNL     1       2.490   6.577  -0.315  0.00  0.00    +0.077 C 
ENDROOT
TORSDOF 0
ENDMDL
