MODEL 1
REMARK VINA RESULT:      -7.2      0.000      0.000
REMARK  Name = 
REMARK  6 active torsions:
REMARK  status: ('A' for Active; 'I' for Inactive)
REMARK    1  A    between atoms: C_2  and  N_5
REMARK    2  A    between atoms: N_5  and  C_6
REMARK    3  A    between atoms: C_6  and  C_7
REMARK    4  A    between atoms: C_7  and  C_9
REMARK    5  A    between atoms: C_9  and  O_10
REMARK    6  A    between atoms: O_10  and  C_11
REMARK                            x       y       z     vdW  Elec       q    Type
REMARK                         _______ _______ _______ _____ _____    ______ ____
ROOT
ATOM      1  C   UNL     1       1.847   4.662  -7.642  0.00  0.00    +0.136 A 
ATOM      2  C   UNL     1       1.771   4.732  -6.257  0.00  0.00    +0.028 A 
ATOM      3  C   UNL     1       2.954   4.637  -5.378  0.00  0.00    +0.040 C 
ATOM      4  C   UNL     1       2.861   5.688  -4.277  0.00  0.00    +0.092 C 
ATOM      5  C   UNL     1       1.562   5.551  -3.548  0.00  0.00    +0.246 C 
ATOM      6  N   UNL     1       0.414   5.198  -4.319  0.00  0.00    -0.179 NA
ATOM      7  O   UNL     1       1.430   6.249  -2.517  0.00  0.00    -0.273 OA
ATOM      8  C   UNL     1       0.504   4.937  -5.724  0.00  0.00    +0.072 A 
ATOM      9  C   UNL     1      -0.584   5.180  -6.552  0.00  0.00    +0.016 A 
ATOM     10  C   UNL     1      -0.360   5.442  -7.897  0.00  0.00    +0.004 A 
ATOM     11  C   UNL     1       0.932   5.379  -8.404  0.00  0.00    +0.037 A 
ENDROOT
BRANCH   1  12
ATOM     12  O   UNL     1       2.942   4.020  -8.192  0.00  0.00    -0.473 OA
BRANCH  12  13
ATOM     13  C   UNL     1       3.613   4.518  -9.321  0.00  0.00    +0.239 C 
BRANCH  13  14
ATOM     14  C   UNL     1       4.509   5.754  -8.693  0.00  0.00    +0.213 C 
ATOM     15  O   UNL     1       5.612   4.804  -8.250  0.00  0.00    -0.218 OA
BRANCH  14  16
ATOM     16  C   UNL     1       5.231   6.046 -10.150  0.00  0.00    +0.125 C 
BRANCH  16  17
ATOM     17  N   UNL     1       6.634   5.905  -9.926  0.00  0.00    -0.218 NA
BRANCH  17  19
ATOM     18  C   UNL     1       7.600   6.955 -10.386  0.00  0.00    +0.017 C 
ATOM     19  C   UNL     1       7.359   6.815 -10.729  0.00  0.00    +0.060 C 
ATOM     20  C   UNL     1       8.176   6.171 -11.828  0.00  0.00    +0.017 C 
ATOM     21  C   UNL     1       6.546   7.941 -11.311  0.00  0.00    +0.017 C 
ENDBRANCH  17  19
ENDBRANCH  16  17
ENDBRANCH  14  16
ENDBRANCH  13  14
ENDBRANCH  12  13
ENDBRANCH   1  12
TORSDOF 6
ENDMDL
MODEL 2
REMARK VINA RESULT:      -7.2      3.114      7.816
REMARK  Name = 
REMARK  6 active torsions:
REMARK  status: ('A' for Active; 'I' for Inactive)
REMARK    1  A    between atoms: C_2  and  N_5
REMARK    2  A    between atoms: N_5  and  C_6
REMARK    3  A    between atoms: C_6  and  C_7
REMARK    4  A    between atoms: C_7  and  C_9
REMARK    5  A    between atoms: C_9  and  O_10
REMARK    6  A    between atoms: O_10  and  C_11
REMARK                            x       y       z     vdW  Elec       q    Type
REMARK                         _______ _______ _______ _____ _____    ______ ____
ROOT
ATOM      1  C   UNL     1       5.332   5.481 -10.480  0.00  0.00    +0.136 A 
ATOM      2  C   UNL     1       5.697   5.319 -11.811  0.00  0.00    +0.028 A 
ATOM      3  C   UNL     1       4.719   5.288 -12.917  0.00  0.00    +0.040 C 
ATOM      4  C   UNL     1       5.237   6.122 -14.084  0.00  0.00    +0.092 C 
ATOM      5  C   UNL     1       6.603   5.656 -14.478  0.00  0.00    +0.246 C 
ATOM      6  N   UNL     1       7.480   5.240 -13.432  0.00  0.00    -0.179 NA
ATOM      7  O   UNL     1       7.074   6.151 -15.527  0.00  0.00    -0.273 OA
ATOM      8  C   UNL     1       7.060   5.222 -12.063  0.00  0.00    +0.072 A 
ATOM      9  C   UNL     1       7.986   5.406 -11.045  0.00  0.00    +0.016 A 
ATOM     10  C   UNL     1       7.553   5.910  -9.825  0.00  0.00    +0.004 A 
ATOM     11  C   UNL     1       6.199   6.145  -9.620  0.00  0.00    +0.037 A 
ENDROOT
BRANCH   1  12
ATOM     12  O   UNL     1       4.044   5.127 -10.121  0.00  0.00    -0.473 OA
BRANCH  12  13
ATOM     13  C   UNL     1       3.619   5.102  -8.782  0.00  0.00    +0.239 C 
BRANCH  13  14
ATOM     14  C   UNL     1       2.508   3.881  -8.778  0.00  0.00    +0.213 C 
ATOM     15  O   UNL     1       2.230   4.063  -7.293  0.00  0.00    -0.218 OA
BRANCH  14  16
ATOM     16  C   UNL     1       1.293   4.910  -9.218  0.00  0.00    +0.125 C 
BRANCH  16  17
ATOM     17  N   UNL     1       0.709   4.344 -10.392  0.00  0.00    -0.218 NA
BRANCH  17  19
ATOM     18  C   UNL     1      -0.114   5.199 -11.308  0.00  0.00    +0.017 C 
ATOM     19  C   UNL     1       0.296   5.362 -11.282  0.00  0.00    +0.060 C 
ATOM     20  C   UNL     1       0.364   6.762 -10.712  0.00  0.00    +0.017 C 
ATOM     21  C   UNL     1       0.968   5.343 -12.630  0.00  0.00    +0.017 C 
ENDBRANCH  17  19
ENDBRANCH  16  17
ENDBRANCH  14  16
ENDBRANCH  13  14
ENDBRANCH  12  13
ENDBRANCH   1  12
TORSDOF 6
ENDMDL
MODEL 3
REMARK VINA RESULT:      -7.1      2.732      7.687
REMARK  Name = 
REMARK  6 active torsions:
REMARK  status: ('A' for Active; 'I' for Inactive)
REMARK    1  A    between atoms: C_2  and  N_5
REMARK    2  A    between atoms: N_5  and  C_6
REMARK    3  A    between atoms: C_6  and  C_7
REMARK    4  A    between atoms: C_7  and  C_9
REMARK    5  A    between atoms: C_9  and  O_10
REMARK    6  A    between atoms: O_10  and  C_11
REMARK                            x       y       z     vdW  Elec       q    Type
REMARK                         _______ _______ _______ _____ _____    ______ ____
ROOT
ATOM      1  C   UNL     1       5.372   5.391 -10.523  0.00  0.00    +0.136 A 
ATOM      2  C   UNL     1       5.751   5.276 -11.855  0.00  0.00    +0.028 A 
ATOM      3  C   UNL     1       4.783   5.252 -12.970  0.00  0.00    +0.040 C 
ATOM      4  C   UNL     1       5.289   6.132 -14.108  0.00  0.00    +0.092 C 
ATOM      5  C   UNL     1       6.669   5.710 -14.504  0.00  0.00    +0.246 C 
ATOM      6  N   UNL     1       7.548   5.288 -13.462  0.00  0.00    -0.179 NA
ATOM      7  O   UNL     1       7.136   6.247 -15.535  0.00  0.00    -0.273 OA
ATOM      8  C   UNL     1       7.118   5.220 -12.098  0.00  0.00    +0.072 A 
ATOM      9  C   UNL     1       8.031   5.398 -11.068  0.00  0.00    +0.016 A 
ATOM     10  C   UNL     1       7.576   5.856  -9.838  0.00  0.00    +0.004 A 
ATOM     11  C   UNL     1       6.215   6.052  -9.638  0.00  0.00    +0.037 A 
ENDROOT
BRANCH   1  12
ATOM     12  O   UNL     1       4.091   4.996 -10.185  0.00  0.00    -0.473 OA
BRANCH  12  13
ATOM     13  C   UNL     1       3.810   4.299  -8.998  0.00  0.00    +0.239 C 
BRANCH  13  14
ATOM     14  C   UNL     1       2.347   4.919  -8.552  0.00  0.00    +0.213 C 
ATOM     15  O   UNL     1       2.188   3.893  -7.439  0.00  0.00    -0.218 OA
BRANCH  14  16
ATOM     16  C   UNL     1       3.057   6.022  -7.549  0.00  0.00    +0.125 C 
BRANCH  16  17
ATOM     17  N   UNL     1       4.028   5.295  -6.795  0.00  0.00    -0.218 NA
BRANCH  17  19
ATOM     18  C   UNL     1       4.690   6.127  -5.737  0.00  0.00    +0.017 C 
ATOM     19  C   UNL     1       4.313   5.960  -5.579  0.00  0.00    +0.060 C 
ATOM     20  C   UNL     1       3.298   7.009  -5.184  0.00  0.00    +0.017 C 
ATOM     21  C   UNL     1       4.575   5.056  -4.404  0.00  0.00    +0.017 C 
ENDBRANCH  17  19
ENDBRANCH  16  17
ENDBRANCH  14  16
ENDBRANCH  13  14
ENDBRANCH  12  13
ENDBRANCH   1  12
TORSDOF 6
ENDMDL
MODEL 4
REMARK VINA RESULT:      -7.1      2.889      4.463
REMARK  Name = 
REMARK  6 active torsions:
REMARK  status: ('A' for Active; 'I' for Inactive)
REMARK    1  A    between atoms: C_2  and  N_5
REMARK    2  A    between atoms: N_5  and  C_6
REMARK    3  A    between atoms: C_6  and  C_7
REMARK    4  A    between atoms: C_7  and  C_9
REMARK    5  A    between atoms: C_9  and  O_10
REMARK    6  A    between atoms: O_10  and  C_11
REMARK                            x       y       z     vdW  Elec       q    Type
REMARK                         _______ _______ _______ _____ _____    ______ ____
ROOT
ATOM      1  C   UNL     1       1.595   4.774  -6.706  0.00  0.00    +0.136 A 
ATOM      2  C   UNL     1       0.500   5.582  -6.423  0.00  0.00    +0.028 A 
ATOM      3  C   UNL     1      -0.792   5.465  -7.130  0.00  0.00    +0.040 C 
ATOM      4  C   UNL     1      -1.936   5.553  -6.125  0.00  0.00    +0.092 C 
ATOM      5  C   UNL     1      -1.808   6.803  -5.313  0.00  0.00    +0.246 C 
ATOM      6  N   UNL     1      -0.490   7.220  -4.957  0.00  0.00    -0.179 NA
ATOM      7  O   UNL     1      -2.772   7.076  -4.562  0.00  0.00    -0.273 OA
ATOM      8  C   UNL     1       0.669   6.502  -5.396  0.00  0.00    +0.072 A 
ATOM      9  C   UNL     1       1.827   6.508  -4.631  0.00  0.00    +0.016 A 
ATOM     10  C   UNL     1       2.715   5.447  -4.747  0.00  0.00    +0.004 A 
ATOM     11  C   UNL     1       2.471   4.445  -5.679  0.00  0.00    +0.037 A 
ENDROOT
BRANCH   1  12
ATOM     12  O   UNL     1       1.656   4.194  -7.960  0.00  0.00    -0.473 OA
BRANCH  12  13
ATOM     13  C   UNL     1       2.873   3.986  -8.631  0.00  0.00    +0.239 C 
BRANCH  13  14
ATOM     14  C   UNL     1       3.302   5.514  -9.084  0.00  0.00    +0.213 C 
ATOM     15  O   UNL     1       4.483   5.002  -9.896  0.00  0.00    -0.218 OA
BRANCH  14  16
ATOM     16  C   UNL     1       2.283   5.475 -10.383  0.00  0.00    +0.125 C 
BRANCH  16  17
ATOM     17  N   UNL     1       1.431   6.612 -10.245  0.00  0.00    -0.218 NA
BRANCH  17  19
ATOM     18  C   UNL     1      -0.035   6.322 -10.374  0.00  0.00    +0.017 C 
ATOM     19  C   UNL     1       0.148   6.339 -10.776  0.00  0.00    +0.060 C 
ATOM     20  C   UNL     1      -0.413   7.433 -11.658  0.00  0.00    +0.017 C 
ATOM     21  C   UNL     1       0.019   5.016 -11.484  0.00  0.00    +0.017 C 
ENDBRANCH  17  19
ENDBRANCH  16  17
ENDBRANCH  14  16
ENDBRANCH  13  14
ENDBRANCH  12  13
ENDBRANCH   1  12
TORSDOF 6
ENDMDL
MODEL 5
REMARK VINA RESULT:      -7.0      3.854      5.114
REMARK  Name = 
REMARK  6 active torsions:
REMARK  status: ('A' for Active; 'I' for Inactive)
REMARK    1  A    between atoms: C_2  and  N_5
REMARK    2  A    between atoms: N_5  and  C_6
REMARK    3  A    between atoms: C_6  and  C_7
REMARK    4  A    between atoms: C_7  and  C_9
REMARK    5  A    between atoms: C_9  and  O_10
REMARK    6  A    between atoms: O_10  and  C_11
REMARK                            x       y       z     vdW  Elec       q    Type
REMARK                         _______ _______ _______ _____ _____    ______ ____
ROOT
ATOM      1  C   UNL     1      -0.101   5.963  -4.222  0.00  0.00    +0.136 A 
ATOM      2  C   UNL     1      -0.501   5.941  -2.892  0.00  0.00    +0.028 A 
ATOM      3  C   UNL     1       0.219   5.190  -1.844  0.00  0.00    +0.040 C 
ATOM      4  C   UNL     1       0.335   6.047  -0.587  0.00  0.00    +0.092 C 
ATOM      5  C   UNL     1      -1.020   6.516  -0.162  0.00  0.00    +0.246 C 
ATOM      6  N   UNL     1      -1.948   6.855  -1.193  0.00  0.00    -0.179 NA
ATOM      7  O   UNL     1      -1.082   7.094   0.947  0.00  0.00    -0.273 OA
ATOM      8  C   UNL     1      -1.618   6.707  -2.578  0.00  0.00    +0.072 A 
ATOM      9  C   UNL     1      -2.203   7.533  -3.528  0.00  0.00    +0.016 A 
ATOM     10  C   UNL     1      -1.533   7.764  -4.723  0.00  0.00    +0.004 A 
ATOM     11  C   UNL     1      -0.336   7.105  -4.978  0.00  0.00    +0.037 A 
ENDROOT
BRANCH   1  12
ATOM     12  O   UNL     1       0.673   4.910  -4.675  0.00  0.00    -0.473 OA
BRANCH  12  13
ATOM     13  C   UNL     1       0.870   4.658  -6.043  0.00  0.00    +0.239 C 
BRANCH  13  14
ATOM     14  C   UNL     1       2.405   4.052  -6.082  0.00  0.00    +0.213 C 
ATOM     15  O   UNL     1       2.351   3.862  -7.591  0.00  0.00    -0.218 OA
BRANCH  14  16
ATOM     16  C   UNL     1       3.058   5.563  -6.211  0.00  0.00    +0.125 C 
BRANCH  16  17
ATOM     17  N   UNL     1       4.007   5.669  -5.149  0.00  0.00    -0.218 NA
BRANCH  17  19
ATOM     18  C   UNL     1       3.910   7.162  -5.038  0.00  0.00    +0.017 C 
ATOM     19  C   UNL     1       4.054   6.994  -4.655  0.00  0.00    +0.060 C 
ATOM     20  C   UNL     1       3.134   7.261  -3.485  0.00  0.00    +0.017 C 
ATOM     21  C   UNL     1       5.433   7.504  -4.328  0.00  0.00    +0.017 C 
ENDBRANCH  17  19
ENDBRANCH  16  17
ENDBRANCH  14  16
ENDBRANCH  13  14
ENDBRANCH  12  13
ENDBRANCH   1  12
TORSDOF 6
ENDMDL
MODEL 6
REMARK VINA RESULT:      -6.9      2.242      3.582
REMARK  Name = 
REMARK  6 active torsions:
REMARK  status: ('A' for Active; 'I' for Inactive)
REMARK    1  A    between atoms: C_2  and  N_5
REMARK    2  A    between atoms: N_5  and  C_6
REMARK    3  A    between atoms: C_6  and  C_7
REMARK    4  A    between atoms: C_7  and  C_9
REMARK    5  A    between atoms: C_9  and  O_10
REMARK    6  A    between atoms: O_10  and  C_11
REMARK                            x       y       z     vdW  Elec       q    Type
REMARK                         _______ _______ _______ _____ _____    ______ ____
ROOT
ATOM      1  C   UNL     1       0.393   5.437  -6.943  0.00  0.00    +0.136 A 
ATOM      2  C   UNL     1      -0.478   5.639  -5.879  0.00  0.00    +0.028 A 
ATOM      3  C   UNL     1      -1.912   5.944  -6.057  0.00  0.00    +0.040 C 
ATOM      4  C   UNL     1      -2.736   5.128  -5.066  0.00  0.00    +0.092 C 
ATOM      5  C   UNL     1      -2.242   5.364  -3.674  0.00  0.00    +0.246 C 
ATOM      6  N   UNL     1      -0.834   5.520  -3.498  0.00  0.00    -0.179 NA
ATOM      7  O   UNL     1      -2.936   4.879  -2.751  0.00  0.00    -0.273 OA
ATOM      8  C   UNL     1       0.069   5.502  -4.609  0.00  0.00    +0.072 A 
ATOM      9  C   UNL     1       1.376   5.065  -4.441  0.00  0.00    +0.016 A 
ATOM     10  C   UNL     1       2.058   4.550  -5.535  0.00  0.00    +0.004 A 
ATOM     11  C   UNL     1       1.454   4.554  -6.787  0.00  0.00    +0.037 A 
ENDROOT
BRANCH   1  12
ATOM     12  O   UNL     1       0.052   5.993  -8.164  0.00  0.00    -0.473 OA
BRANCH  12  13
ATOM     13  C   UNL     1       0.263   5.320  -9.378  0.00  0.00    +0.239 C 
BRANCH  13  14
ATOM     14  C   UNL     1       0.986   6.474 -10.311  0.00  0.00    +0.213 C 
ATOM     15  O   UNL     1       1.436   7.260  -9.088  0.00  0.00    -0.218 OA
BRANCH  14  16
ATOM     16  C   UNL     1       2.395   5.615 -10.382  0.00  0.00    +0.125 C 
BRANCH  16  17
ATOM     17  N   UNL     1       3.339   6.350  -9.604  0.00  0.00    -0.218 NA
BRANCH  17  19
ATOM     18  C   UNL     1       4.339   5.232  -9.589  0.00  0.00    +0.017 C 
ATOM     19  C   UNL     1       4.517   5.592  -9.406  0.00  0.00    +0.060 C 
ATOM     20  C   UNL     1       5.732   6.114 -10.141  0.00  0.00    +0.017 C 
ATOM     21  C   UNL     1       4.879   5.341  -7.966  0.00  0.00    +0.017 C 
ENDBRANCH  17  19
ENDBRANCH  16  17
ENDBRANCH  14  16
ENDBRANCH  13  14
ENDBRANCH  12  13
ENDBRANCH   1  12
TORSDOF 6
ENDMDL
MODEL 7
REMARK VINA RESULT:      -6.9      2.928      7.628
REMARK  Name = 
REMARK  6 active torsions:
REMARK  status: ('A' for Active; 'I' for Inactive)
REMARK    1  A    between atoms: C_2  and  N_5
REMARK    2  A    between atoms: N_5  and  C_6
REMARK    3  A    between atoms: C_6  and  C_7
REMARK    4  A    between atoms: C_7  and  C_9
REMARK    5  A    between atoms: C_9  and  O_10
REMARK    6  A    between atoms: O_10  and  C_11
REMARK                            x       y       z     vdW  Elec       q    Type
REMARK                         _______ _______ _______ _____ _____    ______ ____
ROOT
ATOM      1  C   UNL     1       2.314   6.063  -8.956  0.00  0.00    +0.136 A 
ATOM      2  C   UNL     1       1.649   6.128 -10.174  0.00  0.00    +0.028 A 
ATOM      3  C   UNL     1       0.179   6.204 -10.289  0.00  0.00    +0.040 C 
ATOM      4  C   UNL     1      -0.200   7.236 -11.346  0.00  0.00    +0.092 C 
ATOM      5  C   UNL     1       0.485   6.920 -12.637  0.00  0.00    +0.246 C 
ATOM      6  N   UNL     1       1.814   6.406 -12.564  0.00  0.00    -0.179 NA
ATOM      7  O   UNL     1       0.133   7.598 -13.630  0.00  0.00    -0.273 OA
ATOM      8  C   UNL     1       2.454   6.154 -11.307  0.00  0.00    +0.072 A 
ATOM      9  C   UNL     1       3.835   6.238 -11.196  0.00  0.00    +0.016 A 
ATOM     10  C   UNL     1       4.394   6.523  -9.958  0.00  0.00    +0.004 A 
ATOM     11  C   UNL     1       3.572   6.641  -8.843  0.00  0.00    +0.037 A 
ENDROOT
BRANCH   1  12
ATOM     12  O   UNL     1       1.610   5.580  -7.867  0.00  0.00    -0.473 OA
BRANCH  12  13
ATOM     13  C   UNL     1       2.224   5.327  -6.630  0.00  0.00    +0.239 C 
BRANCH  13  14
ATOM     14  C   UNL     1       1.165   4.290  -5.905  0.00  0.00    +0.213 C 
ATOM     15  O   UNL     1       1.376   4.935  -4.543  0.00  0.00    -0.218 OA
BRANCH  14  16
ATOM     16  C   UNL     1      -0.121   5.263  -6.261  0.00  0.00    +0.125 C 
BRANCH  16  17
ATOM     17  N   UNL     1      -0.666   5.665  -5.004  0.00  0.00    -0.218 NA
BRANCH  17  19
ATOM     18  C   UNL     1      -2.146   5.846  -4.846  0.00  0.00    +0.017 C 
ATOM     19  C   UNL     1      -1.997   6.117  -5.161  0.00  0.00    +0.060 C 
ATOM     20  C   UNL     1      -2.203   7.584  -4.856  0.00  0.00    +0.017 C 
ATOM     21  C   UNL     1      -2.627   5.794  -6.490  0.00  0.00    +0.017 C 
ENDBRANCH  17  19
ENDBRANCH  16  17
ENDBRANCH  14  16
ENDBRANCH  13  14
ENDBRANCH  12  13
ENDBRANCH   1  12
TORSDOF 6
ENDMDL
MODEL 8
REMARK VINA RESULT:      -6.9      3.472      8.046
REMARK  Name = 
REMARK  6 active torsions:
REMARK  status: ('A' for Active; 'I' for Inactive)
REMARK    1  A    between atoms: C_2  and  N_5
REMARK    2  A    between atoms: N_5  and  C_6
REMARK    3  A    between atoms: C_6  and  C_7
REMARK    4  A    between atoms: C_7  and  C_9
REMARK    5  A    between atoms: C_9  and  O_10
REMARK    6  A    between atoms: O_10  and  C_11
REMARK                            x       y       z     vdW  Elec       q    Type
REMARK                         _______ _______ _______ _____ _____    ______ ____
ROOT
ATOM      1  C   UNL     1       2.522   5.696  -4.433  0.00  0.00    +0.136 A 
ATOM      2  C   UNL     1       1.812   5.356  -5.578  0.00  0.00    +0.028 A 
ATOM      3  C   UNL     1       0.373   5.025  -5.567  0.00  0.00    +0.040 C 
ATOM      4  C   UNL     1      -0.318   5.705  -6.744  0.00  0.00    +0.092 C 
ATOM      5  C   UNL     1       0.371   5.340  -8.021  0.00  0.00    +0.246 C 
ATOM      6  N   UNL     1       1.792   5.213  -7.985  0.00  0.00    -0.179 NA
ATOM      7  O   UNL     1      -0.196   5.703  -9.077  0.00  0.00    -0.273 OA
ATOM      8  C   UNL     1       2.529   5.377  -6.768  0.00  0.00    +0.072 A 
ATOM      9  C   UNL     1       3.839   5.836  -6.801  0.00  0.00    +0.016 A 
ATOM     10  C   UNL     1       4.352   6.485  -5.686  0.00  0.00    +0.004 A 
ATOM     11  C   UNL     1       3.579   6.592  -4.536  0.00  0.00    +0.037 A 
ENDROOT
BRANCH   1  12
ATOM     12  O   UNL     1       2.024   5.261  -3.218  0.00  0.00    -0.473 OA
BRANCH  12  13
ATOM     13  C   UNL     1       1.525   6.149  -2.251  0.00  0.00    +0.239 C 
BRANCH  13  14
ATOM     14  C   UNL     1       0.958   5.130  -1.082  0.00  0.00    +0.213 C 
ATOM     15  O   UNL     1       1.460   6.037   0.032  0.00  0.00    -0.218 OA
BRANCH  14  16
ATOM     16  C   UNL     1      -0.532   5.841  -1.105  0.00  0.00    +0.125 C 
BRANCH  16  17
ATOM     17  N   UNL     1      -1.330   5.046  -1.983  0.00  0.00    -0.218 NA
BRANCH  17  19
ATOM     18  C   UNL     1      -2.615   5.798  -2.161  0.00  0.00    +0.017 C 
ATOM     19  C   UNL     1      -2.380   5.817  -2.534  0.00  0.00    +0.060 C 
ATOM     20  C   UNL     1      -1.985   7.220  -2.938  0.00  0.00    +0.017 C 
ATOM     21  C   UNL     1      -3.121   5.164  -3.671  0.00  0.00    +0.017 C 
ENDBRANCH  17  19
ENDBRANCH  16  17
ENDBRANCH  14  16
ENDBRANCH  13  14
ENDBRANCH  12  13
ENDBRANCH   1  12
TORSDOF 6
ENDMDL
MODEL 9
REMARK VINA RESULT:      -6.9      1.788      2.254
REMARK  Name = 
REMARK  6 active torsions:
REMARK  status: ('A' for Active; 'I' for Inactive)
REMARK    1  A    between atoms: C_2  and  N_5
REMARK    2  A    between atoms: N_5  and  C_6
REMARK    3  A    between atoms: C_6  and  C_7
REMARK    4  A    between atoms: C_7  and  C_9
REMARK    5  A    between atoms: C_9  and  O_10
REMARK    6  A    between atoms: O_10  and  C_11
REMARK                            x       y       z     vdW  Elec       q    Type
REMARK                         _______ _______ _______ _____ _____    ______ ____
ROOT
ATOM      1  C   UNL     1       2.516   6.806  -6.395  0.00  0.00    +0.136 A 
ATOM      2  C   UNL     1       3.228   6.588  -5.222  0.00  0.00    +0.028 A 
ATOM      3  C   UNL     1       4.556   7.178  -4.962  0.00  0.00    +0.040 C 
ATOM      4  C   UNL     1       4.615   7.700  -3.531  0.00  0.00    +0.092 C 
ATOM      5  C   UNL     1       4.246   6.612  -2.574  0.00  0.00    +0.246 C 
ATOM      6  N   UNL     1       3.221   5.705  -2.978  0.00  0.00    -0.179 NA
ATOM      7  O   UNL     1       4.411   6.865  -1.359  0.00  0.00    -0.273 OA
ATOM      8  C   UNL     1       2.600   5.798  -4.265  0.00  0.00    +0.072 A 
ATOM      9  C   UNL     1       1.291   5.372  -4.443  0.00  0.00    +0.016 A 
ATOM     10  C   UNL     1       0.538   5.924  -5.471  0.00  0.00    +0.004 A 
ATOM     11  C   UNL     1       1.127   6.828  -6.346  0.00  0.00    +0.037 A 
ENDROOT
BRANCH   1  12
ATOM     12  O   UNL     1       3.233   7.167  -7.521  0.00  0.00    -0.473 OA
BRANCH  12  13
ATOM     13  C   UNL     1       3.285   6.357  -8.668  0.00  0.00    +0.239 C 
BRANCH  13  14
ATOM     14  C   UNL     1       4.654   5.468  -8.420  0.00  0.00    +0.213 C 
ATOM     15  O   UNL     1       4.021   4.222  -9.022  0.00  0.00    -0.218 OA
BRANCH  14  16
ATOM     16  C   UNL     1       5.293   5.945  -9.867  0.00  0.00    +0.125 C 
BRANCH  16  17
ATOM     17  N   UNL     1       6.709   5.933  -9.690  0.00  0.00    -0.218 NA
BRANCH  17  19
ATOM     18  C   UNL     1       7.589   6.969 -10.325  0.00  0.00    +0.017 C 
ATOM     19  C   UNL     1       7.335   6.781 -10.634  0.00  0.00    +0.060 C 
ATOM     20  C   UNL     1       8.114   6.058 -11.710  0.00  0.00    +0.017 C 
ATOM     21  C   UNL     1       6.429   7.798 -11.277  0.00  0.00    +0.017 C 
ENDBRANCH  17  19
ENDBRANCH  16  17
ENDBRANCH  14  16
ENDBRANCH  13  14
ENDBRANCH  12  13
ENDBRANCH   1  12
TORSDOF 6
ENDMDL
