MODEL 1
REMARK VINA RESULT:      -5.5      0.000      0.000
REMARK  Name = 
REMARK  1 active torsions:
REMARK  status: ('A' for Active; 'I' for Inactive)
REMARK    1  A    between atoms: C_4  and  C_5
REMARK                            x       y       z     vdW  Elec       q    Type
REMARK                         _______ _______ _______ _____ _____    ______ ____
ROOT
ATOM      1  C   UNL     1       6.316   6.127 -10.842  0.00  0.00    -0.021 A 
ATOM      2  C   UNL     1       6.865   5.731  -9.627  0.00  0.00    -0.004 A 
ATOM      3  C   UNL     1       6.007   5.326  -8.622  0.00  0.00    -0.000 A 
ATOM      4  C   UNL     1       4.622   5.345  -8.877  0.00  0.00    -0.000 A 
ATOM      5  C   UNL     1       4.371   5.183 -10.250  0.00  0.00    -0.000 A 
ATOM      6  C   UNL     1       5.009   6.185 -10.995  0.00  0.00    -0.004 A 
ENDROOT
BRANCH   1   9
ATOM      7  N   UNL     1       6.588   4.950 -12.917  0.00  0.00    -0.133 NA
ATOM      8  C   UNL     1       7.615   6.135 -13.122  0.00  0.00    +0.096 C 
ATOM      9  C   UNL     1       7.380   7.022 -11.649  0.00  0.00    +0.041 C 
ATOM     10  C   UNL     1       8.596   5.799 -11.750  0.00  0.00    +0.025 C 
ENDBRANCH   1   9
TORSDOF 1
ENDMDL
MODEL 2
REMARK VINA RESULT:      -5.5      9.011     11.107
REMARK  Name = 
REMARK  1 active torsions:
REMARK  status: ('A' for Active; 'I' for Inactive)
REMARK    1  A    between atoms: C_4  and  C_5
REMARK                            x       y       z     vdW  Elec       q    Type
REMARK                         _______ _______ _______ _____ _____    ______ ____
ROOT
ATOM      1  C   UNL     1      -1.588   6.419  -4.233  0.00  0.00    -0.021 A 
ATOM      2  C   UNL     1      -2.595   6.138  -5.151  0.00  0.00    -0.004 A 
ATOM      3  C   UNL     1      -2.230   5.679  -6.403  0.00  0.00    -0.000 A 
ATOM      4  C   UNL     1      -0.860   5.529  -6.687  0.00  0.00    -0.000 A 
ATOM      5  C   UNL     1      -0.135   5.283  -5.508  0.00  0.00    -0.000 A 
ATOM      6  C   UNL     1      -0.322   6.320  -4.583  0.00  0.00    -0.004 A 
ENDROOT
BRANCH   1   9
ATOM      7  N   UNL     1      -1.418   5.105  -2.230  0.00  0.00    -0.133 NA
ATOM      8  C   UNL     1      -2.084   6.420  -1.657  0.00  0.00    +0.096 C 
ATOM      9  C   UNL     1      -2.156   7.396  -3.091  0.00  0.00    +0.041 C 
ATOM     10  C   UNL     1      -3.489   6.390  -2.648  0.00  0.00    +0.025 C 
ENDBRANCH   1   9
TORSDOF 1
ENDMDL
MODEL 3
REMARK VINA RESULT:      -5.2      2.146      4.028
REMARK  Name = 
REMARK  1 active torsions:
REMARK  status: ('A' for Active; 'I' for Inactive)
REMARK    1  A    between atoms: C_4  and  C_5
REMARK                            x       y       z     vdW  Elec       q    Type
REMARK                         _______ _______ _______ _____ _____    ______ ____
ROOT
ATOM      1  C   UNL     1       5.146   5.944  -9.921  0.00  0.00    -0.021 A 
ATOM      2  C   UNL     1       6.415   5.766  -9.379  0.00  0.00    -0.004 A 
ATOM      3  C   UNL     1       7.482   6.394  -9.994  0.00  0.00    -0.000 A 
ATOM      4  C   UNL     1       7.231   7.174 -11.139  0.00  0.00    -0.000 A 
ATOM      5  C   UNL     1       5.918   7.676 -11.116  0.00  0.00    -0.000 A 
ATOM      6  C   UNL     1       4.986   6.632 -11.032  0.00  0.00    -0.004 A 
ENDROOT
BRANCH   1   9
ATOM      7  N   UNL     1       3.289   7.119  -8.952  0.00  0.00    -0.133 NA
ATOM      8  C   UNL     1       2.863   5.623  -8.666  0.00  0.00    +0.096 C 
ATOM      9  C   UNL     1       4.174   4.767  -9.416  0.00  0.00    +0.041 C 
ATOM     10  C   UNL     1       4.246   5.187  -7.742  0.00  0.00    +0.025 C 
ENDBRANCH   1   9
TORSDOF 1
ENDMDL
MODEL 4
REMARK VINA RESULT:      -5.1      1.688      3.888
REMARK  Name = 
REMARK  1 active torsions:
REMARK  status: ('A' for Active; 'I' for Inactive)
REMARK    1  A    between atoms: C_4  and  C_5
REMARK                            x       y       z     vdW  Elec       q    Type
REMARK                         _______ _______ _______ _____ _____    ______ ____
ROOT
ATOM      1  C   UNL     1       6.378   6.452 -11.173  0.00  0.00    -0.021 A 
ATOM      2  C   UNL     1       6.311   5.866 -12.433  0.00  0.00    -0.004 A 
ATOM      3  C   UNL     1       7.493   5.501 -13.049  0.00  0.00    -0.000 A 
ATOM      4  C   UNL     1       8.704   5.750 -12.375  0.00  0.00    -0.000 A 
ATOM      5  C   UNL     1       8.501   5.757 -10.984  0.00  0.00    -0.000 A 
ATOM      6  C   UNL     1       7.546   6.718 -10.624  0.00  0.00    -0.004 A 
ENDROOT
BRANCH   1   9
ATOM      7  N   UNL     1       5.510   5.375  -9.210  0.00  0.00    -0.133 NA
ATOM      8  C   UNL     1       4.365   6.429  -9.490  0.00  0.00    +0.096 C 
ATOM      9  C   UNL     1       5.015   7.250 -10.875  0.00  0.00    +0.041 C 
ATOM     10  C   UNL     1       3.970   5.890 -11.074  0.00  0.00    +0.025 C 
ENDBRANCH   1   9
TORSDOF 1
ENDMDL
MODEL 5
REMARK VINA RESULT:      -5.0      1.442      2.259
REMARK  Name = 
REMARK  1 active torsions:
REMARK  status: ('A' for Active; 'I' for Inactive)
REMARK    1  A    between atoms: C_4  and  C_5
REMARK                            x       y       z     vdW  Elec       q    Type
REMARK                         _______ _______ _______ _____ _____    ______ ____
ROOT
ATOM      1  C   UNL     1       6.025   6.146 -11.871  0.00  0.00    -0.021 A 
ATOM      2  C   UNL     1       5.170   5.947 -10.792  0.00  0.00    -0.004 A 
ATOM      3  C   UNL     1       3.828   5.738 -11.050  0.00  0.00    -0.000 A 
ATOM      4  C   UNL     1       3.395   5.746 -12.390  0.00  0.00    -0.000 A 
ATOM      5  C   UNL     1       4.440   5.361 -13.248  0.00  0.00    -0.000 A 
ATOM      6  C   UNL     1       5.547   6.208 -13.097  0.00  0.00    -0.004 A 
ENDROOT
BRANCH   1   9
ATOM      7  N   UNL     1       7.768   4.668 -12.608  0.00  0.00    -0.133 NA
ATOM      8  C   UNL     1       8.621   5.765 -11.853  0.00  0.00    +0.096 C 
ATOM      9  C   UNL     1       7.371   6.867 -11.367  0.00  0.00    +0.041 C 
ATOM     10  C   UNL     1       7.870   5.591 -10.316  0.00  0.00    +0.025 C 
ENDBRANCH   1   9
TORSDOF 1
ENDMDL
MODEL 6
REMARK VINA RESULT:      -5.0      6.443      8.138
REMARK  Name = 
REMARK  1 active torsions:
REMARK  status: ('A' for Active; 'I' for Inactive)
REMARK    1  A    between atoms: C_4  and  C_5
REMARK                            x       y       z     vdW  Elec       q    Type
REMARK                         _______ _______ _______ _____ _____    ______ ____
ROOT
ATOM      1  C   UNL     1       0.041   6.069  -6.361  0.00  0.00    -0.021 A 
ATOM      2  C   UNL     1      -0.162   6.965  -5.316  0.00  0.00    -0.004 A 
ATOM      3  C   UNL     1      -1.462   7.243  -4.936  0.00  0.00    -0.000 A 
ATOM      4  C   UNL     1      -2.512   6.613  -5.630  0.00  0.00    -0.000 A 
ATOM      5  C   UNL     1      -2.084   5.383  -6.160  0.00  0.00    -0.000 A 
ATOM      6  C   UNL     1      -0.986   5.563  -7.013  0.00  0.00    -0.004 A 
ENDROOT
BRANCH   1   9
ATOM      7  N   UNL     1       1.127   3.965  -5.958  0.00  0.00    -0.133 NA
ATOM      8  C   UNL     1       2.308   4.776  -6.628  0.00  0.00    +0.096 C 
ATOM      9  C   UNL     1       1.512   6.279  -6.974  0.00  0.00    +0.041 C 
ATOM     10  C   UNL     1       2.356   6.058  -5.483  0.00  0.00    +0.025 C 
ENDBRANCH   1   9
TORSDOF 1
ENDMDL
MODEL 7
REMARK VINA RESULT:      -5.0      6.341      8.384
REMARK  Name = 
REMARK  1 active torsions:
REMARK  status: ('A' for Active; 'I' for Inactive)
REMARK    1  A    between atoms: C_4  and  C_5
REMARK                            x       y       z     vdW  Elec       q    Type
REMARK                         _______ _______ _______ _____ _____    ______ ____
ROOT
ATOM      1  C   UNL     1      -0.068   5.663  -5.779  0.00  0.00    -0.021 A 
ATOM      2  C   UNL     1      -1.138   5.370  -6.619  0.00  0.00    -0.004 A 
ATOM      3  C   UNL     1      -2.367   5.936  -6.334  0.00  0.00    -0.000 A 
ATOM      4  C   UNL     1      -2.474   6.770  -5.205  0.00  0.00    -0.000 A 
ATOM      5  C   UNL     1      -1.236   7.371  -4.916  0.00  0.00    -0.000 A 
ATOM      6  C   UNL     1      -0.249   6.399  -4.701  0.00  0.00    -0.004 A 
ENDROOT
BRANCH   1   9
ATOM      7  N   UNL     1       1.890   6.942  -6.326  0.00  0.00    -0.133 NA
ATOM      8  C   UNL     1       2.473   5.474  -6.406  0.00  0.00    +0.096 C 
ATOM      9  C   UNL     1       1.076   4.547  -5.954  0.00  0.00    +0.041 C 
ATOM     10  C   UNL     1       1.401   4.889  -7.616  0.00  0.00    +0.025 C 
ENDBRANCH   1   9
TORSDOF 1
ENDMDL
MODEL 8
REMARK VINA RESULT:      -5.0      5.164      6.955
REMARK  Name = 
REMARK  1 active torsions:
REMARK  status: ('A' for Active; 'I' for Inactive)
REMARK    1  A    between atoms: C_4  and  C_5
REMARK                            x       y       z     vdW  Elec       q    Type
REMARK                         _______ _______ _______ _____ _____    ______ ____
ROOT
ATOM      1  C   UNL     1       0.925   6.041  -7.233  0.00  0.00    -0.021 A 
ATOM      2  C   UNL     1      -0.281   5.545  -7.715  0.00  0.00    -0.004 A 
ATOM      3  C   UNL     1      -1.344   5.441  -6.837  0.00  0.00    -0.000 A 
ATOM      4  C   UNL     1      -1.148   5.834  -5.500  0.00  0.00    -0.000 A 
ATOM      5  C   UNL     1      -0.139   6.809  -5.415  0.00  0.00    -0.000 A 
ATOM      6  C   UNL     1       1.063   6.330  -5.955  0.00  0.00    -0.004 A 
ENDROOT
BRANCH   1   9
ATOM      7  N   UNL     1       2.016   8.115  -7.757  0.00  0.00    -0.133 NA
ATOM      8  C   UNL     1       2.868   7.112  -8.634  0.00  0.00    +0.096 C 
ATOM      9  C   UNL     1       2.120   5.603  -8.214  0.00  0.00    +0.041 C 
ATOM     10  C   UNL     1       1.565   6.505  -9.579  0.00  0.00    +0.025 C 
ENDBRANCH   1   9
TORSDOF 1
ENDMDL
MODEL 9
REMARK VINA RESULT:      -4.8      1.978      4.080
REMARK  Name = 
REMARK  1 active torsions:
REMARK  status: ('A' for Active; 'I' for Inactive)
REMARK    1  A    between atoms: C_4  and  C_5
REMARK                            x       y       z     vdW  Elec       q    Type
REMARK                         _______ _______ _______ _____ _____    ______ ____
ROOT
ATOM      1  C   UNL     1       4.954   6.463  -9.728  0.00  0.00    -0.021 A 
ATOM      2  C   UNL     1       5.224   7.235 -10.853  0.00  0.00    -0.004 A 
ATOM      3  C   UNL     1       6.545   7.420 -11.218  0.00  0.00    -0.000 A 
ATOM      4  C   UNL     1       7.547   6.826 -10.428  0.00  0.00    -0.000 A 
ATOM      5  C   UNL     1       7.053   5.677  -9.786  0.00  0.00    -0.000 A 
ATOM      6  C   UNL     1       5.940   5.990  -8.993  0.00  0.00    -0.004 A 
ENDROOT
BRANCH   1   9
ATOM      7  N   UNL     1       3.980   4.296  -9.377  0.00  0.00    -0.133 NA
ATOM      8  C   UNL     1       2.760   5.226  -8.992  0.00  0.00    +0.096 C 
ATOM      9  C   UNL     1       3.477   6.795  -9.188  0.00  0.00    +0.041 C 
ATOM     10  C   UNL     1       2.639   6.045 -10.499  0.00  0.00    +0.025 C 
ENDBRANCH   1   9
TORSDOF 1
ENDMDL
