MODEL 1
REMARK VINA RESULT:      -9.5      0.000      0.000
REMARK  Name = 
REMARK  6 active torsions:
REMARK  status: ('A' for Active; 'I' for Inactive)
REMARK    1  A    between atoms: C_5  and  C_6
REMARK    2  A    between atoms: C_9  and  C_10
REMARK    3  A    between atoms: C_13  and  N_14
REMARK    4  A    between atoms: C_16  and  C_17
REMARK    5  A    between atoms: C_17  and  O_18
REMARK    6  A    between atoms: O_18  and  P_19
REMARK                            x       y       z     vdW  Elec       q    Type
REMARK                         _______ _______ _______ _____ _____    ______ ____
ROOT
ATOM      1  C   UNL     1       3.369   6.846  -6.373  0.00  0.00    +0.029 A 
ATOM      2  C   UNL     1       3.966   5.749  -6.983  0.00  0.00    +0.141 A 
ATOM      3  F   UNL     1       5.078   5.243  -6.391  0.00  0.00    -0.204 F 
ATOM      4  C   UNL     1       3.749   5.522  -8.316  0.00  0.00    +0.045 A 
ATOM      5  C   UNL     1       2.852   6.258  -9.082  0.00  0.00    +0.059 A 
ATOM      6  C   UNL     1       1.980   7.047  -8.339  0.00  0.00    +0.015 A 
ATOM      7  C   UNL     1       2.208   7.295  -6.990  0.00  0.00    +0.004 A 
ENDROOT
BRANCH   1  11
ATOM      8  C   UNL     1       4.398   6.827  -2.254  0.00  0.00    +0.120 A 
ATOM      9  N   UNL     1       3.305   6.227  -2.741  0.00  0.00    -0.241 NA
ATOM     10  C   UNL     1       2.862   6.436  -4.005  0.00  0.00    +0.099 A 
ATOM     11  C   UNL     1       3.630   7.104  -4.951  0.00  0.00    +0.021 A 
ATOM     12  C   UNL     1       4.870   7.548  -4.505  0.00  0.00    +0.003 A 
ATOM     13  C   UNL     1       5.133   7.590  -3.151  0.00  0.00    +0.022 A 
BRANCH   8  17
ATOM     14  C   UNL     1       2.330   8.481   1.758  0.00  0.00    +0.180 C 
ATOM     15  N   UNL     1       3.383   7.898   0.976  0.00  0.00    -0.149 N 
ATOM     16  N   UNL     1       3.815   8.223  -0.239  0.00  0.00    -0.128 NA
ATOM     17  C   UNL     1       4.393   7.142  -0.819  0.00  0.00    +0.223 A 
ATOM     18  N   UNL     1       4.460   6.235   0.185  0.00  0.00    -0.106 NA
ATOM     19  N   UNL     1       4.113   6.838   1.321  0.00  0.00    -0.045 NA
ENDBRANCH   8  17
ENDBRANCH   1  11
BRANCH   5  20
ATOM     20  N   UNL     1       3.119   6.586 -10.453  0.00  0.00    -0.221 N 
ATOM     21  C   UNL     1       2.650   5.867 -11.603  0.00  0.00    +0.409 C 
ATOM     22  O   UNL     1       1.476   5.388 -11.649  0.00  0.00    -0.226 OA
ATOM     23  O   UNL     1       3.650   5.788 -12.561  0.00  0.00    -0.434 OA
ATOM     24  C   UNL     1       4.869   5.697 -11.578  0.00  0.00    +0.221 C 
ATOM     25  C   UNL     1       4.419   7.134 -10.839  0.00  0.00    +0.148 C 
BRANCH  24  26
ATOM     26  C   UNL     1       5.880   6.488 -12.656  0.00  0.00    +0.199 C 
BRANCH  26  27
ATOM     27  O   UNL     1       6.993   6.818 -11.931  0.00  0.00    -0.266 OA
BRANCH  27  28
ATOM     28  P   UNL     1       8.096   5.558 -11.748  0.00  0.00    +0.533 P 
ATOM     29  O   UNL     1       8.086   5.079 -10.141  0.00  0.00    -0.115 OA
ATOM     30  O   UNL     1       9.613   6.178 -12.201  0.00  0.00    -0.115 OA
ATOM     31  O   UNL     1       7.679   4.425 -12.657  0.00  0.00    -0.222 OA
ENDBRANCH  27  28
ENDBRANCH  26  27
ENDBRANCH  24  26
ENDBRANCH   5  20
TORSDOF 6
ENDMDL
MODEL 2
REMARK VINA RESULT:      -9.4      3.560      4.221
REMARK  Name = 
REMARK  6 active torsions:
REMARK  status: ('A' for Active; 'I' for Inactive)
REMARK    1  A    between atoms: C_5  and  C_6
REMARK    2  A    between atoms: C_9  and  C_10
REMARK    3  A    between atoms: C_13  and  N_14
REMARK    4  A    between atoms: C_16  and  C_17
REMARK    5  A    between atoms: C_17  and  O_18
REMARK    6  A    between atoms: O_18  and  P_19
REMARK                            x       y       z     vdW  Elec       q    Type
REMARK                         _______ _______ _______ _____ _____    ______ ____
ROOT
ATOM      1  C   UNL     1       0.622   5.455  -8.722  0.00  0.00    +0.029 A 
ATOM      2  C   UNL     1       1.523   4.501  -9.181  0.00  0.00    +0.141 A 
ATOM      3  F   UNL     1       2.201   3.791  -8.242  0.00  0.00    -0.204 F 
ATOM      4  C   UNL     1       2.043   4.621 -10.442  0.00  0.00    +0.045 A 
ATOM      5  C   UNL     1       1.623   5.582 -11.355  0.00  0.00    +0.059 A 
ATOM      6  C   UNL     1       0.440   6.223 -11.005  0.00  0.00    +0.015 A 
ATOM      7  C   UNL     1      -0.081   6.120  -9.720  0.00  0.00    +0.004 A 
ENDROOT
BRANCH   1  11
ATOM      8  C   UNL     1      -0.931   5.933  -4.800  0.00  0.00    +0.120 A 
ATOM      9  N   UNL     1       0.353   6.144  -5.111  0.00  0.00    -0.241 NA
ATOM     10  C   UNL     1       0.886   5.765  -6.300  0.00  0.00    +0.099 A 
ATOM     11  C   UNL     1       0.091   5.340  -7.357  0.00  0.00    +0.021 A 
ATOM     12  C   UNL     1      -1.276   5.322  -7.105  0.00  0.00    +0.003 A 
ATOM     13  C   UNL     1      -1.731   5.409  -5.805  0.00  0.00    +0.022 A 
BRANCH   8  17
ATOM     14  C   UNL     1      -2.146   7.338  -0.366  0.00  0.00    +0.180 C 
ATOM     15  N   UNL     1      -1.804   6.389  -1.388  0.00  0.00    -0.149 N 
ATOM     16  N   UNL     1      -0.876   6.465  -2.338  0.00  0.00    -0.128 NA
ATOM     17  C   UNL     1      -1.233   5.680  -3.385  0.00  0.00    +0.223 A 
ATOM     18  N   UNL     1      -2.302   4.990  -2.919  0.00  0.00    -0.106 NA
ATOM     19  N   UNL     1      -2.425   5.233  -1.615  0.00  0.00    -0.045 NA
ENDBRANCH   8  17
ENDBRANCH   1  11
BRANCH   5  20
ATOM     20  N   UNL     1       2.537   6.215 -12.262  0.00  0.00    -0.221 N 
ATOM     21  C   UNL     1       2.484   6.159 -13.695  0.00  0.00    +0.409 C 
ATOM     22  O   UNL     1       1.380   6.217 -14.317  0.00  0.00    -0.226 OA
ATOM     23  O   UNL     1       3.761   6.020 -14.219  0.00  0.00    -0.434 OA
ATOM     24  C   UNL     1       4.362   5.144 -13.065  0.00  0.00    +0.221 C 
ATOM     25  C   UNL     1       3.957   6.310 -11.928  0.00  0.00    +0.148 C 
BRANCH  24  26
ATOM     26  C   UNL     1       5.893   5.790 -13.284  0.00  0.00    +0.199 C 
BRANCH  26  27
ATOM     27  O   UNL     1       6.725   5.010 -12.527  0.00  0.00    -0.266 OA
BRANCH  27  28
ATOM     28  P   UNL     1       7.822   5.879 -11.590  0.00  0.00    +0.533 P 
ATOM     29  O   UNL     1       7.904   5.163 -10.076  0.00  0.00    -0.115 OA
ATOM     30  O   UNL     1       7.221   7.467 -11.494  0.00  0.00    -0.115 OA
ATOM     31  O   UNL     1       9.166   5.849 -12.281  0.00  0.00    -0.222 OA
ENDBRANCH  27  28
ENDBRANCH  26  27
ENDBRANCH  24  26
ENDBRANCH   5  20
TORSDOF 6
ENDMDL
MODEL 3
REMARK VINA RESULT:      -9.3      6.558     10.377
REMARK  Name = 
REMARK  6 active torsions:
REMARK  status: ('A' for Active; 'I' for Inactive)
REMARK    1  A    between atoms: C_5  and  C_6
REMARK    2  A    between atoms: C_9  and  C_10
REMARK    3  A    between atoms: C_13  and  N_14
REMARK    4  A    between atoms: C_16  and  C_17
REMARK    5  A    between atoms: C_17  and  O_18
REMARK    6  A    between atoms: O_18  and  P_19
REMARK                            x       y       z     vdW  Elec       q    Type
REMARK                         _______ _______ _______ _____ _____    ______ ____
ROOT
ATOM      1  C   UNL     1       1.983   5.877  -7.461  0.00  0.00    +0.029 A 
ATOM      2  C   UNL     1       1.926   4.671  -6.773  0.00  0.00    +0.141 A 
ATOM      3  F   UNL     1       2.274   3.552  -7.458  0.00  0.00    -0.204 F 
ATOM      4  C   UNL     1       1.116   4.563  -5.673  0.00  0.00    +0.045 A 
ATOM      5  C   UNL     1       0.435   5.640  -5.117  0.00  0.00    +0.059 A 
ATOM      6  C   UNL     1       0.859   6.882  -5.574  0.00  0.00    +0.015 A 
ATOM      7  C   UNL     1       1.665   6.997  -6.702  0.00  0.00    +0.004 A 
ENDROOT
BRANCH   1  11
ATOM      8  C   UNL     1       4.487   5.363 -10.851  0.00  0.00    +0.120 A 
ATOM      9  N   UNL     1       4.938   5.314  -9.591  0.00  0.00    -0.241 NA
ATOM     10  C   UNL     1       4.186   5.710  -8.534  0.00  0.00    +0.099 A 
ATOM     11  C   UNL     1       2.829   5.978  -8.658  0.00  0.00    +0.021 A 
ATOM     12  C   UNL     1       2.305   5.823  -9.936  0.00  0.00    +0.003 A 
ATOM     13  C   UNL     1       3.159   5.731 -11.017  0.00  0.00    +0.022 A 
BRANCH   8  17
ATOM     14  C   UNL     1       8.996   5.869 -12.439  0.00  0.00    +0.180 C 
ATOM     15  N   UNL     1       7.566   5.836 -12.556  0.00  0.00    -0.149 N 
ATOM     16  N   UNL     1       6.637   6.328 -11.742  0.00  0.00    -0.128 NA
ATOM     17  C   UNL     1       5.483   5.633 -11.896  0.00  0.00    +0.223 A 
ATOM     18  N   UNL     1       5.721   4.851 -12.977  0.00  0.00    -0.106 NA
ATOM     19  N   UNL     1       6.879   5.223 -13.520  0.00  0.00    -0.045 NA
ENDBRANCH   8  17
ENDBRANCH   1  11
BRANCH   5  20
ATOM     20  N   UNL     1      -0.878   5.496  -4.556  0.00  0.00    -0.221 N 
ATOM     21  C   UNL     1      -2.099   6.001  -5.115  0.00  0.00    +0.409 C 
ATOM     22  O   UNL     1      -2.319   5.961  -6.364  0.00  0.00    -0.226 OA
ATOM     23  O   UNL     1      -2.911   6.513  -4.114  0.00  0.00    -0.434 OA
ATOM     24  C   UNL     1      -1.772   7.059  -3.184  0.00  0.00    +0.221 C 
ATOM     25  C   UNL     1      -1.066   5.539  -3.106  0.00  0.00    +0.148 C 
BRANCH  24  26
ATOM     26  C   UNL     1      -2.679   6.786  -1.802  0.00  0.00    +0.199 C 
BRANCH  26  27
ATOM     27  O   UNL     1      -1.860   6.076  -0.968  0.00  0.00    -0.266 OA
BRANCH  27  28
ATOM     28  P   UNL     1      -1.243   6.971   0.319  0.00  0.00    +0.533 P 
ATOM     29  O   UNL     1      -2.046   6.507   1.716  0.00  0.00    -0.115 OA
ATOM     30  O   UNL     1      -1.532   8.605  -0.049  0.00  0.00    -0.115 OA
ATOM     31  O   UNL     1       0.239   6.692   0.425  0.00  0.00    -0.222 OA
ENDBRANCH  27  28
ENDBRANCH  26  27
ENDBRANCH  24  26
ENDBRANCH   5  20
TORSDOF 6
ENDMDL
MODEL 4
REMARK VINA RESULT:      -9.1      7.122     10.665
REMARK  Name = 
REMARK  6 active torsions:
REMARK  status: ('A' for Active; 'I' for Inactive)
REMARK    1  A    between atoms: C_5  and  C_6
REMARK    2  A    between atoms: C_9  and  C_10
REMARK    3  A    between atoms: C_13  and  N_14
REMARK    4  A    between atoms: C_16  and  C_17
REMARK    5  A    between atoms: C_17  and  O_18
REMARK    6  A    between atoms: O_18  and  P_19
REMARK                            x       y       z     vdW  Elec       q    Type
REMARK                         _______ _______ _______ _____ _____    ______ ____
ROOT
ATOM      1  C   UNL     1       1.212   6.022  -7.612  0.00  0.00    +0.029 A 
ATOM      2  C   UNL     1       1.355   6.943  -6.580  0.00  0.00    +0.141 A 
ATOM      3  F   UNL     1       2.559   7.559  -6.464  0.00  0.00    -0.204 F 
ATOM      4  C   UNL     1       0.533   6.859  -5.488  0.00  0.00    +0.045 A 
ATOM      5  C   UNL     1      -0.538   5.977  -5.402  0.00  0.00    +0.059 A 
ATOM      6  C   UNL     1      -0.894   5.391  -6.612  0.00  0.00    +0.015 A 
ATOM      7  C   UNL     1      -0.053   5.457  -7.718  0.00  0.00    +0.004 A 
ENDROOT
BRANCH   1  11
ATOM      8  C   UNL     1       3.634   5.455 -11.052  0.00  0.00    +0.120 A 
ATOM      9  N   UNL     1       3.972   5.012  -9.836  0.00  0.00    -0.241 NA
ATOM     10  C   UNL     1       3.317   5.398  -8.712  0.00  0.00    +0.099 A 
ATOM     11  C   UNL     1       2.117   6.096  -8.766  0.00  0.00    +0.021 A 
ATOM     12  C   UNL     1       1.648   6.376 -10.045  0.00  0.00    +0.003 A 
ATOM     13  C   UNL     1       2.495   6.245 -11.126  0.00  0.00    +0.022 A 
BRANCH   8  17
ATOM     14  C   UNL     1       8.268   5.403 -12.329  0.00  0.00    +0.180 C 
ATOM     15  N   UNL     1       6.856   5.552 -12.541  0.00  0.00    -0.149 N 
ATOM     16  N   UNL     1       5.943   6.149 -11.781  0.00  0.00    -0.128 NA
ATOM     17  C   UNL     1       4.724   5.608 -12.025  0.00  0.00    +0.223 A 
ATOM     18  N   UNL     1       4.935   4.814 -13.102  0.00  0.00    -0.106 NA
ATOM     19  N   UNL     1       6.165   5.042 -13.560  0.00  0.00    -0.045 NA
ENDBRANCH   8  17
ENDBRANCH   1  11
BRANCH   5  20
ATOM     20  N   UNL     1      -0.896   5.339  -4.168  0.00  0.00    -0.221 N 
ATOM     21  C   UNL     1      -2.207   5.292  -3.587  0.00  0.00    +0.409 C 
ATOM     22  O   UNL     1      -3.241   5.123  -4.304  0.00  0.00    -0.226 OA
ATOM     23  O   UNL     1      -2.132   5.471  -2.213  0.00  0.00    -0.434 OA
ATOM     24  C   UNL     1      -0.915   6.460  -2.202  0.00  0.00    +0.221 C 
ATOM     25  C   UNL     1       0.031   5.354  -3.037  0.00  0.00    +0.148 C 
BRANCH  24  26
ATOM     26  C   UNL     1      -0.387   5.895  -0.715  0.00  0.00    +0.199 C 
BRANCH  26  27
ATOM     27  O   UNL     1      -1.329   6.311   0.185  0.00  0.00    -0.266 OA
BRANCH  27  28
ATOM     28  P   UNL     1      -0.789   7.497   1.252  0.00  0.00    +0.533 P 
ATOM     29  O   UNL     1      -0.971   8.992   0.514  0.00  0.00    -0.115 OA
ATOM     30  O   UNL     1       0.846   7.155   1.564  0.00  0.00    -0.115 OA
ATOM     31  O   UNL     1      -1.613   7.410   2.516  0.00  0.00    -0.222 OA
ENDBRANCH  27  28
ENDBRANCH  26  27
ENDBRANCH  24  26
ENDBRANCH   5  20
TORSDOF 6
ENDMDL
MODEL 5
REMARK VINA RESULT:      -9.1      6.312      9.918
REMARK  Name = 
REMARK  6 active torsions:
REMARK  status: ('A' for Active; 'I' for Inactive)
REMARK    1  A    between atoms: C_5  and  C_6
REMARK    2  A    between atoms: C_9  and  C_10
REMARK    3  A    between atoms: C_13  and  N_14
REMARK    4  A    between atoms: C_16  and  C_17
REMARK    5  A    between atoms: C_17  and  O_18
REMARK    6  A    between atoms: O_18  and  P_19
REMARK                            x       y       z     vdW  Elec       q    Type
REMARK                         _______ _______ _______ _____ _____    ______ ____
ROOT
ATOM      1  C   UNL     1       1.368   6.026  -7.818  0.00  0.00    +0.029 A 
ATOM      2  C   UNL     1       1.480   6.975  -6.809  0.00  0.00    +0.141 A 
ATOM      3  F   UNL     1       2.661   7.637  -6.712  0.00  0.00    -0.204 F 
ATOM      4  C   UNL     1       0.664   6.888  -5.712  0.00  0.00    +0.045 A 
ATOM      5  C   UNL     1      -0.373   5.969  -5.601  0.00  0.00    +0.059 A 
ATOM      6  C   UNL     1      -0.711   5.342  -6.796  0.00  0.00    +0.015 A 
ATOM      7  C   UNL     1       0.124   5.412  -7.906  0.00  0.00    +0.004 A 
ENDROOT
BRANCH   1  11
ATOM      8  C   UNL     1       3.804   5.465 -11.250  0.00  0.00    +0.120 A 
ATOM      9  N   UNL     1       4.163   5.071 -10.022  0.00  0.00    -0.241 NA
ATOM     10  C   UNL     1       3.495   5.461  -8.908  0.00  0.00    +0.099 A 
ATOM     11  C   UNL     1       2.266   6.105  -8.978  0.00  0.00    +0.021 A 
ATOM     12  C   UNL     1       1.783   6.329 -10.262  0.00  0.00    +0.003 A 
ATOM     13  C   UNL     1       2.632   6.202 -11.342  0.00  0.00    +0.022 A 
BRANCH   8  17
ATOM     14  C   UNL     1       8.435   5.698 -12.517  0.00  0.00    +0.180 C 
ATOM     15  N   UNL     1       7.017   5.716 -12.740  0.00  0.00    -0.149 N 
ATOM     16  N   UNL     1       6.054   6.290 -12.025  0.00  0.00    -0.128 NA
ATOM     17  C   UNL     1       4.884   5.636 -12.230  0.00  0.00    +0.223 A 
ATOM     18  N   UNL     1       5.166   4.786 -13.247  0.00  0.00    -0.106 NA
ATOM     19  N   UNL     1       6.376   5.081 -13.720  0.00  0.00    -0.045 NA
ENDBRANCH   8  17
ENDBRANCH   1  11
BRANCH   5  20
ATOM     20  N   UNL     1      -0.704   5.348  -4.351  0.00  0.00    -0.221 N 
ATOM     21  C   UNL     1      -1.966   5.428  -3.672  0.00  0.00    +0.409 C 
ATOM     22  O   UNL     1      -3.062   5.385  -4.310  0.00  0.00    -0.226 OA
ATOM     23  O   UNL     1      -1.769   5.571  -2.306  0.00  0.00    -0.434 OA
ATOM     24  C   UNL     1      -0.456   6.425  -2.376  0.00  0.00    +0.221 C 
ATOM     25  C   UNL     1       0.301   5.242  -3.294  0.00  0.00    +0.148 C 
BRANCH  24  26
ATOM     26  C   UNL     1       0.119   5.778  -0.941  0.00  0.00    +0.199 C 
BRANCH  26  27
ATOM     27  O   UNL     1       0.905   6.755  -0.394  0.00  0.00    -0.266 OA
BRANCH  27  28
ATOM     28  P   UNL     1       2.559   6.508  -0.604  0.00  0.00    +0.533 P 
ATOM     29  O   UNL     1       2.827   4.863  -0.782  0.00  0.00    -0.115 OA
ATOM     30  O   UNL     1       3.315   7.113   0.794  0.00  0.00    -0.115 OA
ATOM     31  O   UNL     1       3.001   7.269  -1.832  0.00  0.00    -0.222 OA
ENDBRANCH  27  28
ENDBRANCH  26  27
ENDBRANCH  24  26
ENDBRANCH   5  20
TORSDOF 6
ENDMDL
MODEL 6
REMARK VINA RESULT:      -9.0      5.600     10.989
REMARK  Name = 
REMARK  6 active torsions:
REMARK  status: ('A' for Active; 'I' for Inactive)
REMARK    1  A    between atoms: C_5  and  C_6
REMARK    2  A    between atoms: C_9  and  C_10
REMARK    3  A    between atoms: C_13  and  N_14
REMARK    4  A    between atoms: C_16  and  C_17
REMARK    5  A    between atoms: C_17  and  O_18
REMARK    6  A    between atoms: O_18  and  P_19
REMARK                            x       y       z     vdW  Elec       q    Type
REMARK                         _______ _______ _______ _____ _____    ______ ____
ROOT
ATOM      1  C   UNL     1       4.555   5.983  -9.956  0.00  0.00    +0.029 A 
ATOM      2  C   UNL     1       3.266   5.542  -9.680  0.00  0.00    +0.141 A 
ATOM      3  F   UNL     1       2.307   5.822 -10.601  0.00  0.00    -0.204 F 
ATOM      4  C   UNL     1       2.903   5.299  -8.382  0.00  0.00    +0.045 A 
ATOM      5  C   UNL     1       3.795   5.343  -7.317  0.00  0.00    +0.059 A 
ATOM      6  C   UNL     1       5.134   5.364  -7.694  0.00  0.00    +0.015 A 
ATOM      7  C   UNL     1       5.507   5.629  -9.008  0.00  0.00    +0.004 A 
ENDROOT
BRANCH   1  11
ATOM      8  C   UNL     1       6.360   6.518 -13.761  0.00  0.00    +0.120 A 
ATOM      9  N   UNL     1       6.599   7.319 -12.716  0.00  0.00    -0.241 NA
ATOM     10  C   UNL     1       5.849   7.286 -11.587  0.00  0.00    +0.099 A 
ATOM     11  C   UNL     1       4.930   6.272 -11.346  0.00  0.00    +0.021 A 
ATOM     12  C   UNL     1       4.830   5.310 -12.345  0.00  0.00    +0.003 A 
ATOM     13  C   UNL     1       5.372   5.559 -13.589  0.00  0.00    +0.022 A 
BRANCH   8  17
ATOM     14  C   UNL     1       6.161   6.443 -18.563  0.00  0.00    +0.180 C 
ATOM     15  N   UNL     1       6.520   6.974 -17.279  0.00  0.00    -0.149 N 
ATOM     16  N   UNL     1       6.973   6.345 -16.198  0.00  0.00    -0.128 NA
ATOM     17  C   UNL     1       6.662   7.063 -15.091  0.00  0.00    +0.223 A 
ATOM     18  N   UNL     1       6.191   8.232 -15.588  0.00  0.00    -0.106 NA
ATOM     19  N   UNL     1       6.402   8.247 -16.903  0.00  0.00    -0.045 NA
ENDBRANCH   8  17
ENDBRANCH   1  11
BRANCH   5  20
ATOM     20  N   UNL     1       3.410   5.836  -6.027  0.00  0.00    -0.221 N 
ATOM     21  C   UNL     1       3.551   5.145  -4.778  0.00  0.00    +0.409 C 
ATOM     22  O   UNL     1       4.582   4.451  -4.520  0.00  0.00    -0.226 OA
ATOM     23  O   UNL     1       2.430   5.347  -3.986  0.00  0.00    -0.434 OA
ATOM     24  C   UNL     1       1.371   5.410  -5.141  0.00  0.00    +0.221 C 
ATOM     25  C   UNL     1       2.210   6.660  -5.882  0.00  0.00    +0.148 C 
BRANCH  24  26
ATOM     26  C   UNL     1       0.402   6.475  -4.283  0.00  0.00    +0.199 C 
BRANCH  26  27
ATOM     27  O   UNL     1      -0.799   5.837  -4.144  0.00  0.00    -0.266 OA
BRANCH  27  28
ATOM     28  P   UNL     1      -1.274   5.601  -2.545  0.00  0.00    +0.533 P 
ATOM     29  O   UNL     1      -0.075   4.727  -1.764  0.00  0.00    -0.115 OA
ATOM     30  O   UNL     1      -2.736   4.735  -2.601  0.00  0.00    -0.115 OA
ATOM     31  O   UNL     1      -1.470   6.954  -1.902  0.00  0.00    -0.222 OA
ENDBRANCH  27  28
ENDBRANCH  26  27
ENDBRANCH  24  26
ENDBRANCH   5  20
TORSDOF 6
ENDMDL
MODEL 7
REMARK VINA RESULT:      -9.0      3.435      4.776
REMARK  Name = 
REMARK  6 active torsions:
REMARK  status: ('A' for Active; 'I' for Inactive)
REMARK    1  A    between atoms: C_5  and  C_6
REMARK    2  A    between atoms: C_9  and  C_10
REMARK    3  A    between atoms: C_13  and  N_14
REMARK    4  A    between atoms: C_16  and  C_17
REMARK    5  A    between atoms: C_17  and  O_18
REMARK    6  A    between atoms: O_18  and  P_19
REMARK                            x       y       z     vdW  Elec       q    Type
REMARK                         _______ _______ _______ _____ _____    ______ ____
ROOT
ATOM      1  C   UNL     1       3.607   5.897  -8.142  0.00  0.00    +0.029 A 
ATOM      2  C   UNL     1       3.489   6.891  -9.107  0.00  0.00    +0.141 A 
ATOM      3  F   UNL     1       2.259   7.438  -9.281  0.00  0.00    -0.204 F 
ATOM      4  C   UNL     1       4.405   6.952 -10.123  0.00  0.00    +0.045 A 
ATOM      5  C   UNL     1       5.538   6.149 -10.181  0.00  0.00    +0.059 A 
ATOM      6  C   UNL     1       5.830   5.486  -8.995  0.00  0.00    +0.015 A 
ATOM      7  C   UNL     1       4.895   5.405  -7.968  0.00  0.00    +0.004 A 
ENDROOT
BRANCH   1  11
ATOM      8  C   UNL     1       1.284   5.253  -4.648  0.00  0.00    +0.120 A 
ATOM      9  N   UNL     1       1.514   4.303  -5.562  0.00  0.00    -0.241 NA
ATOM     10  C   UNL     1       2.050   4.576  -6.777  0.00  0.00    +0.099 A 
ATOM     11  C   UNL     1       2.605   5.816  -7.072  0.00  0.00    +0.021 A 
ATOM     12  C   UNL     1       2.559   6.749  -6.043  0.00  0.00    +0.003 A 
ATOM     13  C   UNL     1       1.734   6.529  -4.958  0.00  0.00    +0.022 A 
BRANCH   8  17
ATOM     14  C   UNL     1      -1.220   6.052  -0.623  0.00  0.00    +0.180 C 
ATOM     15  N   UNL     1      -0.970   5.475  -1.913  0.00  0.00    -0.149 N 
ATOM     16  N   UNL     1       0.155   4.973  -2.413  0.00  0.00    -0.128 NA
ATOM     17  C   UNL     1       0.126   5.053  -3.766  0.00  0.00    +0.223 A 
ATOM     18  N   UNL     1      -1.145   5.436  -4.039  0.00  0.00    -0.106 NA
ATOM     19  N   UNL     1      -1.851   5.388  -2.910  0.00  0.00    -0.045 NA
ENDBRANCH   8  17
ENDBRANCH   1  11
BRANCH   5  20
ATOM     20  N   UNL     1       6.043   5.642 -11.425  0.00  0.00    -0.221 N 
ATOM     21  C   UNL     1       7.425   5.489 -11.779  0.00  0.00    +0.409 C 
ATOM     22  O   UNL     1       8.281   5.079 -10.937  0.00  0.00    -0.226 OA
ATOM     23  O   UNL     1       7.628   5.863 -13.100  0.00  0.00    -0.434 OA
ATOM     24  C   UNL     1       6.557   7.008 -13.155  0.00  0.00    +0.221 C 
ATOM     25  C   UNL     1       5.351   5.944 -12.678  0.00  0.00    +0.148 C 
BRANCH  24  26
ATOM     26  C   UNL     1       6.252   6.733 -14.780  0.00  0.00    +0.199 C 
BRANCH  26  27
ATOM     27  O   UNL     1       6.152   7.976 -15.343  0.00  0.00    -0.266 OA
BRANCH  27  28
ATOM     28  P   UNL     1       5.036   8.076 -16.601  0.00  0.00    +0.533 P 
ATOM     29  O   UNL     1       5.755   7.476 -17.992  0.00  0.00    -0.115 OA
ATOM     30  O   UNL     1       4.644   9.722 -16.765  0.00  0.00    -0.115 OA
ATOM     31  O   UNL     1       3.819   7.264 -16.223  0.00  0.00    -0.222 OA
ENDBRANCH  27  28
ENDBRANCH  26  27
ENDBRANCH  24  26
ENDBRANCH   5  20
TORSDOF 6
ENDMDL
MODEL 8
REMARK VINA RESULT:      -9.0      3.345      3.998
REMARK  Name = 
REMARK  6 active torsions:
REMARK  status: ('A' for Active; 'I' for Inactive)
REMARK    1  A    between atoms: C_5  and  C_6
REMARK    2  A    between atoms: C_9  and  C_10
REMARK    3  A    between atoms: C_13  and  N_14
REMARK    4  A    between atoms: C_16  and  C_17
REMARK    5  A    between atoms: C_17  and  O_18
REMARK    6  A    between atoms: O_18  and  P_19
REMARK                            x       y       z     vdW  Elec       q    Type
REMARK                         _______ _______ _______ _____ _____    ______ ____
ROOT
ATOM      1  C   UNL     1       0.668   6.298  -6.329  0.00  0.00    +0.029 A 
ATOM      2  C   UNL     1      -0.169   5.630  -7.216  0.00  0.00    +0.141 A 
ATOM      3  F   UNL     1      -1.100   4.800  -6.679  0.00  0.00    -0.204 F 
ATOM      4  C   UNL     1       0.239   5.439  -8.509  0.00  0.00    +0.045 A 
ATOM      5  C   UNL     1       1.400   5.994  -9.035  0.00  0.00    +0.059 A 
ATOM      6  C   UNL     1       1.967   6.989  -8.245  0.00  0.00    +0.015 A 
ATOM      7  C   UNL     1       1.569   7.172  -6.925  0.00  0.00    +0.004 A 
ENDROOT
BRANCH   1  11
ATOM      8  C   UNL     1      -1.237   6.408  -2.536  0.00  0.00    +0.120 A 
ATOM      9  N   UNL     1      -1.579   7.208  -3.553  0.00  0.00    -0.241 NA
ATOM     10  C   UNL     1      -0.820   7.331  -4.670  0.00  0.00    +0.099 A 
ATOM     11  C   UNL     1       0.240   6.473  -4.935  0.00  0.00    +0.021 A 
ATOM     12  C   UNL     1       0.468   5.494  -3.974  0.00  0.00    +0.003 A 
ATOM     13  C   UNL     1      -0.117   5.610  -2.729  0.00  0.00    +0.022 A 
BRANCH   8  17
ATOM     14  C   UNL     1      -0.381   7.197   2.128  0.00  0.00    +0.180 C 
ATOM     15  N   UNL     1      -1.166   7.196   0.925  0.00  0.00    -0.149 N 
ATOM     16  N   UNL     1      -1.264   6.267  -0.021  0.00  0.00    -0.128 NA
ATOM     17  C   UNL     1      -1.629   6.847  -1.191  0.00  0.00    +0.223 A 
ATOM     18  N   UNL     1      -1.936   8.119  -0.837  0.00  0.00    -0.106 NA
ATOM     19  N   UNL     1      -1.927   8.200   0.493  0.00  0.00    -0.045 NA
ENDBRANCH   8  17
ENDBRANCH   1  11
BRANCH   5  20
ATOM     20  N   UNL     1       2.211   5.290  -9.986  0.00  0.00    -0.221 N 
ATOM     21  C   UNL     1       3.520   4.751  -9.750  0.00  0.00    +0.409 C 
ATOM     22  O   UNL     1       3.813   4.185  -8.653  0.00  0.00    -0.226 OA
ATOM     23  O   UNL     1       4.337   4.971 -10.850  0.00  0.00    -0.434 OA
ATOM     24  C   UNL     1       3.733   6.352 -11.282  0.00  0.00    +0.221 C 
ATOM     25  C   UNL     1       2.199   5.681 -11.395  0.00  0.00    +0.148 C 
BRANCH  24  26
ATOM     26  C   UNL     1       4.056   6.062 -12.900  0.00  0.00    +0.199 C 
BRANCH  26  27
ATOM     27  O   UNL     1       5.099   5.178 -12.907  0.00  0.00    -0.266 OA
BRANCH  27  28
ATOM     28  P   UNL     1       6.550   5.826 -13.469  0.00  0.00    +0.533 P 
ATOM     29  O   UNL     1       6.402   6.094 -15.118  0.00  0.00    -0.115 OA
ATOM     30  O   UNL     1       7.753   4.672 -13.134  0.00  0.00    -0.115 OA
ATOM     31  O   UNL     1       6.813   7.116 -12.729  0.00  0.00    -0.222 OA
ENDBRANCH  27  28
ENDBRANCH  26  27
ENDBRANCH  24  26
ENDBRANCH   5  20
TORSDOF 6
ENDMDL
MODEL 9
REMARK VINA RESULT:      -8.7      3.414      4.157
REMARK  Name = 
REMARK  6 active torsions:
REMARK  status: ('A' for Active; 'I' for Inactive)
REMARK    1  A    between atoms: C_5  and  C_6
REMARK    2  A    between atoms: C_9  and  C_10
REMARK    3  A    between atoms: C_13  and  N_14
REMARK    4  A    between atoms: C_16  and  C_17
REMARK    5  A    between atoms: C_17  and  O_18
REMARK    6  A    between atoms: O_18  and  P_19
REMARK                            x       y       z     vdW  Elec       q    Type
REMARK                         _______ _______ _______ _____ _____    ______ ____
ROOT
ATOM      1  C   UNL     1      -0.009   6.067  -5.279  0.00  0.00    +0.029 A 
ATOM      2  C   UNL     1       1.244   5.542  -5.571  0.00  0.00    +0.141 A 
ATOM      3  F   UNL     1       2.232   5.761  -4.665  0.00  0.00    -0.204 F 
ATOM      4  C   UNL     1       1.572   5.271  -6.873  0.00  0.00    +0.045 A 
ATOM      5  C   UNL     1       0.669   5.370  -7.926  0.00  0.00    +0.059 A 
ATOM      6  C   UNL     1      -0.660   5.480  -7.530  0.00  0.00    +0.015 A 
ATOM      7  C   UNL     1      -0.996   5.774  -6.213  0.00  0.00    +0.004 A 
ENDROOT
BRANCH   1  11
ATOM      8  C   UNL     1      -1.697   6.660  -1.429  0.00  0.00    +0.120 A 
ATOM      9  N   UNL     1      -1.996   7.424  -2.487  0.00  0.00    -0.241 NA
ATOM     10  C   UNL     1      -1.284   7.380  -3.641  0.00  0.00    +0.099 A 
ATOM     11  C   UNL     1      -0.344   6.386  -3.885  0.00  0.00    +0.021 A 
ATOM     12  C   UNL     1      -0.181   5.456  -2.864  0.00  0.00    +0.003 A 
ATOM     13  C   UNL     1      -0.687   5.726  -1.609  0.00  0.00    +0.022 A 
BRANCH   8  17
ATOM     14  C   UNL     1      -0.929   7.068   3.299  0.00  0.00    +0.180 C 
ATOM     15  N   UNL     1      -1.556   7.379   2.045  0.00  0.00    -0.149 N 
ATOM     16  N   UNL     1      -1.960   6.565   1.075  0.00  0.00    -0.128 NA
ATOM     17  C   UNL     1      -1.969   7.234  -0.105  0.00  0.00    +0.223 A 
ATOM     18  N   UNL     1      -1.749   8.522   0.255  0.00  0.00    -0.106 NA
ATOM     19  N   UNL     1      -1.803   8.604   1.584  0.00  0.00    -0.045 NA
ENDBRANCH   8  17
ENDBRANCH   1  11
BRANCH   5  20
ATOM     20  N   UNL     1       1.067   5.832  -9.224  0.00  0.00    -0.221 N 
ATOM     21  C   UNL     1       0.873   5.142 -10.466  0.00  0.00    +0.409 C 
ATOM     22  O   UNL     1      -0.199   4.507 -10.708  0.00  0.00    -0.226 OA
ATOM     23  O   UNL     1       1.994   5.275 -11.272  0.00  0.00    -0.434 OA
ATOM     24  C   UNL     1       3.068   5.284 -10.129  0.00  0.00    +0.221 C 
ATOM     25  C   UNL     1       2.311   6.585  -9.387  0.00  0.00    +0.148 C 
BRANCH  24  26
ATOM     26  C   UNL     1       4.086   6.287 -11.004  0.00  0.00    +0.199 C 
BRANCH  26  27
ATOM     27  O   UNL     1       5.281   5.624 -11.064  0.00  0.00    -0.266 OA
BRANCH  27  28
ATOM     28  P   UNL     1       5.900   5.455 -12.621  0.00  0.00    +0.533 P 
ATOM     29  O   UNL     1       4.827   4.529 -13.517  0.00  0.00    -0.115 OA
ATOM     30  O   UNL     1       7.404   4.678 -12.459  0.00  0.00    -0.115 OA
ATOM     31  O   UNL     1       6.063   6.833 -13.220  0.00  0.00    -0.222 OA
ENDBRANCH  27  28
ENDBRANCH  26  27
ENDBRANCH  24  26
ENDBRANCH   5  20
TORSDOF 6
ENDMDL
