MODEL 1
REMARK VINA RESULT:      -4.5      0.000      0.000
REMARK  Name = 
REMARK  4 active torsions:
REMARK  status: ('A' for Active; 'I' for Inactive)
REMARK    1  A    between atoms: C_2  and  C_3
REMARK    2  A    between atoms: C_3  and  C_5
REMARK    3  A    between atoms: C_5  and  C_6
REMARK    4  A    between atoms: C_6  and  C_7
REMARK                            x       y       z     vdW  Elec       q    Type
REMARK                         _______ _______ _______ _____ _____    ______ ____
ROOT
ATOM      1  C   UNL     1       7.031   7.164 -10.762  0.00  0.00    +0.035 C 
ENDROOT
BRANCH   1   2
ATOM      2  C   UNL     1       5.913   5.940 -10.675  0.00  0.00    +0.114 C 
ATOM      3  N   UNL     1       4.752   6.953 -10.331  0.00  0.00    -0.128 NA
BRANCH   2   5
ATOM      4  C   UNL     1       5.326   5.207  -8.381  0.00  0.00    -0.003 C 
ATOM      5  C   UNL     1       6.266   5.602  -9.125  0.00  0.00    -0.008 C 
ENDBRANCH   2   5
ENDBRANCH   1   2
BRANCH   1   6
ATOM      6  C   UNL     1       7.341   6.779 -12.183  0.00  0.00    +0.116 C 
BRANCH   6   7
ATOM      7  C   UNL     1       8.150   5.584 -12.382  0.00  0.00    +0.365 C 
ATOM      8  O   UNL     1       7.709   4.681 -13.311  0.00  0.00    -0.246 OA
ATOM      9  O   UNL     1       9.367   5.839 -12.136  0.00  0.00    -0.246 OA
ENDBRANCH   6   7
ENDBRANCH   1   6
TORSDOF 4
ENDMDL
MODEL 2
REMARK VINA RESULT:      -4.2      3.061      3.591
REMARK  Name = 
REMARK  4 active torsions:
REMARK  status: ('A' for Active; 'I' for Inactive)
REMARK    1  A    between atoms: C_2  and  C_3
REMARK    2  A    between atoms: C_3  and  C_5
REMARK    3  A    between atoms: C_5  and  C_6
REMARK    4  A    between atoms: C_6  and  C_7
REMARK                            x       y       z     vdW  Elec       q    Type
REMARK                         _______ _______ _______ _____ _____    ______ ____
ROOT
ATOM      1  C   UNL     1       6.868   6.834 -13.095  0.00  0.00    +0.035 C 
ENDROOT
BRANCH   1   2
ATOM      2  C   UNL     1       8.291   6.077 -12.696  0.00  0.00    +0.114 C 
ATOM      3  N   UNL     1       7.638   4.649 -12.854  0.00  0.00    -0.128 NA
BRANCH   2   5
ATOM      4  C   UNL     1       7.269   7.123 -10.695  0.00  0.00    -0.003 C 
ATOM      5  C   UNL     1       8.009   6.185 -11.100  0.00  0.00    -0.008 C 
ENDBRANCH   2   5
ENDBRANCH   1   2
BRANCH   1   6
ATOM      6  C   UNL     1       6.884   6.155 -14.438  0.00  0.00    +0.116 C 
BRANCH   6   7
ATOM      7  C   UNL     1       6.931   7.015 -15.613  0.00  0.00    +0.365 C 
ATOM      8  O   UNL     1       7.065   6.400 -16.828  0.00  0.00    -0.246 OA
ATOM      9  O   UNL     1       6.268   8.073 -15.401  0.00  0.00    -0.246 OA
ENDBRANCH   6   7
ENDBRANCH   1   6
TORSDOF 4
ENDMDL
MODEL 3
REMARK VINA RESULT:      -4.2     10.771     11.971
REMARK  Name = 
REMARK  4 active torsions:
REMARK  status: ('A' for Active; 'I' for Inactive)
REMARK    1  A    between atoms: C_2  and  C_3
REMARK    2  A    between atoms: C_3  and  C_5
REMARK    3  A    between atoms: C_5  and  C_6
REMARK    4  A    between atoms: C_6  and  C_7
REMARK                            x       y       z     vdW  Elec       q    Type
REMARK                         _______ _______ _______ _____ _____    ______ ____
ROOT
ATOM      1  C   UNL     1      -1.954   7.531  -4.114  0.00  0.00    +0.035 C 
ENDROOT
BRANCH   1   2
ATOM      2  C   UNL     1      -1.031   6.244  -4.614  0.00  0.00    +0.114 C 
ATOM      3  N   UNL     1      -0.062   7.187  -5.427  0.00  0.00    -0.128 NA
BRANCH   2   5
ATOM      4  C   UNL     1      -1.507   5.283  -6.848  0.00  0.00    -0.003 C 
ATOM      5  C   UNL     1      -2.001   5.918  -5.876  0.00  0.00    -0.008 C 
ENDBRANCH   2   5
ENDBRANCH   1   2
BRANCH   1   6
ATOM      6  C   UNL     1      -3.011   6.580  -3.621  0.00  0.00    +0.116 C 
BRANCH   6   7
ATOM      7  C   UNL     1      -2.968   6.219  -2.210  0.00  0.00    +0.365 C 
ATOM      8  O   UNL     1      -2.653   4.921  -1.910  0.00  0.00    -0.246 OA
ATOM      9  O   UNL     1      -2.641   7.226  -1.515  0.00  0.00    -0.246 OA
ENDBRANCH   6   7
ENDBRANCH   1   6
TORSDOF 4
ENDMDL
MODEL 4
REMARK VINA RESULT:      -4.1      6.590      7.742
REMARK  Name = 
REMARK  4 active torsions:
REMARK  status: ('A' for Active; 'I' for Inactive)
REMARK    1  A    between atoms: C_2  and  C_3
REMARK    2  A    between atoms: C_3  and  C_5
REMARK    3  A    between atoms: C_5  and  C_6
REMARK    4  A    between atoms: C_6  and  C_7
REMARK                            x       y       z     vdW  Elec       q    Type
REMARK                         _______ _______ _______ _____ _____    ______ ____
ROOT
ATOM      1  C   UNL     1       0.658   5.791  -8.011  0.00  0.00    +0.035 C 
ENDROOT
BRANCH   1   2
ATOM      2  C   UNL     1       0.106   5.827  -6.445  0.00  0.00    +0.114 C 
ATOM      3  N   UNL     1       0.714   4.402  -6.142  0.00  0.00    -0.128 NA
BRANCH   2   5
ATOM      4  C   UNL     1      -2.355   5.677  -6.185  0.00  0.00    -0.003 C 
ATOM      5  C   UNL     1      -1.365   5.267  -6.852  0.00  0.00    -0.008 C 
ENDBRANCH   2   5
ENDBRANCH   1   2
BRANCH   1   6
ATOM      6  C   UNL     1       2.060   6.030  -7.521  0.00  0.00    +0.116 C 
BRANCH   6   7
ATOM      7  C   UNL     1       2.370   7.369  -7.034  0.00  0.00    +0.365 C 
ATOM      8  O   UNL     1       3.317   7.469  -6.052  0.00  0.00    -0.246 OA
ATOM      9  O   UNL     1       2.184   8.218  -7.956  0.00  0.00    -0.246 OA
ENDBRANCH   6   7
ENDBRANCH   1   6
TORSDOF 4
ENDMDL
MODEL 5
REMARK VINA RESULT:      -3.9      3.219      3.805
REMARK  Name = 
REMARK  4 active torsions:
REMARK  status: ('A' for Active; 'I' for Inactive)
REMARK    1  A    between atoms: C_2  and  C_3
REMARK    2  A    between atoms: C_3  and  C_5
REMARK    3  A    between atoms: C_5  and  C_6
REMARK    4  A    between atoms: C_6  and  C_7
REMARK                            x       y       z     vdW  Elec       q    Type
REMARK                         _______ _______ _______ _____ _____    ______ ____
ROOT
ATOM      1  C   UNL     1       5.695   5.492 -11.787  0.00  0.00    +0.035 C 
ENDROOT
BRANCH   1   2
ATOM      2  C   UNL     1       7.101   6.145 -12.382  0.00  0.00    +0.114 C 
ATOM      3  N   UNL     1       7.544   4.762 -12.999  0.00  0.00    -0.128 NA
BRANCH   2   5
ATOM      4  C   UNL     1       7.261   6.106  -9.910  0.00  0.00    -0.003 C 
ATOM      5  C   UNL     1       7.901   5.937 -10.984  0.00  0.00    -0.008 C 
ENDBRANCH   2   5
ENDBRANCH   1   2
BRANCH   1   6
ATOM      6  C   UNL     1       5.193   5.295 -13.191  0.00  0.00    +0.116 C 
BRANCH   6   7
ATOM      7  C   UNL     1       3.785   5.579 -13.434  0.00  0.00    +0.365 C 
ATOM      8  O   UNL     1       3.146   4.805 -14.364  0.00  0.00    -0.246 OA
ATOM      9  O   UNL     1       3.250   6.046 -12.385  0.00  0.00    -0.246 OA
ENDBRANCH   6   7
ENDBRANCH   1   6
TORSDOF 4
ENDMDL
MODEL 6
REMARK VINA RESULT:      -3.9      2.994      4.038
REMARK  Name = 
REMARK  4 active torsions:
REMARK  status: ('A' for Active; 'I' for Inactive)
REMARK    1  A    between atoms: C_2  and  C_3
REMARK    2  A    between atoms: C_3  and  C_5
REMARK    3  A    between atoms: C_5  and  C_6
REMARK    4  A    between atoms: C_6  and  C_7
REMARK                            x       y       z     vdW  Elec       q    Type
REMARK                         _______ _______ _______ _____ _____    ______ ____
ROOT
ATOM      1  C   UNL     1       7.411   6.637 -11.184  0.00  0.00    +0.035 C 
ENDROOT
BRANCH   1   2
ATOM      2  C   UNL     1       7.924   5.260 -11.957  0.00  0.00    +0.114 C 
ATOM      3  N   UNL     1       9.385   5.833 -12.123  0.00  0.00    -0.128 NA
BRANCH   2   5
ATOM      4  C   UNL     1       6.216   5.511 -13.735  0.00  0.00    -0.003 C 
ATOM      5  C   UNL     1       7.407   5.771 -13.410  0.00  0.00    -0.008 C 
ENDBRANCH   2   5
ENDBRANCH   1   2
BRANCH   1   6
ATOM      6  C   UNL     1       7.167   5.842  -9.930  0.00  0.00    +0.116 C 
BRANCH   6   7
ATOM      7  C   UNL     1       5.782   5.693  -9.502  0.00  0.00    +0.365 C 
ATOM      8  O   UNL     1       4.824   5.709 -10.479  0.00  0.00    -0.246 OA
ATOM      9  O   UNL     1       5.730   5.001  -8.442  0.00  0.00    -0.246 OA
ENDBRANCH   6   7
ENDBRANCH   1   6
TORSDOF 4
ENDMDL
MODEL 7
REMARK VINA RESULT:      -3.7      3.146      4.286
REMARK  Name = 
REMARK  4 active torsions:
REMARK  status: ('A' for Active; 'I' for Inactive)
REMARK    1  A    between atoms: C_2  and  C_3
REMARK    2  A    between atoms: C_3  and  C_5
REMARK    3  A    between atoms: C_5  and  C_6
REMARK    4  A    between atoms: C_6  and  C_7
REMARK                            x       y       z     vdW  Elec       q    Type
REMARK                         _______ _______ _______ _____ _____    ______ ____
ROOT
ATOM      1  C   UNL     1       5.805   5.737 -11.414  0.00  0.00    +0.035 C 
ENDROOT
BRANCH   1   2
ATOM      2  C   UNL     1       7.064   6.682 -10.886  0.00  0.00    +0.114 C 
ATOM      3  N   UNL     1       6.366   7.997 -11.409  0.00  0.00    -0.128 NA
BRANCH   2   5
ATOM      4  C   UNL     1       9.007   5.781 -12.134  0.00  0.00    -0.003 C 
ATOM      5  C   UNL     1       7.935   6.439 -12.236  0.00  0.00    -0.008 C 
ENDBRANCH   2   5
ENDBRANCH   1   2
BRANCH   1   6
ATOM      6  C   UNL     1       5.222   5.740 -10.027  0.00  0.00    +0.116 C 
BRANCH   6   7
ATOM      7  C   UNL     1       3.934   5.082  -9.850  0.00  0.00    +0.365 C 
ATOM      8  O   UNL     1       3.886   4.036  -8.969  0.00  0.00    -0.246 OA
ATOM      9  O   UNL     1       2.995   5.909 -10.049  0.00  0.00    -0.246 OA
ENDBRANCH   6   7
ENDBRANCH   1   6
TORSDOF 4
ENDMDL
MODEL 8
REMARK VINA RESULT:      -3.7      7.706      8.896
REMARK  Name = 
REMARK  4 active torsions:
REMARK  status: ('A' for Active; 'I' for Inactive)
REMARK    1  A    between atoms: C_2  and  C_3
REMARK    2  A    between atoms: C_3  and  C_5
REMARK    3  A    between atoms: C_5  and  C_6
REMARK    4  A    between atoms: C_6  and  C_7
REMARK                            x       y       z     vdW  Elec       q    Type
REMARK                         _______ _______ _______ _____ _____    ______ ____
ROOT
ATOM      1  C   UNL     1      -0.143   5.266  -6.002  0.00  0.00    +0.035 C 
ENDROOT
BRANCH   1   2
ATOM      2  C   UNL     1      -0.614   6.526  -5.029  0.00  0.00    +0.114 C 
ATOM      3  N   UNL     1      -0.762   5.575  -3.779  0.00  0.00    -0.128 NA
BRANCH   2   5
ATOM      4  C   UNL     1      -2.456   5.627  -6.422  0.00  0.00    -0.003 C 
ATOM      5  C   UNL     1      -2.172   6.413  -5.476  0.00  0.00    -0.008 C 
ENDBRANCH   2   5
ENDBRANCH   1   2
BRANCH   1   6
ATOM      6  C   UNL     1       0.997   4.970  -5.066  0.00  0.00    +0.116 C 
BRANCH   6   7
ATOM      7  C   UNL     1       2.226   4.462  -5.662  0.00  0.00    +0.365 C 
ATOM      8  O   UNL     1       2.100   3.466  -6.592  0.00  0.00    -0.246 OA
ATOM      9  O   UNL     1       3.104   5.375  -5.688  0.00  0.00    -0.246 OA
ENDBRANCH   6   7
ENDBRANCH   1   6
TORSDOF 4
ENDMDL
MODEL 9
REMARK VINA RESULT:      -3.6      9.464     10.940
REMARK  Name = 
REMARK  4 active torsions:
REMARK  status: ('A' for Active; 'I' for Inactive)
REMARK    1  A    between atoms: C_2  and  C_3
REMARK    2  A    between atoms: C_3  and  C_5
REMARK    3  A    between atoms: C_5  and  C_6
REMARK    4  A    between atoms: C_6  and  C_7
REMARK                            x       y       z     vdW  Elec       q    Type
REMARK                         _______ _______ _______ _____ _____    ______ ____
ROOT
ATOM      1  C   UNL     1      -1.188   6.067  -4.702  0.00  0.00    +0.035 C 
ENDROOT
BRANCH   1   2
ATOM      2  C   UNL     1       0.410   6.510  -4.611  0.00  0.00    +0.114 C 
ATOM      3  N   UNL     1       0.474   6.795  -6.162  0.00  0.00    -0.128 NA
BRANCH   2   5
ATOM      4  C   UNL     1       1.258   4.553  -5.873  0.00  0.00    -0.003 C 
ATOM      5  C   UNL     1       0.938   4.978  -4.729  0.00  0.00    -0.008 C 
ENDBRANCH   2   5
ENDBRANCH   1   2
BRANCH   1   6
ATOM      6  C   UNL     1      -1.384   6.480  -3.269  0.00  0.00    +0.116 C 
BRANCH   6   7
ATOM      7  C   UNL     1      -1.855   5.456  -2.345  0.00  0.00    +0.365 C 
ATOM      8  O   UNL     1      -2.916   4.693  -2.751  0.00  0.00    -0.246 OA
ATOM      9  O   UNL     1      -0.895   5.045  -1.628  0.00  0.00    -0.246 OA
ENDBRANCH   6   7
ENDBRANCH   1   6
TORSDOF 4
ENDMDL
