MODEL 1
REMARK VINA RESULT:      -8.6      0.000      0.000
REMARK  Name = 
REMARK  1 active torsions:
REMARK  status: ('A' for Active; 'I' for Inactive)
REMARK    1  A    between atoms: O_2  and  C_3
REMARK                            x       y       z     vdW  Elec       q    Type
REMARK                         _______ _______ _______ _____ _____    ______ ____
ROOT
ATOM      1  C   UNL     1      -0.927   6.750  -5.182  0.00  0.00    +0.172 A 
ATOM      2  C   UNL     1       0.427   6.741  -5.516  0.00  0.00    +0.168 A 
ATOM      3  O   UNL     1       1.599   6.834  -4.846  0.00  0.00    -0.474 OA
ATOM      4  C   UNL     1       2.732   7.009  -5.866  0.00  0.00    +0.200 C 
ATOM      5  C   UNL     1       1.966   6.358  -7.133  0.00  0.00    +0.063 C 
ATOM      6  C   UNL     1       2.815   5.082  -7.566  0.00  0.00    +0.022 C 
ATOM      7  C   UNL     1       1.851   4.484  -8.835  0.00  0.00    +0.062 C 
ATOM      8  N   UNL     1       2.492   5.461  -9.879  0.00  0.00    -0.272 NA
ATOM      9  C   UNL     1       2.942   6.638  -9.321  0.00  0.00    +0.073 C 
ATOM     10  C   UNL     1       1.554   5.622 -10.945  0.00  0.00    +0.090 C 
ATOM     11  C   UNL     1       0.503   5.375  -8.760  0.00  0.00    +0.042 C 
ATOM     12  C   UNL     1      -0.089   5.266  -7.418  0.00  0.00    -0.022 A 
ATOM     13  C   UNL     1      -1.438   5.377  -7.124  0.00  0.00    -0.001 A 
ATOM     14  C   UNL     1       2.125   4.058  -6.504  0.00  0.00    +0.005 C 
ATOM     15  C   UNL     1       2.349   4.625  -5.138  0.00  0.00    +0.037 C 
ATOM     16  C   UNL     1       2.172   7.319  -8.251  0.00  0.00    +0.025 C 
ATOM     17  C   UNL     1       3.630   5.609  -5.391  0.00  0.00    +0.192 C 
ATOM     18  O   UNL     1       3.669   6.052  -3.950  0.00  0.00    -0.219 OA
ATOM     19  C   UNL     1       0.702   6.070  -6.644  0.00  0.00    +0.014 A 
ATOM     20  C   UNL     1      -1.846   6.072  -5.982  0.00  0.00    +0.040 A 
ENDROOT
BRANCH   1  22
ATOM     21  C   UNL     1      -2.000   7.624  -3.156  0.00  0.00    +0.253 C 
ATOM     22  O   UNL     1      -1.293   7.813  -4.350  0.00  0.00    -0.468 OA
ENDBRANCH   1  22
TORSDOF 1
ENDMDL
MODEL 2
REMARK VINA RESULT:      -8.3      3.144      5.880
REMARK  Name = 
REMARK  1 active torsions:
REMARK  status: ('A' for Active; 'I' for Inactive)
REMARK    1  A    between atoms: O_2  and  C_3
REMARK                            x       y       z     vdW  Elec       q    Type
REMARK                         _______ _______ _______ _____ _____    ______ ____
ROOT
ATOM      1  C   UNL     1       5.095   6.446 -10.297  0.00  0.00    +0.172 A 
ATOM      2  C   UNL     1       3.833   6.499  -9.707  0.00  0.00    +0.168 A 
ATOM      3  O   UNL     1       2.553   6.550 -10.142  0.00  0.00    -0.474 OA
ATOM      4  C   UNL     1       1.642   6.850  -8.944  0.00  0.00    +0.200 C 
ATOM      5  C   UNL     1       2.640   6.313  -7.791  0.00  0.00    +0.063 C 
ATOM      6  C   UNL     1       1.890   5.105  -7.073  0.00  0.00    +0.022 C 
ATOM      7  C   UNL     1       3.083   4.616  -5.962  0.00  0.00    +0.062 C 
ATOM      8  N   UNL     1       2.661   5.705  -4.918  0.00  0.00    -0.272 NA
ATOM      9  C   UNL     1       2.112   6.830  -5.495  0.00  0.00    +0.073 C 
ATOM     10  C   UNL     1       3.790   5.951  -4.078  0.00  0.00    +0.090 C 
ATOM     11  C   UNL     1       4.392   5.465  -6.388  0.00  0.00    +0.042 C 
ATOM     12  C   UNL     1       4.710   5.210  -7.802  0.00  0.00    -0.022 A 
ATOM     13  C   UNL     1       5.975   5.263  -8.363  0.00  0.00    -0.001 A 
ATOM     14  C   UNL     1       2.358   3.965  -8.140  0.00  0.00    +0.005 C 
ATOM     15  C   UNL     1       1.871   4.398  -9.486  0.00  0.00    +0.037 C 
ATOM     16  C   UNL     1       2.659   7.384  -6.758  0.00  0.00    +0.025 C 
ATOM     17  C   UNL     1       0.666   5.430  -9.090  0.00  0.00    +0.192 C 
ATOM     18  O   UNL     1       0.346   5.727 -10.533  0.00  0.00    -0.219 OA
ATOM     19  C   UNL     1       3.784   5.950  -8.484  0.00  0.00    +0.014 A 
ATOM     20  C   UNL     1       6.152   5.832  -9.627  0.00  0.00    +0.040 A 
ENDROOT
BRANCH   1  22
ATOM     21  C   UNL     1       6.508   8.090 -11.447  0.00  0.00    +0.253 C 
ATOM     22  O   UNL     1       5.292   7.413 -11.289  0.00  0.00    -0.468 OA
ENDBRANCH   1  22
TORSDOF 1
ENDMDL
MODEL 3
REMARK VINA RESULT:      -8.0      1.709      4.040
REMARK  Name = 
REMARK  1 active torsions:
REMARK  status: ('A' for Active; 'I' for Inactive)
REMARK    1  A    between atoms: O_2  and  C_3
REMARK                            x       y       z     vdW  Elec       q    Type
REMARK                         _______ _______ _______ _____ _____    ______ ____
ROOT
ATOM      1  C   UNL     1       3.232   5.712  -3.321  0.00  0.00    +0.172 A 
ATOM      2  C   UNL     1       2.330   5.354  -4.322  0.00  0.00    +0.168 A 
ATOM      3  O   UNL     1       0.993   5.167  -4.411  0.00  0.00    -0.474 OA
ATOM      4  C   UNL     1       0.679   4.524  -5.769  0.00  0.00    +0.200 C 
ATOM      5  C   UNL     1       2.013   5.017  -6.539  0.00  0.00    +0.063 C 
ATOM      6  C   UNL     1       1.524   5.948  -7.736  0.00  0.00    +0.022 C 
ATOM      7  C   UNL     1       3.022   6.432  -8.384  0.00  0.00    +0.062 C 
ATOM      8  N   UNL     1       3.155   5.128  -9.243  0.00  0.00    -0.272 NA
ATOM      9  C   UNL     1       2.515   4.042  -8.688  0.00  0.00    +0.073 C 
ATOM     10  C   UNL     1       4.545   4.934  -9.510  0.00  0.00    +0.090 C 
ATOM     11  C   UNL     1       4.108   5.893  -7.313  0.00  0.00    +0.042 C 
ATOM     12  C   UNL     1       3.798   6.431  -5.979  0.00  0.00    -0.022 A 
ATOM     13  C   UNL     1       4.723   6.682  -4.980  0.00  0.00    -0.001 A 
ATOM     14  C   UNL     1       1.419   7.311  -6.851  0.00  0.00    +0.005 C 
ATOM     15  C   UNL     1       0.462   7.036  -5.734  0.00  0.00    +0.037 C 
ATOM     16  C   UNL     1       2.541   3.805  -7.223  0.00  0.00    +0.025 C 
ATOM     17  C   UNL     1      -0.385   5.769  -6.324  0.00  0.00    +0.192 C 
ATOM     18  O   UNL     1      -1.241   5.669  -5.087  0.00  0.00    -0.219 OA
ATOM     19  C   UNL     1       2.739   5.674  -5.559  0.00  0.00    +0.014 A 
ATOM     20  C   UNL     1       4.415   6.370  -3.652  0.00  0.00    +0.040 A 
ENDROOT
BRANCH   1  22
ATOM     21  C   UNL     1       4.132   4.804  -1.227  0.00  0.00    +0.253 C 
ATOM     22  O   UNL     1       3.087   4.971  -2.143  0.00  0.00    -0.468 OA
ENDBRANCH   1  22
TORSDOF 1
ENDMDL
MODEL 4
REMARK VINA RESULT:      -7.6      3.377      5.537
REMARK  Name = 
REMARK  1 active torsions:
REMARK  status: ('A' for Active; 'I' for Inactive)
REMARK    1  A    between atoms: O_2  and  C_3
REMARK                            x       y       z     vdW  Elec       q    Type
REMARK                         _______ _______ _______ _____ _____    ______ ____
ROOT
ATOM      1  C   UNL     1       1.486   5.678 -12.302  0.00  0.00    +0.172 A 
ATOM      2  C   UNL     1       2.401   5.384 -11.292  0.00  0.00    +0.168 A 
ATOM      3  O   UNL     1       3.747   5.304 -11.188  0.00  0.00    -0.474 OA
ATOM      4  C   UNL     1       4.095   4.676  -9.830  0.00  0.00    +0.200 C 
ATOM      5  C   UNL     1       2.717   5.054  -9.074  0.00  0.00    +0.063 C 
ATOM      6  C   UNL     1       3.115   6.010  -7.863  0.00  0.00    +0.022 C 
ATOM      7  C   UNL     1       1.576   6.368  -7.231  0.00  0.00    +0.062 C 
ATOM      8  N   UNL     1       1.537   5.050  -6.384  0.00  0.00    -0.272 NA
ATOM      9  C   UNL     1       2.269   4.023  -6.939  0.00  0.00    +0.073 C 
ATOM     10  C   UNL     1       0.164   4.743  -6.136  0.00  0.00    +0.090 C 
ATOM     11  C   UNL     1       0.550   5.754  -8.320  0.00  0.00    +0.042 C 
ATOM     12  C   UNL     1       0.832   6.326  -9.645  0.00  0.00    -0.022 A 
ATOM     13  C   UNL     1      -0.099   6.512 -10.654  0.00  0.00    -0.001 A 
ATOM     14  C   UNL     1       3.122   7.385  -8.737  0.00  0.00    +0.005 C 
ATOM     15  C   UNL     1       4.111   7.198  -9.844  0.00  0.00    +0.037 C 
ATOM     16  C   UNL     1       2.279   3.798  -8.406  0.00  0.00    +0.025 C 
ATOM     17  C   UNL     1       5.050   5.997  -9.252  0.00  0.00    +0.192 C 
ATOM     18  O   UNL     1       5.926   5.977 -10.480  0.00  0.00    -0.219 OA
ATOM     19  C   UNL     1       1.953   5.660 -10.058  0.00  0.00    +0.014 A 
ATOM     20  C   UNL     1       0.249   6.237 -11.980  0.00  0.00    +0.040 A 
ENDROOT
BRANCH   1  22
ATOM     21  C   UNL     1       0.697   4.212 -14.104  0.00  0.00    +0.253 C 
ATOM     22  O   UNL     1       1.704   4.962 -13.483  0.00  0.00    -0.468 OA
ENDBRANCH   1  22
TORSDOF 1
ENDMDL
MODEL 5
REMARK VINA RESULT:      -7.3      1.091      1.095
REMARK  Name = 
REMARK  1 active torsions:
REMARK  status: ('A' for Active; 'I' for Inactive)
REMARK    1  A    between atoms: O_2  and  C_3
REMARK                            x       y       z     vdW  Elec       q    Type
REMARK                         _______ _______ _______ _____ _____    ______ ____
ROOT
ATOM      1  C   UNL     1      -0.331   5.753  -4.270  0.00  0.00    +0.172 A 
ATOM      2  C   UNL     1       0.920   6.017  -4.827  0.00  0.00    +0.168 A 
ATOM      3  O   UNL     1       2.199   6.043  -4.387  0.00  0.00    -0.474 OA
ATOM      4  C   UNL     1       3.078   6.667  -5.480  0.00  0.00    +0.200 C 
ATOM      5  C   UNL     1       2.102   6.353  -6.729  0.00  0.00    +0.063 C 
ATOM      6  C   UNL     1       2.914   5.391  -7.706  0.00  0.00    +0.022 C 
ATOM      7  C   UNL     1       1.740   5.103  -8.905  0.00  0.00    +0.062 C 
ATOM      8  N   UNL     1       2.086   6.428  -9.665  0.00  0.00    -0.272 NA
ATOM      9  C   UNL     1       2.573   7.420  -8.841  0.00  0.00    +0.073 C 
ATOM     10  C   UNL     1       0.936   6.795 -10.429  0.00  0.00    +0.090 C 
ATOM     11  C   UNL     1       0.388   5.750  -8.297  0.00  0.00    +0.042 C 
ATOM     12  C   UNL     1       0.101   5.155  -6.983  0.00  0.00    -0.022 A 
ATOM     13  C   UNL     1      -1.159   5.000  -6.430  0.00  0.00    -0.001 A 
ATOM     14  C   UNL     1       2.526   4.010  -6.935  0.00  0.00    +0.005 C 
ATOM     15  C   UNL     1       3.000   4.146  -5.523  0.00  0.00    +0.037 C 
ATOM     16  C   UNL     1       2.008   7.631  -7.485  0.00  0.00    +0.025 C 
ATOM     17  C   UNL     1       4.138   5.313  -5.665  0.00  0.00    +0.192 C 
ATOM     18  O   UNL     1       4.455   5.286  -4.191  0.00  0.00    -0.219 OA
ATOM     19  C   UNL     1       0.989   5.770  -6.144  0.00  0.00    +0.014 A 
ATOM     20  C   UNL     1      -1.356   5.248  -5.068  0.00  0.00    +0.040 A 
ENDROOT
BRANCH   1  22
ATOM     21  C   UNL     1      -1.100   5.829  -1.941  0.00  0.00    +0.253 C 
ATOM     22  O   UNL     1      -0.575   6.449  -3.081  0.00  0.00    -0.468 OA
ENDBRANCH   1  22
TORSDOF 1
ENDMDL
MODEL 6
REMARK VINA RESULT:      -6.9      2.464      5.341
REMARK  Name = 
REMARK  1 active torsions:
REMARK  status: ('A' for Active; 'I' for Inactive)
REMARK    1  A    between atoms: O_2  and  C_3
REMARK                            x       y       z     vdW  Elec       q    Type
REMARK                         _______ _______ _______ _____ _____    ______ ____
ROOT
ATOM      1  C   UNL     1       5.921   5.908  -9.264  0.00  0.00    +0.172 A 
ATOM      2  C   UNL     1       4.747   5.544  -8.606  0.00  0.00    +0.168 A 
ATOM      3  O   UNL     1       4.382   5.294  -7.328  0.00  0.00    -0.474 OA
ATOM      4  C   UNL     1       2.970   4.689  -7.333  0.00  0.00    +0.200 C 
ATOM      5  C   UNL     1       2.504   5.277  -8.765  0.00  0.00    +0.063 C 
ATOM      6  C   UNL     1       1.258   6.228  -8.477  0.00  0.00    +0.022 C 
ATOM      7  C   UNL     1       0.944   6.811 -10.045  0.00  0.00    +0.062 C 
ATOM      8  N   UNL     1       0.095   5.549 -10.423  0.00  0.00    -0.272 NA
ATOM      9  C   UNL     1       0.477   4.411  -9.746  0.00  0.00    +0.073 C 
ATOM     10  C   UNL     1       0.113   5.434 -11.847  0.00  0.00    +0.090 C 
ATOM     11  C   UNL     1       2.199   6.286 -10.920  0.00  0.00    +0.042 C 
ATOM     12  C   UNL     1       3.456   6.756 -10.316  0.00  0.00    -0.022 A 
ATOM     13  C   UNL     1       4.630   7.014 -11.004  0.00  0.00    -0.001 A 
ATOM     14  C   UNL     1       2.140   7.549  -8.117  0.00  0.00    +0.005 C 
ATOM     15  C   UNL     1       3.030   7.184  -6.971  0.00  0.00    +0.037 C 
ATOM     16  C   UNL     1       1.909   4.120  -9.488  0.00  0.00    +0.025 C 
ATOM     17  C   UNL     1       2.244   5.899  -6.334  0.00  0.00    +0.192 C 
ATOM     18  O   UNL     1       3.277   5.710  -5.252  0.00  0.00    -0.219 OA
ATOM     19  C   UNL     1       3.629   5.932  -9.239  0.00  0.00    +0.014 A 
ATOM     20  C   UNL     1       5.857   6.636 -10.451  0.00  0.00    +0.040 A 
ENDROOT
BRANCH   1  22
ATOM     21  C   UNL     1       8.203   5.108  -9.680  0.00  0.00    +0.253 C 
ATOM     22  O   UNL     1       7.024   5.116  -8.926  0.00  0.00    -0.468 OA
ENDBRANCH   1  22
TORSDOF 1
ENDMDL
MODEL 7
REMARK VINA RESULT:      -6.8      2.625      4.905
REMARK  Name = 
REMARK  1 active torsions:
REMARK  status: ('A' for Active; 'I' for Inactive)
REMARK    1  A    between atoms: O_2  and  C_3
REMARK                            x       y       z     vdW  Elec       q    Type
REMARK                         _______ _______ _______ _____ _____    ______ ____
ROOT
ATOM      1  C   UNL     1       3.988   6.005  -8.418  0.00  0.00    +0.172 A 
ATOM      2  C   UNL     1       3.699   5.498  -7.152  0.00  0.00    +0.168 A 
ATOM      3  O   UNL     1       4.391   4.890  -6.162  0.00  0.00    -0.474 OA
ATOM      4  C   UNL     1       3.393   4.358  -5.124  0.00  0.00    +0.200 C 
ATOM      5  C   UNL     1       2.175   5.359  -5.482  0.00  0.00    +0.063 C 
ATOM      6  C   UNL     1       1.898   6.218  -4.170  0.00  0.00    +0.022 C 
ATOM      7  C   UNL     1       0.666   7.251  -4.729  0.00  0.00    +0.062 C 
ATOM      8  N   UNL     1      -0.451   6.186  -4.459  0.00  0.00    -0.272 NA
ATOM      9  C   UNL     1       0.000   4.887  -4.551  0.00  0.00    +0.073 C 
ATOM     10  C   UNL     1      -1.554   6.500  -5.309  0.00  0.00    +0.090 C 
ATOM     11  C   UNL     1       0.611   6.973  -6.321  0.00  0.00    +0.042 C 
ATOM     12  C   UNL     1       1.939   7.203  -6.912  0.00  0.00    -0.022 A 
ATOM     13  C   UNL     1       2.179   7.618  -8.211  0.00  0.00    -0.001 A 
ATOM     14  C   UNL     1       3.036   7.344  -4.468  0.00  0.00    +0.005 C 
ATOM     15  C   UNL     1       4.345   6.628  -4.580  0.00  0.00    +0.037 C 
ATOM     16  C   UNL     1       0.973   4.489  -5.598  0.00  0.00    +0.025 C 
ATOM     17  C   UNL     1       4.033   5.237  -3.780  0.00  0.00    +0.192 C 
ATOM     18  O   UNL     1       5.422   4.702  -4.017  0.00  0.00    -0.219 OA
ATOM     19  C   UNL     1       2.652   6.090  -6.558  0.00  0.00    +0.014 A 
ATOM     20  C   UNL     1       3.233   7.056  -8.937  0.00  0.00    +0.040 A 
ENDROOT
BRANCH   1  22
ATOM     21  C   UNL     1       4.971   5.382 -10.578  0.00  0.00    +0.253 C 
ATOM     22  O   UNL     1       4.699   5.115  -9.231  0.00  0.00    -0.468 OA
ENDBRANCH   1  22
TORSDOF 1
ENDMDL
MODEL 8
REMARK VINA RESULT:      -6.8      2.329      4.077
REMARK  Name = 
REMARK  1 active torsions:
REMARK  status: ('A' for Active; 'I' for Inactive)
REMARK    1  A    between atoms: O_2  and  C_3
REMARK                            x       y       z     vdW  Elec       q    Type
REMARK                         _______ _______ _______ _____ _____    ______ ____
ROOT
ATOM      1  C   UNL     1      -1.046   5.845  -6.315  0.00  0.00    +0.172 A 
ATOM      2  C   UNL     1       0.215   5.434  -6.744  0.00  0.00    +0.168 A 
ATOM      3  O   UNL     1       0.751   4.969  -7.897  0.00  0.00    -0.474 OA
ATOM      4  C   UNL     1       2.170   4.461  -7.605  0.00  0.00    +0.200 C 
ATOM      5  C   UNL     1       2.427   5.335  -6.269  0.00  0.00    +0.063 C 
ATOM      6  C   UNL     1       3.666   6.286  -6.585  0.00  0.00    +0.022 C 
ATOM      7  C   UNL     1       3.754   7.172  -5.134  0.00  0.00    +0.062 C 
ATOM      8  N   UNL     1       4.591   6.057  -4.419  0.00  0.00    -0.272 NA
ATOM      9  C   UNL     1       4.340   4.791  -4.903  0.00  0.00    +0.073 C 
ATOM     10  C   UNL     1       4.394   6.212  -3.013  0.00  0.00    +0.090 C 
ATOM     11  C   UNL     1       2.416   6.749  -4.331  0.00  0.00    +0.042 C 
ATOM     12  C   UNL     1       1.232   7.021  -5.161  0.00  0.00    -0.022 A 
ATOM     13  C   UNL     1      -0.029   7.334  -4.682  0.00  0.00    -0.001 A 
ATOM     14  C   UNL     1       2.792   7.461  -7.298  0.00  0.00    +0.005 C 
ATOM     15  C   UNL     1       2.070   6.835  -8.450  0.00  0.00    +0.037 C 
ATOM     16  C   UNL     1       2.964   4.373  -5.269  0.00  0.00    +0.025 C 
ATOM     17  C   UNL     1       2.976   5.502  -8.726  0.00  0.00    +0.192 C 
ATOM     18  O   UNL     1       2.099   5.051  -9.866  0.00  0.00    -0.219 OA
ATOM     19  C   UNL     1       1.228   5.999  -6.070  0.00  0.00    +0.014 A 
ATOM     20  C   UNL     1      -1.161   6.787  -5.294  0.00  0.00    +0.040 A 
ENDROOT
BRANCH   1  22
ATOM     21  C   UNL     1      -3.294   4.933  -5.948  0.00  0.00    +0.253 C 
ATOM     22  O   UNL     1      -2.067   4.940  -6.623  0.00  0.00    -0.468 OA
ENDBRANCH   1  22
TORSDOF 1
ENDMDL
MODEL 9
REMARK VINA RESULT:      -6.8      2.532      4.973
REMARK  Name = 
REMARK  1 active torsions:
REMARK  status: ('A' for Active; 'I' for Inactive)
REMARK    1  A    between atoms: O_2  and  C_3
REMARK                            x       y       z     vdW  Elec       q    Type
REMARK                         _______ _______ _______ _____ _____    ______ ____
ROOT
ATOM      1  C   UNL     1       3.222   6.803  -3.477  0.00  0.00    +0.172 A 
ATOM      2  C   UNL     1       2.325   6.921  -4.538  0.00  0.00    +0.168 A 
ATOM      3  O   UNL     1       2.413   7.020  -5.884  0.00  0.00    -0.474 OA
ATOM      4  C   UNL     1       1.027   7.380  -6.438  0.00  0.00    +0.200 C 
ATOM      5  C   UNL     1       0.160   6.820  -5.194  0.00  0.00    +0.063 C 
ATOM      6  C   UNL     1      -0.763   5.658  -5.774  0.00  0.00    +0.022 C 
ATOM      7  C   UNL     1      -1.538   5.137  -4.351  0.00  0.00    +0.062 C 
ATOM      8  N   UNL     1      -2.625   6.262  -4.445  0.00  0.00    -0.272 NA
ATOM      9  C   UNL     1      -2.179   7.400  -5.083  0.00  0.00    +0.073 C 
ATOM     10  C   UNL     1      -3.134   6.474  -3.127  0.00  0.00    +0.090 C 
ATOM     11  C   UNL     1      -0.761   5.921  -3.169  0.00  0.00    +0.042 C 
ATOM     12  C   UNL     1       0.679   5.628  -3.242  0.00  0.00    -0.022 A 
ATOM     13  C   UNL     1       1.551   5.616  -2.166  0.00  0.00    -0.001 A 
ATOM     14  C   UNL     1       0.356   4.481  -5.645  0.00  0.00    +0.005 C 
ATOM     15  C   UNL     1       1.541   4.911  -6.451  0.00  0.00    +0.037 C 
ATOM     16  C   UNL     1      -0.802   7.907  -4.866  0.00  0.00    +0.025 C 
ATOM     17  C   UNL     1       0.874   6.001  -7.471  0.00  0.00    +0.192 C 
ATOM     18  O   UNL     1       2.191   6.287  -8.146  0.00  0.00    -0.219 OA
ATOM     19  C   UNL     1       1.117   6.395  -4.286  0.00  0.00    +0.014 A 
ATOM     20  C   UNL     1       2.833   6.155  -2.305  0.00  0.00    +0.040 A 
ENDROOT
BRANCH   1  22
ATOM     21  C   UNL     1       5.482   7.490  -4.140  0.00  0.00    +0.253 C 
ATOM     22  O   UNL     1       4.258   7.742  -3.510  0.00  0.00    -0.468 OA
ENDBRANCH   1  22
TORSDOF 1
ENDMDL
