MODEL 1
REMARK VINA RESULT:      -8.1      0.000      0.000
REMARK  Name = 
REMARK  4 active torsions:
REMARK  status: ('A' for Active; 'I' for Inactive)
REMARK    1  A    between atoms: C_2  and  C_3
REMARK    2  A    between atoms: C_3  and  C_4
REMARK    3  A    between atoms: C_26  and  C_27
REMARK    4  A    between atoms: C_27  and  C_29
REMARK                            x       y       z     vdW  Elec       q    Type
REMARK                         _______ _______ _______ _____ _____    ______ ____
ROOT
ATOM      1  C   UNL     1       0.945   6.893  -7.940  0.00  0.00    +0.235 C 
ATOM      2  O   UNL     1       2.178   6.151  -8.413  0.00  0.00    -0.326 OA
ATOM      3  C   UNL     1       2.649   5.427  -7.471  0.00  0.00    +0.173 C 
ATOM      4  C   UNL     1       1.221   4.642  -7.288  0.00  0.00    +0.149 C 
ATOM      5  C   UNL     1       1.526   4.245  -5.704  0.00  0.00    +0.033 C 
ATOM      6  C   UNL     1       1.808   5.778  -5.276  0.00  0.00    +0.005 C 
ATOM      7  C   UNL     1       2.716   5.481  -3.889  0.00  0.00    +0.004 C 
ATOM      8  C   UNL     1       2.692   7.136  -3.658  0.00  0.00    +0.038 C 
ATOM      9  C   UNL     1       4.107   7.542  -4.528  0.00  0.00    +0.153 C 
ATOM     10  C   UNL     1       3.596   7.112  -6.017  0.00  0.00    +0.036 C 
ATOM     11  O   UNL     1       4.876   6.268  -4.292  0.00  0.00    -0.223 OA
ATOM     12  C   UNL     1       3.364   7.121  -2.201  0.00  0.00    +0.036 C 
ATOM     13  C   UNL     1       2.168   6.781  -1.356  0.00  0.00    -0.038 C 
ATOM     14  C   UNL     1       2.058   7.239  -0.120  0.00  0.00    +0.034 C 
ATOM     15  C   UNL     1       2.749   8.460   0.259  0.00  0.00    +0.195 C 
ATOM     16  C   UNL     1       3.603   9.084  -0.744  0.00  0.00    +0.038 C 
ATOM     17  O   UNL     1       2.214   9.176   1.162  0.00  0.00    -0.287 OA
ATOM     18  C   UNL     1       1.716   5.368  -1.572  0.00  0.00    +0.022 C 
ATOM     19  C   UNL     1       4.309   6.050  -1.968  0.00  0.00    +0.009 C 
ATOM     20  C   UNL     1       3.783   8.493  -1.913  0.00  0.00    -0.020 C 
ATOM     21  C   UNL     1       1.381   5.268  -3.024  0.00  0.00    +0.004 C 
ATOM     22  C   UNL     1       3.139   5.791  -6.189  0.00  0.00    +0.034 C 
ATOM     23  C   UNL     1       3.995   4.620  -5.769  0.00  0.00    +0.003 C 
ATOM     24  O   UNL     1       0.456   5.874  -6.931  0.00  0.00    -0.330 OA
ENDROOT
BRANCH   3  25
ATOM     25  C   UNL     1       3.345   4.262  -8.148  0.00  0.00    +0.210 C 
ATOM     26  O   UNL     1       2.687   3.289  -8.536  0.00  0.00    -0.291 OA
BRANCH  25  27
ATOM     27  C   UNL     1       4.427   4.480  -9.169  0.00  0.00    +0.248 C 
ATOM     28  O   UNL     1       5.482   5.216  -8.719  0.00  0.00    -0.212 OA
ENDBRANCH  25  27
ENDBRANCH   3  25
BRANCH   1  29
ATOM     29  C   UNL     1       0.012   6.200  -9.144  0.00  0.00    +0.061 C 
BRANCH  29  31
ATOM     30  C   UNL     1       0.292   6.915 -11.004  0.00  0.00    +0.000 C 
ATOM     31  C   UNL     1       0.654   6.891 -10.342  0.00  0.00    +0.005 C 
ENDBRANCH  29  31
ENDBRANCH   1  29
TORSDOF 4
ENDMDL
MODEL 2
REMARK VINA RESULT:      -7.7      1.882      3.868
REMARK  Name = 
REMARK  4 active torsions:
REMARK  status: ('A' for Active; 'I' for Inactive)
REMARK    1  A    between atoms: C_2  and  C_3
REMARK    2  A    between atoms: C_3  and  C_4
REMARK    3  A    between atoms: C_26  and  C_27
REMARK    4  A    between atoms: C_27  and  C_29
REMARK                            x       y       z     vdW  Elec       q    Type
REMARK                         _______ _______ _______ _____ _____    ______ ____
ROOT
ATOM      1  C   UNL     1       4.489   4.800  -9.246  0.00  0.00    +0.235 C 
ATOM      2  O   UNL     1       3.022   4.698  -9.607  0.00  0.00    -0.326 OA
ATOM      3  C   UNL     1       2.320   5.418  -8.818  0.00  0.00    +0.173 C 
ATOM      4  C   UNL     1       3.181   6.763  -9.193  0.00  0.00    +0.149 C 
ATOM      5  C   UNL     1       2.828   7.513  -7.754  0.00  0.00    +0.033 C 
ATOM      6  C   UNL     1       3.372   6.275  -6.868  0.00  0.00    +0.005 C 
ATOM      7  C   UNL     1       2.534   6.607  -5.445  0.00  0.00    +0.004 C 
ATOM      8  C   UNL     1       3.389   5.335  -4.780  0.00  0.00    +0.038 C 
ATOM      9  C   UNL     1       2.305   4.067  -5.153  0.00  0.00    +0.153 C 
ATOM     10  C   UNL     1       2.433   4.122  -6.780  0.00  0.00    +0.036 C 
ATOM     11  O   UNL     1       1.024   4.859  -5.106  0.00  0.00    -0.223 OA
ATOM     12  C   UNL     1       2.899   5.563  -3.269  0.00  0.00    +0.036 C 
ATOM     13  C   UNL     1       3.824   6.672  -2.850  0.00  0.00    -0.038 C 
ATOM     14  C   UNL     1       4.230   6.779  -1.596  0.00  0.00    +0.034 C 
ATOM     15  C   UNL     1       4.262   5.599  -0.746  0.00  0.00    +0.195 C 
ATOM     16  C   UNL     1       3.763   4.353  -1.314  0.00  0.00    +0.038 C 
ATOM     17  O   UNL     1       5.142   5.565   0.170  0.00  0.00    -0.287 OA
ATOM     18  C   UNL     1       3.501   7.961  -3.545  0.00  0.00    +0.022 C 
ATOM     19  C   UNL     1       1.566   6.109  -3.128  0.00  0.00    +0.009 C 
ATOM     20  C   UNL     1       3.235   4.348  -2.526  0.00  0.00    -0.020 C 
ATOM     21  C   UNL     1       3.643   7.679  -5.005  0.00  0.00    +0.004 C 
ATOM     22  C   UNL     1       2.164   5.353  -7.409  0.00  0.00    +0.034 C 
ATOM     23  C   UNL     1       0.871   6.087  -7.141  0.00  0.00    +0.003 C 
ATOM     24  O   UNL     1       4.478   6.212  -8.697  0.00  0.00    -0.330 OA
ENDROOT
BRANCH   3  25
ATOM     25  C   UNL     1       1.095   5.831  -9.610  0.00  0.00    +0.210 C 
ATOM     26  O   UNL     1       1.172   6.746 -10.439  0.00  0.00    -0.291 OA
BRANCH  25  27
ATOM     27  C   UNL     1       0.153   4.811 -10.188  0.00  0.00    +0.248 C 
ATOM     28  O   UNL     1       0.148   4.760 -11.550  0.00  0.00    -0.212 OA
ENDBRANCH  25  27
ENDBRANCH   3  25
BRANCH   1  29
ATOM     29  C   UNL     1       4.872   5.360 -10.776  0.00  0.00    +0.061 C 
BRANCH  29  31
ATOM     30  C   UNL     1       6.832   5.692 -11.093  0.00  0.00    +0.000 C 
ATOM     31  C   UNL     1       6.336   5.702 -10.523  0.00  0.00    +0.005 C 
ENDBRANCH  29  31
ENDBRANCH   1  29
TORSDOF 4
ENDMDL
MODEL 3
REMARK VINA RESULT:      -7.5      2.281      7.267
REMARK  Name = 
REMARK  4 active torsions:
REMARK  status: ('A' for Active; 'I' for Inactive)
REMARK    1  A    between atoms: C_2  and  C_3
REMARK    2  A    between atoms: C_3  and  C_4
REMARK    3  A    between atoms: C_26  and  C_27
REMARK    4  A    between atoms: C_27  and  C_29
REMARK                            x       y       z     vdW  Elec       q    Type
REMARK                         _______ _______ _______ _____ _____    ______ ____
ROOT
ATOM      1  C   UNL     1       2.187   6.778  -3.694  0.00  0.00    +0.235 C 
ATOM      2  O   UNL     1       0.732   6.976  -4.068  0.00  0.00    -0.326 OA
ATOM      3  C   UNL     1       0.462   6.345  -5.146  0.00  0.00    +0.173 C 
ATOM      4  C   UNL     1       0.974   4.924  -4.507  0.00  0.00    +0.149 C 
ATOM      5  C   UNL     1       1.320   4.264  -5.991  0.00  0.00    +0.033 C 
ATOM      6  C   UNL     1       2.280   5.493  -6.418  0.00  0.00    +0.005 C 
ATOM      7  C   UNL     1       2.212   5.286  -8.088  0.00  0.00    +0.004 C 
ATOM      8  C   UNL     1       3.339   6.516  -8.171  0.00  0.00    +0.038 C 
ATOM      9  C   UNL     1       2.269   7.846  -8.267  0.00  0.00    +0.153 C 
ATOM     10  C   UNL     1       1.599   7.713  -6.785  0.00  0.00    +0.036 C 
ATOM     11  O   UNL     1       1.132   7.156  -8.976  0.00  0.00    -0.223 OA
ATOM     12  C   UNL     1       3.624   6.390  -9.745  0.00  0.00    +0.036 C 
ATOM     13  C   UNL     1       4.584   5.233  -9.755  0.00  0.00    -0.038 C 
ATOM     14  C   UNL     1       5.536   5.148 -10.668  0.00  0.00    +0.034 C 
ATOM     15  C   UNL     1       6.026   6.356 -11.311  0.00  0.00    +0.195 C 
ATOM     16  C   UNL     1       5.374   7.612 -10.960  0.00  0.00    +0.038 C 
ATOM     17  O   UNL     1       7.237   6.363 -11.693  0.00  0.00    -0.287 OA
ATOM     18  C   UNL     1       3.908   3.944  -9.393  0.00  0.00    +0.022 C 
ATOM     19  C   UNL     1       2.498   5.953 -10.544  0.00  0.00    +0.009 C 
ATOM     20  C   UNL     1       4.331   7.606 -10.149  0.00  0.00    -0.020 C 
ATOM     21  C   UNL     1       3.345   4.152  -8.025  0.00  0.00    +0.004 C 
ATOM     22  C   UNL     1       1.004   6.480  -6.451  0.00  0.00    +0.034 C 
ATOM     23  C   UNL     1      -0.035   5.859  -7.355  0.00  0.00    +0.003 C 
ATOM     24  O   UNL     1       2.374   5.395  -4.284  0.00  0.00    -0.330 OA
ENDROOT
BRANCH   3  25
ATOM     25  C   UNL     1      -1.011   5.993  -5.065  0.00  0.00    +0.210 C 
ATOM     26  O   UNL     1      -1.408   5.183  -4.218  0.00  0.00    -0.291 OA
BRANCH  25  27
ATOM     27  C   UNL     1      -2.077   7.046  -5.183  0.00  0.00    +0.248 C 
ATOM     28  O   UNL     1      -2.750   7.295  -4.024  0.00  0.00    -0.212 OA
ENDBRANCH  25  27
ENDBRANCH   3  25
BRANCH   1  29
ATOM     29  C   UNL     1       1.762   6.127  -2.212  0.00  0.00    +0.061 C 
BRANCH  29  31
ATOM     30  C   UNL     1       3.275   6.089  -0.885  0.00  0.00    +0.000 C 
ATOM     31  C   UNL     1       3.163   5.990  -1.625  0.00  0.00    +0.005 C 
ENDBRANCH  29  31
ENDBRANCH   1  29
TORSDOF 4
ENDMDL
MODEL 4
REMARK VINA RESULT:      -7.4      2.014      7.249
REMARK  Name = 
REMARK  4 active torsions:
REMARK  status: ('A' for Active; 'I' for Inactive)
REMARK    1  A    between atoms: C_2  and  C_3
REMARK    2  A    between atoms: C_3  and  C_4
REMARK    3  A    between atoms: C_26  and  C_27
REMARK    4  A    between atoms: C_27  and  C_29
REMARK                            x       y       z     vdW  Elec       q    Type
REMARK                         _______ _______ _______ _____ _____    ______ ____
ROOT
ATOM      1  C   UNL     1       3.488   8.276  -2.245  0.00  0.00    +0.235 C 
ATOM      2  O   UNL     1       2.325   7.389  -1.852  0.00  0.00    -0.326 OA
ATOM      3  C   UNL     1       2.347   6.304  -2.527  0.00  0.00    +0.173 C 
ATOM      4  C   UNL     1       3.869   5.958  -2.024  0.00  0.00    +0.149 C 
ATOM      5  C   UNL     1       4.204   5.019  -3.352  0.00  0.00    +0.033 C 
ATOM      6  C   UNL     1       3.812   6.189  -4.395  0.00  0.00    +0.005 C 
ATOM      7  C   UNL     1       3.506   5.224  -5.741  0.00  0.00    +0.004 C 
ATOM      8  C   UNL     1       3.304   6.655  -6.579  0.00  0.00    +0.038 C 
ATOM      9  C   UNL     1       1.628   6.875  -6.324  0.00  0.00    +0.153 C 
ATOM     10  C   UNL     1       1.666   7.098  -4.708  0.00  0.00    +0.036 C 
ATOM     11  O   UNL     1       1.233   5.423  -6.237  0.00  0.00    -0.223 OA
ATOM     12  C   UNL     1       3.188   5.993  -8.036  0.00  0.00    +0.036 C 
ATOM     13  C   UNL     1       4.642   5.775  -8.351  0.00  0.00    -0.038 C 
ATOM     14  C   UNL     1       5.084   5.839  -9.595  0.00  0.00    +0.034 C 
ATOM     15  C   UNL     1       4.355   6.622 -10.579  0.00  0.00    +0.195 C 
ATOM     16  C   UNL     1       3.110   7.246 -10.148  0.00  0.00    +0.038 C 
ATOM     17  O   UNL     1       5.027   7.147 -11.520  0.00  0.00    -0.287 OA
ATOM     18  C   UNL     1       5.243   4.698  -7.498  0.00  0.00    +0.022 C 
ATOM     19  C   UNL     1       2.593   4.674  -8.069  0.00  0.00    +0.009 C 
ATOM     20  C   UNL     1       2.651   7.020  -8.928  0.00  0.00    -0.020 C 
ATOM     21  C   UNL     1       5.071   5.156  -6.086  0.00  0.00    +0.004 C 
ATOM     22  C   UNL     1       2.270   6.092  -3.929  0.00  0.00    +0.034 C 
ATOM     23  C   UNL     1       1.839   4.651  -4.066  0.00  0.00    +0.003 C 
ATOM     24  O   UNL     1       4.471   7.187  -2.623  0.00  0.00    -0.330 OA
ENDROOT
BRANCH   3  25
ATOM     25  C   UNL     1       1.686   5.256  -1.653  0.00  0.00    +0.210 C 
ATOM     26  O   UNL     1       2.338   4.686  -0.769  0.00  0.00    -0.291 OA
BRANCH  25  27
ATOM     27  C   UNL     1       0.301   5.452  -1.103  0.00  0.00    +0.248 C 
ATOM     28  O   UNL     1      -0.694   4.982  -1.906  0.00  0.00    -0.212 OA
ENDBRANCH  25  27
ENDBRANCH   3  25
BRANCH   1  29
ATOM     29  C   UNL     1       4.061   8.297  -0.673  0.00  0.00    +0.061 C 
BRANCH  29  31
ATOM     30  C   UNL     1       3.631  10.240  -0.373  0.00  0.00    +0.000 C 
ATOM     31  C   UNL     1       3.351   9.561  -0.200  0.00  0.00    +0.005 C 
ENDBRANCH  29  31
ENDBRANCH   1  29
TORSDOF 4
ENDMDL
MODEL 5
REMARK VINA RESULT:      -7.4      3.039      5.910
REMARK  Name = 
REMARK  4 active torsions:
REMARK  status: ('A' for Active; 'I' for Inactive)
REMARK    1  A    between atoms: C_2  and  C_3
REMARK    2  A    between atoms: C_3  and  C_4
REMARK    3  A    between atoms: C_26  and  C_27
REMARK    4  A    between atoms: C_27  and  C_29
REMARK                            x       y       z     vdW  Elec       q    Type
REMARK                         _______ _______ _______ _____ _____    ______ ____
ROOT
ATOM      1  C   UNL     1       6.859   5.817  -9.975  0.00  0.00    +0.235 C 
ATOM      2  O   UNL     1       6.170   5.297 -11.220  0.00  0.00    -0.326 OA
ATOM      3  C   UNL     1       4.951   5.677 -11.243  0.00  0.00    +0.173 C 
ATOM      4  C   UNL     1       5.384   7.255 -11.125  0.00  0.00    +0.149 C 
ATOM      5  C   UNL     1       3.936   7.707 -10.450  0.00  0.00    +0.033 C 
ATOM      6  C   UNL     1       4.045   6.620  -9.259  0.00  0.00    +0.005 C 
ATOM      7  C   UNL     1       2.410   6.526  -8.864  0.00  0.00    +0.004 C 
ATOM      8  C   UNL     1       2.887   5.526  -7.614  0.00  0.00    +0.038 C 
ATOM      9  C   UNL     1       2.801   4.026  -8.430  0.00  0.00    +0.153 C 
ATOM     10  C   UNL     1       3.995   4.283  -9.514  0.00  0.00    +0.036 C 
ATOM     11  O   UNL     1       1.691   4.368  -9.390  0.00  0.00    -0.223 OA
ATOM     12  C   UNL     1       1.452   5.435  -6.902  0.00  0.00    +0.036 C 
ATOM     13  C   UNL     1       1.447   6.729  -6.137  0.00  0.00    -0.038 C 
ATOM     14  C   UNL     1       0.817   6.831  -4.978  0.00  0.00    +0.034 C 
ATOM     15  C   UNL     1       0.596   5.641  -4.172  0.00  0.00    +0.195 C 
ATOM     16  C   UNL     1       1.024   4.366  -4.732  0.00  0.00    +0.038 C 
ATOM     17  O   UNL     1       0.553   5.792  -2.912  0.00  0.00    -0.287 OA
ATOM     18  C   UNL     1       1.338   7.916  -7.047  0.00  0.00    +0.022 C 
ATOM     19  C   UNL     1       0.314   5.519  -7.792  0.00  0.00    +0.009 C 
ATOM     20  C   UNL     1       1.515   4.318  -5.959  0.00  0.00    -0.020 C 
ATOM     21  C   UNL     1       2.524   7.842  -7.952  0.00  0.00    +0.004 C 
ATOM     22  C   UNL     1       3.891   5.425 -10.333  0.00  0.00    +0.034 C 
ATOM     23  C   UNL     1       2.638   5.686 -11.134  0.00  0.00    +0.003 C 
ATOM     24  O   UNL     1       6.058   7.091  -9.803  0.00  0.00    -0.330 OA
ENDROOT
BRANCH   3  25
ATOM     25  C   UNL     1       4.568   5.764 -12.708  0.00  0.00    +0.210 C 
ATOM     26  O   UNL     1       5.195   6.512 -13.469  0.00  0.00    -0.291 OA
BRANCH  25  27
ATOM     27  C   UNL     1       4.227   4.534 -13.504  0.00  0.00    +0.248 C 
ATOM     28  O   UNL     1       3.151   4.681 -14.328  0.00  0.00    -0.212 OA
ENDBRANCH  25  27
ENDBRANCH   3  25
BRANCH   1  29
ATOM     29  C   UNL     1       8.006   6.620 -10.892  0.00  0.00    +0.061 C 
BRANCH  29  31
ATOM     30  C   UNL     1       8.850   5.587 -12.400  0.00  0.00    +0.000 C 
ATOM     31  C   UNL     1       8.410   5.462 -11.799  0.00  0.00    +0.005 C 
ENDBRANCH  29  31
ENDBRANCH   1  29
TORSDOF 4
ENDMDL
MODEL 6
REMARK VINA RESULT:      -7.2      3.026      4.348
REMARK  Name = 
REMARK  4 active torsions:
REMARK  status: ('A' for Active; 'I' for Inactive)
REMARK    1  A    between atoms: C_2  and  C_3
REMARK    2  A    between atoms: C_3  and  C_4
REMARK    3  A    between atoms: C_26  and  C_27
REMARK    4  A    between atoms: C_27  and  C_29
REMARK                            x       y       z     vdW  Elec       q    Type
REMARK                         _______ _______ _______ _____ _____    ______ ____
ROOT
ATOM      1  C   UNL     1       2.233   6.289 -11.778  0.00  0.00    +0.235 C 
ATOM      2  O   UNL     1       3.629   6.804 -11.492  0.00  0.00    -0.326 OA
ATOM      3  C   UNL     1       4.027   6.392 -10.350  0.00  0.00    +0.173 C 
ATOM      4  C   UNL     1       3.784   4.825 -10.770  0.00  0.00    +0.149 C 
ATOM      5  C   UNL     1       3.589   4.328  -9.197  0.00  0.00    +0.033 C 
ATOM      6  C   UNL     1       2.420   5.406  -8.903  0.00  0.00    +0.005 C 
ATOM      7  C   UNL     1       2.548   5.453  -7.224  0.00  0.00    +0.004 C 
ATOM      8  C   UNL     1       1.210   6.452  -7.265  0.00  0.00    +0.038 C 
ATOM      9  C   UNL     1       2.011   7.957  -7.393  0.00  0.00    +0.153 C 
ATOM     10  C   UNL     1       2.674   7.743  -8.869  0.00  0.00    +0.036 C 
ATOM     11  O   UNL     1       3.267   7.596  -6.642  0.00  0.00    -0.223 OA
ATOM     12  C   UNL     1       0.975   6.498  -5.678  0.00  0.00    +0.036 C 
ATOM     13  C   UNL     1       0.251   5.196  -5.474  0.00  0.00    -0.038 C 
ATOM     14  C   UNL     1      -0.656   5.066  -4.521  0.00  0.00    +0.034 C 
ATOM     15  C   UNL     1      -1.357   6.241  -4.029  0.00  0.00    +0.195 C 
ATOM     16  C   UNL     1      -0.959   7.533  -4.573  0.00  0.00    +0.038 C 
ATOM     17  O   UNL     1      -2.542   6.076  -3.604  0.00  0.00    -0.287 OA
ATOM     18  C   UNL     1       1.153   4.017  -5.684  0.00  0.00    +0.022 C 
ATOM     19  C   UNL     1       2.174   6.393  -4.873  0.00  0.00    +0.009 C 
ATOM     20  C   UNL     1       0.057   7.606  -5.416  0.00  0.00    -0.020 C 
ATOM     21  C   UNL     1       1.649   4.131  -7.089  0.00  0.00    +0.004 C 
ATOM     22  C   UNL     1       3.487   6.607  -9.055  0.00  0.00    +0.034 C 
ATOM     23  C   UNL     1       4.636   6.322  -8.117  0.00  0.00    +0.003 C 
ATOM     24  O   UNL     1       2.318   4.993 -10.999  0.00  0.00    -0.330 OA
ENDROOT
BRANCH   3  25
ATOM     25  C   UNL     1       5.539   6.311 -10.440  0.00  0.00    +0.210 C 
ATOM     26  O   UNL     1       6.076   5.328 -10.966  0.00  0.00    -0.291 OA
BRANCH  25  27
ATOM     27  C   UNL     1       6.367   7.506 -10.823  0.00  0.00    +0.248 C 
ATOM     28  O   UNL     1       7.659   7.455 -10.389  0.00  0.00    -0.212 OA
ENDBRANCH  25  27
ENDBRANCH   3  25
BRANCH   1  29
ATOM     29  C   UNL     1       2.753   5.526 -13.174  0.00  0.00    +0.061 C 
BRANCH  29  31
ATOM     30  C   UNL     1       1.079   5.346 -14.276  0.00  0.00    +0.000 C 
ATOM     31  C   UNL     1       1.399   5.031 -13.669  0.00  0.00    +0.005 C 
ENDBRANCH  29  31
ENDBRANCH   1  29
TORSDOF 4
ENDMDL
MODEL 7
REMARK VINA RESULT:      -6.8      1.850      7.292
REMARK  Name = 
REMARK  4 active torsions:
REMARK  status: ('A' for Active; 'I' for Inactive)
REMARK    1  A    between atoms: C_2  and  C_3
REMARK    2  A    between atoms: C_3  and  C_4
REMARK    3  A    between atoms: C_26  and  C_27
REMARK    4  A    between atoms: C_27  and  C_29
REMARK                            x       y       z     vdW  Elec       q    Type
REMARK                         _______ _______ _______ _____ _____    ______ ____
ROOT
ATOM      1  C   UNL     1       3.056   8.026  -3.248  0.00  0.00    +0.235 C 
ATOM      2  O   UNL     1       3.017   6.648  -2.621  0.00  0.00    -0.326 OA
ATOM      3  C   UNL     1       3.395   5.766  -3.465  0.00  0.00    +0.173 C 
ATOM      4  C   UNL     1       4.824   6.533  -3.708  0.00  0.00    +0.149 C 
ATOM      5  C   UNL     1       5.025   5.893  -5.228  0.00  0.00    +0.033 C 
ATOM      6  C   UNL     1       3.586   6.420  -5.742  0.00  0.00    +0.005 C 
ATOM      7  C   UNL     1       3.378   5.347  -7.024  0.00  0.00    +0.004 C 
ATOM      8  C   UNL     1       1.996   6.216  -7.376  0.00  0.00    +0.038 C 
ATOM      9  C   UNL     1       0.882   5.335  -6.425  0.00  0.00    +0.153 C 
ATOM     10  C   UNL     1       1.491   5.700  -4.955  0.00  0.00    +0.036 C 
ATOM     11  O   UNL     1       1.553   3.988  -6.503  0.00  0.00    -0.223 OA
ATOM     12  C   UNL     1       1.676   5.484  -8.768  0.00  0.00    +0.036 C 
ATOM     13  C   UNL     1       2.617   6.218  -9.682  0.00  0.00    -0.038 C 
ATOM     14  C   UNL     1       2.311   6.418 -10.953  0.00  0.00    +0.034 C 
ATOM     15  C   UNL     1       0.916   6.440 -11.363  0.00  0.00    +0.195 C 
ATOM     16  C   UNL     1      -0.085   6.161 -10.341  0.00  0.00    +0.038 C 
ATOM     17  O   UNL     1       0.612   7.171 -12.357  0.00  0.00    -0.287 OA
ATOM     18  C   UNL     1       4.049   5.876  -9.401  0.00  0.00    +0.022 C 
ATOM     19  C   UNL     1       2.082   4.097  -8.843  0.00  0.00    +0.009 C 
ATOM     20  C   UNL     1       0.297   5.825  -9.121  0.00  0.00    -0.020 C 
ATOM     21  C   UNL     1       4.286   6.264  -7.978  0.00  0.00    +0.004 C 
ATOM     22  C   UNL     1       2.849   5.406  -4.726  0.00  0.00    +0.034 C 
ATOM     23  C   UNL     1       3.391   4.020  -4.987  0.00  0.00    +0.003 C 
ATOM     24  O   UNL     1       4.196   7.789  -4.217  0.00  0.00    -0.330 OA
ENDROOT
BRANCH   3  25
ATOM     25  C   UNL     1       3.997   4.638  -2.649  0.00  0.00    +0.210 C 
ATOM     26  O   UNL     1       5.217   4.434  -2.681  0.00  0.00    -0.291 OA
BRANCH  25  27
ATOM     27  C   UNL     1       3.556   4.369  -1.238  0.00  0.00    +0.248 C 
ATOM     28  O   UNL     1       4.451   4.758  -0.286  0.00  0.00    -0.212 OA
ENDBRANCH  25  27
ENDBRANCH   3  25
BRANCH   1  29
ATOM     29  C   UNL     1       4.118   8.576  -2.077  0.00  0.00    +0.061 C 
BRANCH  29  31
ATOM     30  C   UNL     1       3.317   8.785  -0.243  0.00  0.00    +0.000 C 
ATOM     31  C   UNL     1       3.231   8.354  -0.857  0.00  0.00    +0.005 C 
ENDBRANCH  29  31
ENDBRANCH   1  29
TORSDOF 4
ENDMDL
MODEL 8
REMARK VINA RESULT:      -6.8      2.074      7.206
REMARK  Name = 
REMARK  4 active torsions:
REMARK  status: ('A' for Active; 'I' for Inactive)
REMARK    1  A    between atoms: C_2  and  C_3
REMARK    2  A    between atoms: C_3  and  C_4
REMARK    3  A    between atoms: C_26  and  C_27
REMARK    4  A    between atoms: C_27  and  C_29
REMARK                            x       y       z     vdW  Elec       q    Type
REMARK                         _______ _______ _______ _____ _____    ______ ____
ROOT
ATOM      1  C   UNL     1       0.393   5.698  -3.003  0.00  0.00    +0.235 C 
ATOM      2  O   UNL     1       1.702   5.037  -2.621  0.00  0.00    -0.326 OA
ATOM      3  C   UNL     1       2.618   5.354  -3.454  0.00  0.00    +0.173 C 
ATOM      4  C   UNL     1       2.382   6.955  -3.189  0.00  0.00    +0.149 C 
ATOM      5  C   UNL     1       2.977   7.392  -4.676  0.00  0.00    +0.033 C 
ATOM      6  C   UNL     1       1.961   6.420  -5.473  0.00  0.00    +0.005 C 
ATOM      7  C   UNL     1       2.832   6.281  -6.908  0.00  0.00    +0.004 C 
ATOM      8  C   UNL     1       1.523   5.420  -7.485  0.00  0.00    +0.038 C 
ATOM      9  C   UNL     1       2.009   3.852  -7.009  0.00  0.00    +0.153 C 
ATOM     10  C   UNL     1       1.949   4.071  -5.392  0.00  0.00    +0.036 C 
ATOM     11  O   UNL     1       3.500   4.053  -7.102  0.00  0.00    -0.223 OA
ATOM     12  C   UNL     1       2.031   5.320  -9.004  0.00  0.00    +0.036 C 
ATOM     13  C   UNL     1       1.624   6.675  -9.514  0.00  0.00    -0.038 C 
ATOM     14  C   UNL     1       1.269   6.847 -10.777  0.00  0.00    +0.034 C 
ATOM     15  C   UNL     1       0.746   5.723 -11.536  0.00  0.00    +0.195 C 
ATOM     16  C   UNL     1       0.711   4.426 -10.873  0.00  0.00    +0.038 C 
ATOM     17  O   UNL     1      -0.091   5.982 -12.456  0.00  0.00    -0.287 OA
ATOM     18  C   UNL     1       2.454   7.770  -8.913  0.00  0.00    +0.022 C 
ATOM     19  C   UNL     1       3.467   5.270  -9.173  0.00  0.00    +0.009 C 
ATOM     20  C   UNL     1       1.218   4.295  -9.659  0.00  0.00    -0.020 C 
ATOM     21  C   UNL     1       2.241   7.676  -7.438  0.00  0.00    +0.004 C 
ATOM     22  C   UNL     1       2.706   5.130  -4.853  0.00  0.00    +0.034 C 
ATOM     23  C   UNL     1       4.179   5.257  -5.162  0.00  0.00    +0.003 C 
ATOM     24  O   UNL     1       0.963   6.941  -3.655  0.00  0.00    -0.330 OA
ENDROOT
BRANCH   3  25
ATOM     25  C   UNL     1       3.922   5.292  -2.683  0.00  0.00    +0.210 C 
ATOM     26  O   UNL     1       4.579   6.323  -2.493  0.00  0.00    -0.291 OA
BRANCH  25  27
ATOM     27  C   UNL     1       4.058   4.464  -1.435  0.00  0.00    +0.248 C 
ATOM     28  O   UNL     1       4.212   5.192  -0.293  0.00  0.00    -0.212 OA
ENDBRANCH  25  27
ENDBRANCH   3  25
BRANCH   1  29
ATOM     29  C   UNL     1       0.302   6.473  -1.523  0.00  0.00    +0.061 C 
BRANCH  29  31
ATOM     30  C   UNL     1      -1.577   5.763  -1.406  0.00  0.00    +0.000 C 
ATOM     31  C   UNL     1      -0.947   5.780  -0.991  0.00  0.00    +0.005 C 
ENDBRANCH  29  31
ENDBRANCH   1  29
TORSDOF 4
ENDMDL
MODEL 9
REMARK VINA RESULT:      -6.5      2.934      8.816
REMARK  Name = 
REMARK  4 active torsions:
REMARK  status: ('A' for Active; 'I' for Inactive)
REMARK    1  A    between atoms: C_2  and  C_3
REMARK    2  A    between atoms: C_3  and  C_4
REMARK    3  A    between atoms: C_26  and  C_27
REMARK    4  A    between atoms: C_27  and  C_29
REMARK                            x       y       z     vdW  Elec       q    Type
REMARK                         _______ _______ _______ _____ _____    ______ ____
ROOT
ATOM      1  C   UNL     1       3.081   7.374  -7.354  0.00  0.00    +0.235 C 
ATOM      2  O   UNL     1       2.032   6.374  -6.912  0.00  0.00    -0.326 OA
ATOM      3  C   UNL     1       1.867   5.480  -7.810  0.00  0.00    +0.173 C 
ATOM      4  C   UNL     1       3.459   5.085  -7.787  0.00  0.00    +0.149 C 
ATOM      5  C   UNL     1       3.440   4.497  -9.340  0.00  0.00    +0.033 C 
ATOM      6  C   UNL     1       2.827   5.863  -9.949  0.00  0.00    +0.005 C 
ATOM      7  C   UNL     1       2.182   5.229 -11.370  0.00  0.00    +0.004 C 
ATOM      8  C   UNL     1       1.810   6.807 -11.771  0.00  0.00    +0.038 C 
ATOM      9  C   UNL     1       0.252   6.895 -11.073  0.00  0.00    +0.153 C 
ATOM     10  C   UNL     1       0.689   6.735  -9.508  0.00  0.00    +0.036 C 
ATOM     11  O   UNL     1      -0.138   5.449 -11.238  0.00  0.00    -0.223 OA
ATOM     12  C   UNL     1       1.328   6.501 -13.270  0.00  0.00    +0.036 C 
ATOM     13  C   UNL     1       2.656   6.420 -13.970  0.00  0.00    -0.038 C 
ATOM     14  C   UNL     1       2.781   6.791 -15.233  0.00  0.00    +0.034 C 
ATOM     15  C   UNL     1       1.849   7.754 -15.797  0.00  0.00    +0.195 C 
ATOM     16  C   UNL     1       0.760   8.209 -14.941  0.00  0.00    +0.038 C 
ATOM     17  O   UNL     1       2.280   8.511 -16.721  0.00  0.00    -0.287 OA
ATOM     18  C   UNL     1       3.426   5.198 -13.568  0.00  0.00    +0.022 C 
ATOM     19  C   UNL     1       0.717   5.204 -13.469  0.00  0.00    +0.009 C 
ATOM     20  C   UNL     1       0.609   7.687 -13.736  0.00  0.00    -0.020 C 
ATOM     21  C   UNL     1       3.614   5.305 -12.090  0.00  0.00    +0.004 C 
ATOM     22  C   UNL     1       1.445   5.598  -9.160  0.00  0.00    +0.034 C 
ATOM     23  C   UNL     1       0.965   4.214  -9.526  0.00  0.00    +0.003 C 
ATOM     24  O   UNL     1       3.920   6.443  -8.205  0.00  0.00    -0.330 OA
ENDROOT
BRANCH   3  25
ATOM     25  C   UNL     1       1.420   4.230  -7.075  0.00  0.00    +0.210 C 
ATOM     26  O   UNL     1       2.260   3.442  -6.626  0.00  0.00    -0.291 OA
BRANCH  25  27
ATOM     27  C   UNL     1       0.293   4.266  -6.080  0.00  0.00    +0.248 C 
ATOM     28  O   UNL     1      -0.822   4.915  -6.519  0.00  0.00    -0.212 OA
ENDBRANCH  25  27
ENDBRANCH   3  25
BRANCH   1  29
ATOM     29  C   UNL     1       4.022   7.049  -6.008  0.00  0.00    +0.061 C 
BRANCH  29  31
ATOM     30  C   UNL     1       3.109   7.141  -4.218  0.00  0.00    +0.000 C 
ATOM     31  C   UNL     1       2.928   7.141  -4.951  0.00  0.00    +0.005 C 
ENDBRANCH  29  31
ENDBRANCH   1  29
TORSDOF 4
ENDMDL
