MODEL 1
REMARK VINA RESULT:      -3.1      0.000      0.000
REMARK  Name = 
REMARK  2 active torsions:
REMARK  status: ('A' for Active; 'I' for Inactive)
REMARK    1  A    between atoms: C_2  and  C_3
REMARK    2  A    between atoms: C_3  and  C_5
REMARK                            x       y       z     vdW  Elec       q    Type
REMARK                         _______ _______ _______ _____ _____    ______ ____
ROOT
ATOM      1  C   UNL     1       7.790   6.393 -11.107  0.00  0.00    +0.217 C 
ATOM      2  O   UNL     1       7.692   5.569 -10.006  0.00  0.00    -0.217 OA
ENDROOT
BRANCH   1   4
ATOM      3  O   UNL     1       7.851   4.601 -12.714  0.00  0.00    -0.217 OA
ATOM      4  C   UNL     1       8.475   5.786 -12.290  0.00  0.00    +0.217 C 
ENDBRANCH   1   4
BRANCH   1   5
ATOM      5  C   UNL     1       6.479   7.044 -11.405  0.00  0.00    +0.217 C 
ATOM      6  O   UNL     1       6.533   8.428 -11.470  0.00  0.00    -0.217 OA
ENDBRANCH   1   5
TORSDOF 2
ENDMDL
MODEL 2
REMARK VINA RESULT:      -3.1      0.726      2.884
REMARK  Name = 
REMARK  2 active torsions:
REMARK  status: ('A' for Active; 'I' for Inactive)
REMARK    1  A    between atoms: C_2  and  C_3
REMARK    2  A    between atoms: C_3  and  C_5
REMARK                            x       y       z     vdW  Elec       q    Type
REMARK                         _______ _______ _______ _____ _____    ______ ____
ROOT
ATOM      1  C   UNL     1       7.259   6.165 -10.918  0.00  0.00    +0.217 C 
ATOM      2  O   UNL     1       7.583   5.969  -9.592  0.00  0.00    -0.217 OA
ENDROOT
BRANCH   1   4
ATOM      3  O   UNL     1       5.502   7.812 -10.943  0.00  0.00    -0.217 OA
ATOM      4  C   UNL     1       6.846   7.561 -11.265  0.00  0.00    +0.217 C 
ENDBRANCH   1   4
BRANCH   1   5
ATOM      5  C   UNL     1       8.296   5.574 -11.816  0.00  0.00    +0.217 C 
ATOM      6  O   UNL     1       7.814   4.599 -12.676  0.00  0.00    -0.217 OA
ENDBRANCH   1   5
TORSDOF 2
ENDMDL
MODEL 3
REMARK VINA RESULT:      -3.1      1.653      2.394
REMARK  Name = 
REMARK  2 active torsions:
REMARK  status: ('A' for Active; 'I' for Inactive)
REMARK    1  A    between atoms: C_2  and  C_3
REMARK    2  A    between atoms: C_3  and  C_5
REMARK                            x       y       z     vdW  Elec       q    Type
REMARK                         _______ _______ _______ _____ _____    ______ ____
ROOT
ATOM      1  C   UNL     1       7.078   5.521 -12.071  0.00  0.00    +0.217 C 
ATOM      2  O   UNL     1       7.824   4.546 -12.699  0.00  0.00    -0.217 OA
ENDROOT
BRANCH   1   4
ATOM      3  O   UNL     1       5.272   4.697 -13.433  0.00  0.00    -0.217 OA
ATOM      4  C   UNL     1       5.599   5.405 -12.265  0.00  0.00    +0.217 C 
ENDBRANCH   1   4
BRANCH   1   5
ATOM      5  C   UNL     1       7.515   5.699 -10.653  0.00  0.00    +0.217 C 
ATOM      6  O   UNL     1       7.736   7.018 -10.288  0.00  0.00    -0.217 OA
ENDBRANCH   1   5
TORSDOF 2
ENDMDL
MODEL 4
REMARK VINA RESULT:      -3.1      1.632      2.913
REMARK  Name = 
REMARK  2 active torsions:
REMARK  status: ('A' for Active; 'I' for Inactive)
REMARK    1  A    between atoms: C_2  and  C_3
REMARK    2  A    between atoms: C_3  and  C_5
REMARK                            x       y       z     vdW  Elec       q    Type
REMARK                         _______ _______ _______ _____ _____    ______ ____
ROOT
ATOM      1  C   UNL     1       6.916   5.393 -11.958  0.00  0.00    +0.217 C 
ATOM      2  O   UNL     1       7.641   4.633 -12.852  0.00  0.00    -0.217 OA
ENDROOT
BRANCH   1   4
ATOM      3  O   UNL     1       6.558   7.771 -11.825  0.00  0.00    -0.217 OA
ATOM      4  C   UNL     1       7.497   6.739 -11.661  0.00  0.00    +0.217 C 
ENDBRANCH   1   4
BRANCH   1   5
ATOM      5  C   UNL     1       5.465   5.398 -12.313  0.00  0.00    +0.217 C 
ATOM      6  O   UNL     1       5.151   4.638 -13.429  0.00  0.00    -0.217 OA
ENDBRANCH   1   5
TORSDOF 2
ENDMDL
MODEL 5
REMARK VINA RESULT:      -3.1      1.162      2.122
REMARK  Name = 
REMARK  2 active torsions:
REMARK  status: ('A' for Active; 'I' for Inactive)
REMARK    1  A    between atoms: C_2  and  C_3
REMARK    2  A    between atoms: C_3  and  C_5
REMARK                            x       y       z     vdW  Elec       q    Type
REMARK                         _______ _______ _______ _____ _____    ______ ____
ROOT
ATOM      1  C   UNL     1       7.330   6.158 -10.995  0.00  0.00    +0.217 C 
ATOM      2  O   UNL     1       7.195   7.525 -11.119  0.00  0.00    -0.217 OA
ENDROOT
BRANCH   1   4
ATOM      3  O   UNL     1       7.793   4.616 -12.786  0.00  0.00    -0.217 OA
ATOM      4  C   UNL     1       8.356   5.542 -11.893  0.00  0.00    +0.217 C 
ENDBRANCH   1   4
BRANCH   1   5
ATOM      5  C   UNL     1       7.429   5.759  -9.560  0.00  0.00    +0.217 C 
ATOM      6  O   UNL     1       6.213   5.447  -8.971  0.00  0.00    -0.217 OA
ENDBRANCH   1   5
TORSDOF 2
ENDMDL
MODEL 6
REMARK VINA RESULT:      -3.1      0.800      2.940
REMARK  Name = 
REMARK  2 active torsions:
REMARK  status: ('A' for Active; 'I' for Inactive)
REMARK    1  A    between atoms: C_2  and  C_3
REMARK    2  A    between atoms: C_3  and  C_5
REMARK                            x       y       z     vdW  Elec       q    Type
REMARK                         _______ _______ _______ _____ _____    ______ ____
ROOT
ATOM      1  C   UNL     1       7.510   6.638 -11.495  0.00  0.00    +0.217 C 
ATOM      2  O   UNL     1       6.717   7.510 -12.212  0.00  0.00    -0.217 OA
ENDROOT
BRANCH   1   4
ATOM      3  O   UNL     1       7.656   5.440  -9.411  0.00  0.00    -0.217 OA
ATOM      4  C   UNL     1       6.793   5.860 -10.437  0.00  0.00    +0.217 C 
ENDBRANCH   1   4
BRANCH   1   5
ATOM      5  C   UNL     1       8.365   5.820 -12.406  0.00  0.00    +0.217 C 
ATOM      6  O   UNL     1       7.822   4.590 -12.743  0.00  0.00    -0.217 OA
ENDBRANCH   1   5
TORSDOF 2
ENDMDL
MODEL 7
REMARK VINA RESULT:      -3.0     12.291     12.966
REMARK  Name = 
REMARK  2 active torsions:
REMARK  status: ('A' for Active; 'I' for Inactive)
REMARK    1  A    between atoms: C_2  and  C_3
REMARK    2  A    between atoms: C_3  and  C_5
REMARK                            x       y       z     vdW  Elec       q    Type
REMARK                         _______ _______ _______ _____ _____    ______ ____
ROOT
ATOM      1  C   UNL     1      -1.992   5.456  -3.332  0.00  0.00    +0.217 C 
ATOM      2  O   UNL     1      -2.769   4.703  -2.477  0.00  0.00    -0.217 OA
ENDROOT
BRANCH   1   4
ATOM      3  O   UNL     1      -2.120   7.811  -2.843  0.00  0.00    -0.217 OA
ATOM      4  C   UNL     1      -2.567   6.789  -3.697  0.00  0.00    +0.217 C 
ENDBRANCH   1   4
BRANCH   1   5
ATOM      5  C   UNL     1      -0.570   5.488  -2.874  0.00  0.00    +0.217 C 
ATOM      6  O   UNL     1      -0.339   4.805  -1.691  0.00  0.00    -0.217 OA
ENDBRANCH   1   5
TORSDOF 2
ENDMDL
MODEL 8
REMARK VINA RESULT:      -3.0     11.644     12.491
REMARK  Name = 
REMARK  2 active torsions:
REMARK  status: ('A' for Active; 'I' for Inactive)
REMARK    1  A    between atoms: C_2  and  C_3
REMARK    2  A    between atoms: C_3  and  C_5
REMARK                            x       y       z     vdW  Elec       q    Type
REMARK                         _______ _______ _______ _____ _____    ______ ____
ROOT
ATOM      1  C   UNL     1      -2.350   5.881  -4.435  0.00  0.00    +0.217 C 
ATOM      2  O   UNL     1      -1.032   5.508  -4.278  0.00  0.00    -0.217 OA
ENDROOT
BRANCH   1   4
ATOM      3  O   UNL     1      -2.652   4.749  -2.331  0.00  0.00    -0.217 OA
ATOM      4  C   UNL     1      -3.211   5.673  -3.229  0.00  0.00    +0.217 C 
ENDBRANCH   1   4
BRANCH   1   5
ATOM      5  C   UNL     1      -2.453   7.236  -5.055  0.00  0.00    +0.217 C 
ATOM      6  O   UNL     1      -1.899   8.253  -4.293  0.00  0.00    -0.217 OA
ENDBRANCH   1   5
TORSDOF 2
ENDMDL
MODEL 9
REMARK VINA RESULT:      -3.0     11.987     12.456
REMARK  Name = 
REMARK  2 active torsions:
REMARK  status: ('A' for Active; 'I' for Inactive)
REMARK    1  A    between atoms: C_2  and  C_3
REMARK    2  A    between atoms: C_3  and  C_5
REMARK                            x       y       z     vdW  Elec       q    Type
REMARK                         _______ _______ _______ _____ _____    ______ ____
ROOT
ATOM      1  C   UNL     1      -1.974   5.613  -3.214  0.00  0.00    +0.217 C 
ATOM      2  O   UNL     1      -2.800   4.678  -2.628  0.00  0.00    -0.217 OA
ENDROOT
BRANCH   1   4
ATOM      3  O   UNL     1      -0.317   4.756  -1.691  0.00  0.00    -0.217 OA
ATOM      4  C   UNL     1      -0.522   5.462  -2.887  0.00  0.00    +0.217 C 
ENDBRANCH   1   4
BRANCH   1   5
ATOM      5  C   UNL     1      -2.280   5.761  -4.668  0.00  0.00    +0.217 C 
ATOM      6  O   UNL     1      -2.574   7.059  -5.058  0.00  0.00    -0.217 OA
ENDBRANCH   1   5
TORSDOF 2
ENDMDL
