MODEL 1
REMARK VINA RESULT:      -9.6      0.000      0.000
REMARK  Name = 
REMARK  12 active torsions:
REMARK  status: ('A' for Active; 'I' for Inactive)
REMARK    1  A    between atoms: C_5  and  N_6
REMARK    2  A    between atoms: N_9  and  C_10
REMARK    3  A    between atoms: C_10  and  C_11
REMARK    4  A    between atoms: N_14  and  C_15
REMARK    5  A    between atoms: C_15  and  C_16
REMARK    6  A    between atoms: CA_17  and  C_18
REMARK    7  A    between atoms: CA_24  and  N_25
REMARK    8  A    between atoms: C_26  and  C_28
REMARK    9  A    between atoms: C_28  and  C_37
REMARK   10  A    between atoms: N_29  and  O_30
REMARK   11  A    between atoms: O_30  and  C_31
REMARK   12  A    between atoms: C_31  and  C_34
REMARK                            x       y       z     vdW  Elec       q    Type
REMARK                         _______ _______ _______ _____ _____    ______ ____
ROOT
ATOM      1  C   UNL     1       3.619   5.803  -6.545  0.00  0.00    +0.067 C 
ATOM      2  C   UNL     1       4.689   5.363  -7.456  0.00  0.00    +0.090 C 
ATOM      3  S   UNL     1       4.158   4.691  -9.018  0.00  0.00    -0.114 S 
ATOM      4  C   UNL     1       2.413   4.052  -8.598  0.00  0.00    +0.157 C 
ATOM      5  N   UNL     1       1.880   5.391  -8.110  0.00  0.00    -0.242 N 
ATOM      6  C   UNL     1       0.810   5.520  -9.011  0.00  0.00    +0.253 C 
ATOM      7  O   UNL     1      -0.427   5.796  -8.972  0.00  0.00    -0.273 OA
ATOM      8  CA  UNL     1       1.493   4.410  -9.980  0.00  0.00    +0.201 C 
ATOM      9  CA  UNL     1       2.316   5.624  -6.769  0.00  0.00    +0.134 C 
ENDROOT
BRANCH   9  10
ATOM     10  C   UNL     1       1.369   5.923  -5.680  0.00  0.00    +0.401 C 
ATOM     11  OXT UNL     1       0.519   7.011  -5.911  0.00  0.00    -0.239 OA
ATOM     12  O   UNL     1       0.818   4.991  -5.015  0.00  0.00    -0.239 OA
ENDBRANCH   9  10
BRANCH   8  13
ATOM     13  N   UNL     1       2.489   5.479 -10.634  0.00  0.00    -0.190 NA
ATOM     14  C   UNL     1       1.934   5.903 -11.885  0.00  0.00    +0.289 C 
ATOM     15  O   UNL     1       0.919   6.636 -11.668  0.00  0.00    -0.266 OA
BRANCH  14  16
ATOM     16  C   UNL     1       2.610   5.841 -13.167  0.00  0.00    +0.210 C 
ATOM     17  N   UNL     1       3.910   5.779 -13.116  0.00  0.00    -0.075 NA
BRANCH  16  18
ATOM     18  C   UNL     1       2.012   6.337 -14.423  0.00  0.00    +0.197 A 
ATOM     19  N   UNL     1       2.604   7.000 -15.412  0.00  0.00    -0.199 NA
ATOM     20  C   UNL     1       1.782   7.916 -15.983  0.00  0.00    +0.219 A 
ATOM     21  N   UNL     1       2.221   8.948 -16.879  0.00  0.00    -0.098 NA
ATOM     22  S   UNL     1       0.328   7.000 -15.956  0.00  0.00    +0.053 S 
ATOM     23  N   UNL     1       0.800   5.852 -14.798  0.00  0.00    -0.185 NA
ENDBRANCH  16  18
BRANCH  17  24
ATOM     24  O   UNL     1       4.627   6.212 -12.018  0.00  0.00    -0.374 OA
BRANCH  24  25
ATOM     25  C   UNL     1       5.976   6.585 -12.032  0.00  0.00    +0.253 C 
ATOM     26  C   UNL     1       6.213   7.783 -11.160  0.00  0.00    +0.058 C 
ATOM     27  C   UNL     1       6.305   6.918 -13.484  0.00  0.00    +0.058 C 
BRANCH  25  28
ATOM     28  C   UNL     1       6.908   5.522 -11.614  0.00  0.00    +0.403 C 
ATOM     29  O   UNL     1       7.452   4.680 -12.587  0.00  0.00    -0.242 OA
ATOM     30  O   UNL     1       7.491   5.557 -10.490  0.00  0.00    -0.242 OA
ENDBRANCH  25  28
ENDBRANCH  24  25
ENDBRANCH  17  24
ENDBRANCH  14  16
ENDBRANCH   8  13
BRANCH   1  31
ATOM     31  C   UNL     1       4.042   6.892  -5.607  0.00  0.00    +0.374 C 
BRANCH  31  34
ATOM     32  C   UNL     1       5.137   4.485  -4.073  0.00  0.00    +0.204 C 
ATOM     33  N   UNL     1       4.343   5.531  -3.577  0.00  0.00    -0.115 N 
ATOM     34  N   UNL     1       3.805   6.564  -4.228  0.00  0.00    -0.070 N 
ATOM     35  C   UNL     1       3.716   7.514  -3.259  0.00  0.00    +0.335 A 
ATOM     36  C   UNL     1       3.260   6.791  -2.162  0.00  0.00    +0.185 A 
ATOM     37  C   UNL     1       3.865   5.548  -2.310  0.00  0.00    +0.226 A 
ATOM     38  N   UNL     1       4.164   4.639  -1.242  0.00  0.00    -0.102 NA
BRANCH  36  39
ATOM     39  N   UNL     1       2.437   7.228  -1.085  0.00  0.00    -0.152 NA
ATOM     40  C   UNL     1       1.149   6.709  -0.834  0.00  0.00    +0.344 C 
ATOM     41  N   UNL     1       0.547   6.662   0.432  0.00  0.00    -0.185 NA
ATOM     42  O   UNL     1       0.584   6.089  -1.775  0.00  0.00    -0.249 OA
BRANCH  41  43
ATOM     43  C   UNL     1      -0.898   6.730   0.493  0.00  0.00    +0.137 C 
BRANCH  43  44
ATOM     44  C   UNL     1      -1.440   8.026  -0.045  0.00  0.00    +0.133 C 
ATOM     45  N   UNL     1      -1.096   9.113   0.852  0.00  0.00    -0.129 NA
ENDBRANCH  43  44
ENDBRANCH  41  43
ENDBRANCH  36  39
ENDBRANCH  31  34
ENDBRANCH   1  31
TORSDOF 12
ENDMDL
MODEL 2
REMARK VINA RESULT:      -9.1      2.865     11.080
REMARK  Name = 
REMARK  12 active torsions:
REMARK  status: ('A' for Active; 'I' for Inactive)
REMARK    1  A    between atoms: C_5  and  N_6
REMARK    2  A    between atoms: N_9  and  C_10
REMARK    3  A    between atoms: C_10  and  C_11
REMARK    4  A    between atoms: N_14  and  C_15
REMARK    5  A    between atoms: C_15  and  C_16
REMARK    6  A    between atoms: CA_17  and  C_18
REMARK    7  A    between atoms: CA_24  and  N_25
REMARK    8  A    between atoms: C_26  and  C_28
REMARK    9  A    between atoms: C_28  and  C_37
REMARK   10  A    between atoms: N_29  and  O_30
REMARK   11  A    between atoms: O_30  and  C_31
REMARK   12  A    between atoms: C_31  and  C_34
REMARK                            x       y       z     vdW  Elec       q    Type
REMARK                         _______ _______ _______ _____ _____    ______ ____
ROOT
ATOM      1  C   UNL     1       1.366   5.494  -8.573  0.00  0.00    +0.067 C 
ATOM      2  C   UNL     1       0.216   5.128  -7.729  0.00  0.00    +0.090 C 
ATOM      3  S   UNL     1       0.594   4.674  -6.049  0.00  0.00    -0.114 S 
ATOM      4  C   UNL     1       2.390   4.056  -6.203  0.00  0.00    +0.157 C 
ATOM      5  N   UNL     1       2.938   5.345  -6.798  0.00  0.00    -0.242 N 
ATOM      6  C   UNL     1       3.901   5.625  -5.815  0.00  0.00    +0.253 C 
ATOM      7  O   UNL     1       5.128   5.941  -5.760  0.00  0.00    -0.273 OA
ATOM      8  CA  UNL     1       3.147   4.615  -4.790  0.00  0.00    +0.201 C 
ATOM      9  CA  UNL     1       2.642   5.395  -8.196  0.00  0.00    +0.134 C 
ENDROOT
BRANCH   9  10
ATOM     10  C   UNL     1       3.692   5.594  -9.210  0.00  0.00    +0.401 C 
ATOM     11  OXT UNL     1       4.430   6.776  -9.079  0.00  0.00    -0.239 OA
ATOM     12  O   UNL     1       4.383   4.618  -9.640  0.00  0.00    -0.239 OA
ENDBRANCH   9  10
BRANCH   8  13
ATOM     13  N   UNL     1       2.060   5.718  -4.382  0.00  0.00    -0.190 NA
ATOM     14  C   UNL     1       2.445   6.284  -3.123  0.00  0.00    +0.289 C 
ATOM     15  O   UNL     1       3.468   7.019  -3.289  0.00  0.00    -0.266 OA
BRANCH  14  16
ATOM     16  C   UNL     1       1.614   6.335  -1.936  0.00  0.00    +0.210 C 
ATOM     17  N   UNL     1       0.330   6.251  -2.143  0.00  0.00    -0.075 NA
BRANCH  16  18
ATOM     18  C   UNL     1       2.048   6.957  -0.669  0.00  0.00    +0.197 A 
ATOM     19  N   UNL     1       1.358   7.765   0.132  0.00  0.00    -0.199 NA
ATOM     20  C   UNL     1       2.142   8.707   0.712  0.00  0.00    +0.219 A 
ATOM     21  N   UNL     1       1.641   9.862   1.402  0.00  0.00    -0.098 NA
ATOM     22  S   UNL     1       3.523   7.731   1.020  0.00  0.00    +0.053 S 
ATOM     23  N   UNL     1       3.157   6.469  -0.056  0.00  0.00    -0.185 NA
ENDBRANCH  16  18
BRANCH  17  24
ATOM     24  O   UNL     1      -0.244   6.567  -3.359  0.00  0.00    -0.374 OA
BRANCH  24  25
ATOM     25  C   UNL     1      -1.613   6.752  -3.580  0.00  0.00    +0.253 C 
ATOM     26  C   UNL     1      -1.852   7.674  -4.740  0.00  0.00    +0.058 C 
ATOM     27  C   UNL     1      -2.168   7.365  -2.297  0.00  0.00    +0.058 C 
BRANCH  25  28
ATOM     28  C   UNL     1      -2.366   5.508  -3.820  0.00  0.00    +0.403 C 
ATOM     29  O   UNL     1      -2.784   4.749  -2.724  0.00  0.00    -0.242 OA
ATOM     30  O   UNL     1      -2.937   5.283  -4.928  0.00  0.00    -0.242 OA
ENDBRANCH  25  28
ENDBRANCH  24  25
ENDBRANCH  17  24
ENDBRANCH  14  16
ENDBRANCH   8  13
BRANCH   1  31
ATOM     31  C   UNL     1       1.019   6.443  -9.679  0.00  0.00    +0.374 C 
BRANCH  31  34
ATOM     32  C   UNL     1      -0.546   4.434 -11.371  0.00  0.00    +0.204 C 
ATOM     33  N   UNL     1       0.641   5.103 -11.710  0.00  0.00    -0.115 N 
ATOM     34  N   UNL     1       1.376   5.942 -10.977  0.00  0.00    -0.070 N 
ATOM     35  C   UNL     1       1.969   6.721 -11.921  0.00  0.00    +0.335 A 
ATOM     36  C   UNL     1       2.337   5.799 -12.894  0.00  0.00    +0.185 A 
ATOM     37  C   UNL     1       1.320   4.852 -12.855  0.00  0.00    +0.226 A 
ATOM     38  N   UNL     1       0.924   4.014 -13.949  0.00  0.00    -0.102 NA
BRANCH  36  39
ATOM     39  N   UNL     1       3.445   5.839 -13.788  0.00  0.00    -0.152 NA
ATOM     40  C   UNL     1       4.764   6.125 -13.377  0.00  0.00    +0.344 C 
ATOM     41  N   UNL     1       5.915   5.658 -14.027  0.00  0.00    -0.185 NA
ATOM     42  O   UNL     1       4.909   6.683 -12.255  0.00  0.00    -0.249 OA
BRANCH  41  43
ATOM     43  C   UNL     1       7.110   6.473 -13.947  0.00  0.00    +0.137 C 
BRANCH  43  44
ATOM     44  C   UNL     1       8.158   5.876 -13.048  0.00  0.00    +0.133 C 
ATOM     45  N   UNL     1       7.726   4.568 -12.590  0.00  0.00    -0.129 NA
ENDBRANCH  43  44
ENDBRANCH  41  43
ENDBRANCH  36  39
ENDBRANCH  31  34
ENDBRANCH   1  31
TORSDOF 12
ENDMDL
MODEL 3
REMARK VINA RESULT:      -9.0      2.862      4.563
REMARK  Name = 
REMARK  12 active torsions:
REMARK  status: ('A' for Active; 'I' for Inactive)
REMARK    1  A    between atoms: C_5  and  N_6
REMARK    2  A    between atoms: N_9  and  C_10
REMARK    3  A    between atoms: C_10  and  C_11
REMARK    4  A    between atoms: N_14  and  C_15
REMARK    5  A    between atoms: C_15  and  C_16
REMARK    6  A    between atoms: CA_17  and  C_18
REMARK    7  A    between atoms: CA_24  and  N_25
REMARK    8  A    between atoms: C_26  and  C_28
REMARK    9  A    between atoms: C_28  and  C_37
REMARK   10  A    between atoms: N_29  and  O_30
REMARK   11  A    between atoms: O_30  and  C_31
REMARK   12  A    between atoms: C_31  and  C_34
REMARK                            x       y       z     vdW  Elec       q    Type
REMARK                         _______ _______ _______ _____ _____    ______ ____
ROOT
ATOM      1  C   UNL     1       0.984   6.346  -4.127  0.00  0.00    +0.067 C 
ATOM      2  C   UNL     1       0.440   6.795  -5.420  0.00  0.00    +0.090 C 
ATOM      3  S   UNL     1       1.611   6.936  -6.754  0.00  0.00    -0.114 S 
ATOM      4  C   UNL     1       3.243   7.231  -5.816  0.00  0.00    +0.157 C 
ATOM      5  N   UNL     1       3.167   5.960  -4.984  0.00  0.00    -0.242 N 
ATOM      6  C   UNL     1       4.374   5.375  -5.401  0.00  0.00    +0.253 C 
ATOM      7  O   UNL     1       5.393   4.837  -4.872  0.00  0.00    -0.273 OA
ATOM      8  CA  UNL     1       4.398   6.353  -6.698  0.00  0.00    +0.201 C 
ATOM      9  CA  UNL     1       2.282   6.159  -3.879  0.00  0.00    +0.134 C 
ENDROOT
BRANCH   9  10
ATOM     10  C   UNL     1       2.702   5.914  -2.488  0.00  0.00    +0.401 C 
ATOM     11  OXT UNL     1       3.245   4.647  -2.243  0.00  0.00    -0.239 OA
ATOM     12  O   UNL     1       3.243   6.832  -1.794  0.00  0.00    -0.239 OA
ENDBRANCH   9  10
BRANCH   8  13
ATOM     13  N   UNL     1       3.385   5.421  -7.516  0.00  0.00    -0.190 NA
ATOM     14  C   UNL     1       4.009   5.057  -8.754  0.00  0.00    +0.289 C 
ATOM     15  O   UNL     1       4.947   4.232  -8.524  0.00  0.00    -0.266 OA
BRANCH  14  16
ATOM     16  C   UNL     1       3.447   5.275 -10.073  0.00  0.00    +0.210 C 
ATOM     17  N   UNL     1       4.260   5.778 -10.957  0.00  0.00    -0.075 NA
BRANCH  16  18
ATOM     18  C   UNL     1       2.000   5.449 -10.319  0.00  0.00    +0.197 A 
ATOM     19  N   UNL     1       1.406   6.174 -11.262  0.00  0.00    -0.199 NA
ATOM     20  C   UNL     1       0.250   6.736 -10.828  0.00  0.00    +0.219 A 
ATOM     21  N   UNL     1      -0.457   7.771 -11.527  0.00  0.00    -0.098 NA
ATOM     22  S   UNL     1      -0.332   5.419  -9.888  0.00  0.00    +0.053 S 
ATOM     23  N   UNL     1       1.136   4.580  -9.733  0.00  0.00    -0.185 NA
ENDBRANCH  16  18
BRANCH  17  24
ATOM     24  O   UNL     1       5.388   6.492 -10.599  0.00  0.00    -0.374 OA
BRANCH  24  25
ATOM     25  C   UNL     1       6.590   6.509 -11.315  0.00  0.00    +0.253 C 
ATOM     26  C   UNL     1       7.765   6.335 -10.397  0.00  0.00    +0.058 C 
ATOM     27  C   UNL     1       6.655   7.871 -11.999  0.00  0.00    +0.058 C 
BRANCH  25  28
ATOM     28  C   UNL     1       6.683   5.492 -12.377  0.00  0.00    +0.403 C 
ATOM     29  O   UNL     1       6.020   5.714 -13.586  0.00  0.00    -0.242 OA
ATOM     30  O   UNL     1       7.596   4.612 -12.374  0.00  0.00    -0.242 OA
ENDBRANCH  25  28
ENDBRANCH  24  25
ENDBRANCH  17  24
ENDBRANCH  14  16
ENDBRANCH   8  13
BRANCH   1  31
ATOM     31  C   UNL     1      -0.019   5.640  -3.268  0.00  0.00    +0.374 C 
BRANCH  31  34
ATOM     32  C   UNL     1      -2.369   7.433  -2.491  0.00  0.00    +0.204 C 
ATOM     33  N   UNL     1      -1.296   7.026  -1.684  0.00  0.00    -0.115 N 
ATOM     34  N   UNL     1      -0.229   6.291  -2.005  0.00  0.00    -0.070 N 
ATOM     35  C   UNL     1       0.098   5.707  -0.821  0.00  0.00    +0.335 A 
ATOM     36  C   UNL     1      -0.050   6.749   0.087  0.00  0.00    +0.185 A 
ATOM     37  C   UNL     1      -1.117   7.482  -0.421  0.00  0.00    +0.226 A 
ATOM     38  N   UNL     1      -2.000   8.306   0.353  0.00  0.00    -0.102 NA
BRANCH  36  39
ATOM     39  N   UNL     1       0.658   6.983   1.301  0.00  0.00    -0.152 NA
ATOM     40  C   UNL     1       1.499   8.097   1.507  0.00  0.00    +0.344 C 
ATOM     41  N   UNL     1       1.759   8.672   2.759  0.00  0.00    -0.185 NA
ATOM     42  O   UNL     1       1.894   8.717   0.482  0.00  0.00    -0.249 OA
BRANCH  41  43
ATOM     43  C   UNL     1       3.038   9.325   2.946  0.00  0.00    +0.137 C 
BRANCH  43  44
ATOM     44  C   UNL     1       4.142   8.353   3.263  0.00  0.00    +0.133 C 
ATOM     45  N   UNL     1       3.577   7.109   3.750  0.00  0.00    -0.129 NA
ENDBRANCH  43  44
ENDBRANCH  41  43
ENDBRANCH  36  39
ENDBRANCH  31  34
ENDBRANCH   1  31
TORSDOF 12
ENDMDL
MODEL 4
REMARK VINA RESULT:      -8.8      2.920     11.459
REMARK  Name = 
REMARK  12 active torsions:
REMARK  status: ('A' for Active; 'I' for Inactive)
REMARK    1  A    between atoms: C_5  and  N_6
REMARK    2  A    between atoms: N_9  and  C_10
REMARK    3  A    between atoms: C_10  and  C_11
REMARK    4  A    between atoms: N_14  and  C_15
REMARK    5  A    between atoms: C_15  and  C_16
REMARK    6  A    between atoms: CA_17  and  C_18
REMARK    7  A    between atoms: CA_24  and  N_25
REMARK    8  A    between atoms: C_26  and  C_28
REMARK    9  A    between atoms: C_28  and  C_37
REMARK   10  A    between atoms: N_29  and  O_30
REMARK   11  A    between atoms: O_30  and  C_31
REMARK   12  A    between atoms: C_31  and  C_34
REMARK                            x       y       z     vdW  Elec       q    Type
REMARK                         _______ _______ _______ _____ _____    ______ ____
ROOT
ATOM      1  C   UNL     1       0.950   5.685  -8.753  0.00  0.00    +0.067 C 
ATOM      2  C   UNL     1      -0.118   5.236  -7.844  0.00  0.00    +0.090 C 
ATOM      3  S   UNL     1       0.407   4.690  -6.232  0.00  0.00    -0.114 S 
ATOM      4  C   UNL     1       2.198   4.133  -6.570  0.00  0.00    +0.157 C 
ATOM      5  N   UNL     1       2.665   5.470  -7.123  0.00  0.00    -0.242 N 
ATOM      6  C   UNL     1       3.700   5.715  -6.206  0.00  0.00    +0.253 C 
ATOM      7  O   UNL     1       4.920   6.061  -6.231  0.00  0.00    -0.273 OA
ATOM      8  CA  UNL     1       3.055   4.624  -5.189  0.00  0.00    +0.201 C 
ATOM      9  CA  UNL     1       2.255   5.598  -8.487  0.00  0.00    +0.134 C 
ENDROOT
BRANCH   9  10
ATOM     10  C   UNL     1       3.213   5.888  -9.568  0.00  0.00    +0.401 C 
ATOM     11  OXT UNL     1       3.897   7.104  -9.448  0.00  0.00    -0.239 OA
ATOM     12  O   UNL     1       3.919   4.966 -10.085  0.00  0.00    -0.239 OA
ENDBRANCH   9  10
BRANCH   8  13
ATOM     13  N   UNL     1       1.981   5.670  -4.626  0.00  0.00    -0.190 NA
ATOM     14  C   UNL     1       2.441   6.144  -3.354  0.00  0.00    +0.289 C 
ATOM     15  O   UNL     1       3.439   6.911  -3.528  0.00  0.00    -0.266 OA
BRANCH  14  16
ATOM     16  C   UNL     1       1.689   6.086  -2.115  0.00  0.00    +0.210 C 
ATOM     17  N   UNL     1       0.393   6.045  -2.243  0.00  0.00    -0.075 NA
BRANCH  16  18
ATOM     18  C   UNL     1       2.219   6.567  -0.823  0.00  0.00    +0.197 A 
ATOM     19  N   UNL     1       1.556   7.140   0.178  0.00  0.00    -0.199 NA
ATOM     20  C   UNL     1       2.295   8.087   0.809  0.00  0.00    +0.219 A 
ATOM     21  N   UNL     1       1.761   9.043   1.737  0.00  0.00    -0.098 NA
ATOM     22  S   UNL     1       3.813   7.281   0.782  0.00  0.00    +0.053 S 
ATOM     23  N   UNL     1       3.454   6.155  -0.437  0.00  0.00    -0.185 NA
ENDBRANCH  16  18
BRANCH  17  24
ATOM     24  O   UNL     1      -0.251   6.494  -3.379  0.00  0.00    -0.374 OA
BRANCH  24  25
ATOM     25  C   UNL     1      -1.611   6.812  -3.461  0.00  0.00    +0.253 C 
ATOM     26  C   UNL     1      -1.859   7.847  -4.520  0.00  0.00    +0.058 C 
ATOM     27  C   UNL     1      -1.998   7.360  -2.091  0.00  0.00    +0.058 C 
BRANCH  25  28
ATOM     28  C   UNL     1      -2.493   5.662  -3.728  0.00  0.00    +0.403 C 
ATOM     29  O   UNL     1      -2.785   5.327  -5.052  0.00  0.00    -0.242 OA
ATOM     30  O   UNL     1      -2.711   4.777  -2.848  0.00  0.00    -0.242 OA
ENDBRANCH  25  28
ENDBRANCH  24  25
ENDBRANCH  17  24
ENDBRANCH  14  16
ENDBRANCH   8  13
BRANCH   1  31
ATOM     31  C   UNL     1       0.491   6.689  -9.765  0.00  0.00    +0.374 C 
BRANCH  31  34
ATOM     32  C   UNL     1      -0.185   3.983 -11.014  0.00  0.00    +0.204 C 
ATOM     33  N   UNL     1       0.385   5.100 -11.643  0.00  0.00    -0.115 N 
ATOM     34  N   UNL     1       0.742   6.275 -11.118  0.00  0.00    -0.070 N 
ATOM     35  C   UNL     1       0.623   7.123 -12.173  0.00  0.00    +0.335 A 
ATOM     36  C   UNL     1       1.171   6.389 -13.220  0.00  0.00    +0.185 A 
ATOM     37  C   UNL     1       0.813   5.078 -12.929  0.00  0.00    +0.226 A 
ATOM     38  N   UNL     1       0.654   4.027 -13.892  0.00  0.00    -0.102 NA
BRANCH  36  39
ATOM     39  N   UNL     1       1.865   6.858 -14.372  0.00  0.00    -0.152 NA
ATOM     40  C   UNL     1       1.215   7.346 -15.524  0.00  0.00    +0.344 C 
ATOM     41  N   UNL     1       1.764   8.289 -16.405  0.00  0.00    -0.185 NA
ATOM     42  O   UNL     1      -0.003   7.050 -15.668  0.00  0.00    -0.249 OA
BRANCH  41  43
ATOM     43  C   UNL     1       1.351   8.236 -17.792  0.00  0.00    +0.137 C 
BRANCH  43  44
ATOM     44  C   UNL     1       0.644   9.488 -18.234  0.00  0.00    +0.133 C 
ATOM     45  N   UNL     1      -0.790   9.270 -18.233  0.00  0.00    -0.129 NA
ENDBRANCH  43  44
ENDBRANCH  41  43
ENDBRANCH  36  39
ENDBRANCH  31  34
ENDBRANCH   1  31
TORSDOF 12
ENDMDL
MODEL 5
REMARK VINA RESULT:      -8.7      2.992     11.283
REMARK  Name = 
REMARK  12 active torsions:
REMARK  status: ('A' for Active; 'I' for Inactive)
REMARK    1  A    between atoms: C_5  and  N_6
REMARK    2  A    between atoms: N_9  and  C_10
REMARK    3  A    between atoms: C_10  and  C_11
REMARK    4  A    between atoms: N_14  and  C_15
REMARK    5  A    between atoms: C_15  and  C_16
REMARK    6  A    between atoms: CA_17  and  C_18
REMARK    7  A    between atoms: CA_24  and  N_25
REMARK    8  A    between atoms: C_26  and  C_28
REMARK    9  A    between atoms: C_28  and  C_37
REMARK   10  A    between atoms: N_29  and  O_30
REMARK   11  A    between atoms: O_30  and  C_31
REMARK   12  A    between atoms: C_31  and  C_34
REMARK                            x       y       z     vdW  Elec       q    Type
REMARK                         _______ _______ _______ _____ _____    ______ ____
ROOT
ATOM      1  C   UNL     1       3.694   5.908  -8.950  0.00  0.00    +0.067 C 
ATOM      2  C   UNL     1       4.432   6.310  -7.741  0.00  0.00    +0.090 C 
ATOM      3  S   UNL     1       3.439   6.793  -6.344  0.00  0.00    -0.114 S 
ATOM      4  C   UNL     1       1.833   7.379  -7.187  0.00  0.00    +0.157 C 
ATOM      5  N   UNL     1       1.562   6.070  -7.913  0.00  0.00    -0.242 N 
ATOM      6  C   UNL     1       0.298   5.795  -7.365  0.00  0.00    +0.253 C 
ATOM      7  O   UNL     1      -0.854   5.461  -7.775  0.00  0.00    -0.273 OA
ATOM      8  CA  UNL     1       0.598   6.838  -6.156  0.00  0.00    +0.201 C 
ATOM      9  CA  UNL     1       2.370   5.995  -9.091  0.00  0.00    +0.134 C 
ENDROOT
BRANCH   9  10
ATOM     10  C   UNL     1       1.788   5.759 -10.423  0.00  0.00    +0.401 C 
ATOM     11  OXT UNL     1       1.020   4.594 -10.540  0.00  0.00    -0.239 OA
ATOM     12  O   UNL     1       1.347   6.720 -11.128  0.00  0.00    -0.239 OA
ENDBRANCH   9  10
BRANCH   8  13
ATOM     13  N   UNL     1       1.454   5.761  -5.336  0.00  0.00    -0.190 NA
ATOM     14  C   UNL     1       0.654   5.286  -4.246  0.00  0.00    +0.289 C 
ATOM     15  O   UNL     1      -0.275   4.546  -4.699  0.00  0.00    -0.266 OA
BRANCH  14  16
ATOM     16  C   UNL     1       1.038   5.314  -2.849  0.00  0.00    +0.210 C 
ATOM     17  N   UNL     1       0.072   5.132  -1.994  0.00  0.00    -0.075 NA
BRANCH  16  18
ATOM     18  C   UNL     1       2.248   6.002  -2.354  0.00  0.00    +0.197 A 
ATOM     19  N   UNL     1       3.243   5.501  -1.627  0.00  0.00    -0.199 NA
ATOM     20  C   UNL     1       3.743   6.404  -0.748  0.00  0.00    +0.219 A 
ATOM     21  N   UNL     1       4.626   6.073   0.335  0.00  0.00    -0.098 NA
ATOM     22  S   UNL     1       3.676   7.797  -1.753  0.00  0.00    +0.053 S 
ATOM     23  N   UNL     1       2.580   7.199  -2.902  0.00  0.00    -0.185 NA
ENDBRANCH  16  18
BRANCH  17  24
ATOM     24  O   UNL     1      -1.251   5.370  -2.314  0.00  0.00    -0.374 OA
BRANCH  24  25
ATOM     25  C   UNL     1      -1.971   6.517  -1.962  0.00  0.00    +0.253 C 
ATOM     26  C   UNL     1      -3.449   6.277  -2.062  0.00  0.00    +0.058 C 
ATOM     27  C   UNL     1      -1.546   7.600  -2.949  0.00  0.00    +0.058 C 
BRANCH  25  28
ATOM     28  C   UNL     1      -1.679   7.031  -0.612  0.00  0.00    +0.403 C 
ATOM     29  O   UNL     1      -1.524   8.407  -0.431  0.00  0.00    -0.242 OA
ATOM     30  O   UNL     1      -1.901   6.334   0.424  0.00  0.00    -0.242 OA
ENDBRANCH  25  28
ENDBRANCH  24  25
ENDBRANCH  17  24
ENDBRANCH  14  16
ENDBRANCH   8  13
BRANCH   1  31
ATOM     31  C   UNL     1       4.444   4.943  -9.816  0.00  0.00    +0.374 C 
BRANCH  31  34
ATOM     32  C   UNL     1       7.482   5.026  -9.497  0.00  0.00    +0.204 C 
ATOM     33  N   UNL     1       6.713   5.560 -10.543  0.00  0.00    -0.115 N 
ATOM     34  N   UNL     1       5.386   5.588 -10.686  0.00  0.00    -0.070 N 
ATOM     35  C   UNL     1       5.232   5.613 -12.037  0.00  0.00    +0.335 A 
ATOM     36  C   UNL     1       6.212   6.514 -12.441  0.00  0.00    +0.185 A 
ATOM     37  C   UNL     1       7.252   6.298 -11.544  0.00  0.00    +0.226 A 
ATOM     38  N   UNL     1       8.638   6.551 -11.805  0.00  0.00    -0.102 NA
BRANCH  36  39
ATOM     39  N   UNL     1       6.205   7.398 -13.558  0.00  0.00    -0.152 NA
ATOM     40  C   UNL     1       6.444   6.975 -14.883  0.00  0.00    +0.344 C 
ATOM     41  N   UNL     1       5.930   7.611 -16.022  0.00  0.00    -0.185 NA
ATOM     42  O   UNL     1       7.002   5.855 -15.039  0.00  0.00    -0.249 OA
BRANCH  41  43
ATOM     43  C   UNL     1       6.700   7.524 -17.246  0.00  0.00    +0.137 C 
BRANCH  43  44
ATOM     44  C   UNL     1       7.080   8.875 -17.788  0.00  0.00    +0.133 C 
ATOM     45  N   UNL     1       6.214   9.893 -17.223  0.00  0.00    -0.129 NA
ENDBRANCH  43  44
ENDBRANCH  41  43
ENDBRANCH  36  39
ENDBRANCH  31  34
ENDBRANCH   1  31
TORSDOF 12
ENDMDL
MODEL 6
REMARK VINA RESULT:      -8.6      2.344      3.747
REMARK  Name = 
REMARK  12 active torsions:
REMARK  status: ('A' for Active; 'I' for Inactive)
REMARK    1  A    between atoms: C_5  and  N_6
REMARK    2  A    between atoms: N_9  and  C_10
REMARK    3  A    between atoms: C_10  and  C_11
REMARK    4  A    between atoms: N_14  and  C_15
REMARK    5  A    between atoms: C_15  and  C_16
REMARK    6  A    between atoms: CA_17  and  C_18
REMARK    7  A    between atoms: CA_24  and  N_25
REMARK    8  A    between atoms: C_26  and  C_28
REMARK    9  A    between atoms: C_28  and  C_37
REMARK   10  A    between atoms: N_29  and  O_30
REMARK   11  A    between atoms: O_30  and  C_31
REMARK   12  A    between atoms: C_31  and  C_34
REMARK                            x       y       z     vdW  Elec       q    Type
REMARK                         _______ _______ _______ _____ _____    ______ ____
ROOT
ATOM      1  C   UNL     1       3.471   6.181  -5.473  0.00  0.00    +0.067 C 
ATOM      2  C   UNL     1       4.675   5.843  -6.251  0.00  0.00    +0.090 C 
ATOM      3  S   UNL     1       4.392   5.163  -7.873  0.00  0.00    -0.114 S 
ATOM      4  C   UNL     1       2.665   4.383  -7.676  0.00  0.00    +0.157 C 
ATOM      5  N   UNL     1       1.972   5.667  -7.244  0.00  0.00    -0.242 N 
ATOM      6  C   UNL     1       1.012   5.731  -8.267  0.00  0.00    +0.253 C 
ATOM      7  O   UNL     1      -0.238   5.909  -8.377  0.00  0.00    -0.273 OA
ATOM      8  CA  UNL     1       1.894   4.696  -9.157  0.00  0.00    +0.201 C 
ATOM      9  CA  UNL     1       2.223   5.906  -5.857  0.00  0.00    +0.134 C 
ENDROOT
BRANCH   9  10
ATOM     10  C   UNL     1       1.131   6.109  -4.888  0.00  0.00    +0.401 C 
ATOM     11  OXT UNL     1       0.139   7.012  -5.289  0.00  0.00    -0.239 OA
ATOM     12  O   UNL     1       0.677   5.142  -4.198  0.00  0.00    -0.239 OA
ENDBRANCH   9  10
BRANCH   8  13
ATOM     13  N   UNL     1       2.873   5.853  -9.673  0.00  0.00    -0.190 NA
ATOM     14  C   UNL     1       2.521   6.168 -11.026  0.00  0.00    +0.289 C 
ATOM     15  O   UNL     1       1.411   6.785 -11.037  0.00  0.00    -0.266 OA
BRANCH  14  16
ATOM     16  C   UNL     1       3.429   6.144 -12.156  0.00  0.00    +0.210 C 
ATOM     17  N   UNL     1       3.016   5.479 -13.198  0.00  0.00    -0.075 NA
BRANCH  16  18
ATOM     18  C   UNL     1       4.886   6.352 -12.030  0.00  0.00    +0.197 A 
ATOM     19  N   UNL     1       5.855   5.896 -12.819  0.00  0.00    -0.199 NA
ATOM     20  C   UNL     1       6.980   5.588 -12.127  0.00  0.00    +0.219 A 
ATOM     21  N   UNL     1       8.078   4.834 -12.664  0.00  0.00    -0.098 NA
ATOM     22  S   UNL     1       6.959   6.899 -11.016  0.00  0.00    +0.053 S 
ATOM     23  N   UNL     1       5.330   7.336 -11.207  0.00  0.00    -0.185 NA
ENDBRANCH  16  18
BRANCH  17  24
ATOM     24  O   UNL     1       2.054   4.491 -13.108  0.00  0.00    -0.374 OA
BRANCH  24  25
ATOM     25  C   UNL     1       0.795   4.535 -13.716  0.00  0.00    +0.253 C 
ATOM     26  C   UNL     1       0.692   5.700 -14.657  0.00  0.00    +0.058 C 
ATOM     27  C   UNL     1      -0.215   4.684 -12.582  0.00  0.00    +0.058 C 
BRANCH  25  28
ATOM     28  C   UNL     1       0.431   3.314 -14.457  0.00  0.00    +0.403 C 
ATOM     29  O   UNL     1      -0.617   3.370 -15.378  0.00  0.00    -0.242 OA
ATOM     30  O   UNL     1       1.228   2.333 -14.548  0.00  0.00    -0.242 OA
ENDBRANCH  25  28
ENDBRANCH  24  25
ENDBRANCH  17  24
ENDBRANCH  14  16
ENDBRANCH   8  13
BRANCH   1  31
ATOM     31  C   UNL     1       3.690   7.280  -4.479  0.00  0.00    +0.374 C 
BRANCH  31  34
ATOM     32  C   UNL     1       4.713   4.645  -3.315  0.00  0.00    +0.204 C 
ATOM     33  N   UNL     1       4.080   5.697  -2.634  0.00  0.00    -0.115 N 
ATOM     34  N   UNL     1       3.575   6.833  -3.119  0.00  0.00    -0.070 N 
ATOM     35  C   UNL     1       3.682   7.682  -2.062  0.00  0.00    +0.335 A 
ATOM     36  C   UNL     1       3.282   6.891  -0.991  0.00  0.00    +0.185 A 
ATOM     37  C   UNL     1       3.747   5.624  -1.323  0.00  0.00    +0.226 A 
ATOM     38  N   UNL     1       4.073   4.588  -0.387  0.00  0.00    -0.102 NA
BRANCH  36  39
ATOM     39  N   UNL     1       2.626   7.282   0.211  0.00  0.00    -0.152 NA
ATOM     40  C   UNL     1       1.240   7.129   0.423  0.00  0.00    +0.344 C 
ATOM     41  N   UNL     1       0.645   6.962   1.682  0.00  0.00    -0.185 NA
ATOM     42  O   UNL     1       0.517   6.952  -0.595  0.00  0.00    -0.249 OA
BRANCH  41  43
ATOM     43  C   UNL     1      -0.710   7.443   1.855  0.00  0.00    +0.137 C 
BRANCH  43  44
ATOM     44  C   UNL     1      -0.761   8.870   2.327  0.00  0.00    +0.133 C 
ATOM     45  N   UNL     1      -1.105   9.743   1.220  0.00  0.00    -0.129 NA
ENDBRANCH  43  44
ENDBRANCH  41  43
ENDBRANCH  36  39
ENDBRANCH  31  34
ENDBRANCH   1  31
TORSDOF 12
ENDMDL
MODEL 7
REMARK VINA RESULT:      -8.4      3.300     10.411
REMARK  Name = 
REMARK  12 active torsions:
REMARK  status: ('A' for Active; 'I' for Inactive)
REMARK    1  A    between atoms: C_5  and  N_6
REMARK    2  A    between atoms: N_9  and  C_10
REMARK    3  A    between atoms: C_10  and  C_11
REMARK    4  A    between atoms: N_14  and  C_15
REMARK    5  A    between atoms: C_15  and  C_16
REMARK    6  A    between atoms: CA_17  and  C_18
REMARK    7  A    between atoms: CA_24  and  N_25
REMARK    8  A    between atoms: C_26  and  C_28
REMARK    9  A    between atoms: C_28  and  C_37
REMARK   10  A    between atoms: N_29  and  O_30
REMARK   11  A    between atoms: O_30  and  C_31
REMARK   12  A    between atoms: C_31  and  C_34
REMARK                            x       y       z     vdW  Elec       q    Type
REMARK                         _______ _______ _______ _____ _____    ______ ____
ROOT
ATOM      1  C   UNL     1      -0.135   5.898  -6.632  0.00  0.00    +0.067 C 
ATOM      2  C   UNL     1       1.206   6.366  -6.244  0.00  0.00    +0.090 C 
ATOM      3  S   UNL     1       1.444   6.709  -4.512  0.00  0.00    -0.114 S 
ATOM      4  C   UNL     1      -0.330   7.114  -3.945  0.00  0.00    +0.157 C 
ATOM      5  N   UNL     1      -0.934   5.793  -4.396  0.00  0.00    -0.242 N 
ATOM      6  C   UNL     1      -1.427   5.364  -3.153  0.00  0.00    +0.253 C 
ATOM      7  O   UNL     1      -2.508   4.902  -2.677  0.00  0.00    -0.273 OA
ATOM      8  CA  UNL     1      -0.444   6.416  -2.401  0.00  0.00    +0.201 C 
ATOM      9  CA  UNL     1      -1.180   5.831  -5.804  0.00  0.00    +0.134 C 
ENDROOT
BRANCH   9  10
ATOM     10  C   UNL     1      -2.509   5.547  -6.373  0.00  0.00    +0.401 C 
ATOM     11  OXT UNL     1      -3.213   4.507  -5.754  0.00  0.00    -0.239 OA
ATOM     12  O   UNL     1      -3.262   6.486  -6.783  0.00  0.00    -0.239 OA
ENDBRANCH   9  10
BRANCH   8  13
ATOM     13  N   UNL     1       0.817   5.435  -2.511  0.00  0.00    -0.190 NA
ATOM     14  C   UNL     1       1.483   5.417  -1.242  0.00  0.00    +0.289 C 
ATOM     15  O   UNL     1       0.770   4.782  -0.404  0.00  0.00    -0.266 OA
BRANCH  14  16
ATOM     16  C   UNL     1       2.884   5.720  -1.025  0.00  0.00    +0.210 C 
ATOM     17  N   UNL     1       3.154   6.397   0.055  0.00  0.00    -0.075 NA
BRANCH  16  18
ATOM     18  C   UNL     1       3.879   5.775  -2.115  0.00  0.00    +0.197 A 
ATOM     19  N   UNL     1       4.699   6.773  -2.433  0.00  0.00    -0.199 NA
ATOM     20  C   UNL     1       4.899   6.869  -3.771  0.00  0.00    +0.219 A 
ATOM     21  N   UNL     1       5.510   7.995  -4.418  0.00  0.00    -0.098 NA
ATOM     22  S   UNL     1       4.977   5.191  -4.134  0.00  0.00    +0.053 S 
ATOM     23  N   UNL     1       4.245   4.614  -2.715  0.00  0.00    -0.185 NA
ENDBRANCH  16  18
BRANCH  17  24
ATOM     24  O   UNL     1       2.208   7.176   0.693  0.00  0.00    -0.374 OA
BRANCH  24  25
ATOM     25  C   UNL     1       2.435   8.456   1.210  0.00  0.00    +0.253 C 
ATOM     26  C   UNL     1       2.612   8.412   2.700  0.00  0.00    +0.058 C 
ATOM     27  C   UNL     1       1.202   9.280   0.852  0.00  0.00    +0.058 C 
BRANCH  25  28
ATOM     28  C   UNL     1       3.598   9.151   0.630  0.00  0.00    +0.403 C 
ATOM     29  O   UNL     1       3.445   9.828  -0.582  0.00  0.00    -0.242 OA
ATOM     30  O   UNL     1       4.610   9.448   1.333  0.00  0.00    -0.242 OA
ENDBRANCH  25  28
ENDBRANCH  24  25
ENDBRANCH  17  24
ENDBRANCH  14  16
ENDBRANCH   8  13
BRANCH   1  31
ATOM     31  C   UNL     1      -0.138   5.041  -7.860  0.00  0.00    +0.374 C 
BRANCH  31  34
ATOM     32  C   UNL     1      -0.254   4.592 -10.881  0.00  0.00    +0.204 C 
ATOM     33  N   UNL     1       0.725   5.286 -10.152  0.00  0.00    -0.115 N 
ATOM     34  N   UNL     1       0.834   5.454  -8.833  0.00  0.00    -0.070 N 
ATOM     35  C   UNL     1       1.505   6.632  -8.736  0.00  0.00    +0.335 A 
ATOM     36  C   UNL     1       2.478   6.514  -9.723  0.00  0.00    +0.185 A 
ATOM     37  C   UNL     1       1.846   5.787 -10.725  0.00  0.00    +0.226 A 
ATOM     38  N   UNL     1       2.177   5.835 -12.120  0.00  0.00    -0.102 NA
BRANCH  36  39
ATOM     39  N   UNL     1       3.789   7.070  -9.756  0.00  0.00    -0.152 NA
ATOM     40  C   UNL     1       4.932   6.339 -10.142  0.00  0.00    +0.344 C 
ATOM     41  N   UNL     1       6.079   6.908 -10.715  0.00  0.00    -0.185 NA
ATOM     42  O   UNL     1       4.840   5.081 -10.137  0.00  0.00    -0.249 OA
BRANCH  41  43
ATOM     43  C   UNL     1       7.346   6.246 -10.482  0.00  0.00    +0.137 C 
BRANCH  43  44
ATOM     44  C   UNL     1       8.121   6.018 -11.751  0.00  0.00    +0.133 C 
ATOM     45  N   UNL     1       7.750   4.742 -12.332  0.00  0.00    -0.129 NA
ENDBRANCH  43  44
ENDBRANCH  41  43
ENDBRANCH  36  39
ENDBRANCH  31  34
ENDBRANCH   1  31
TORSDOF 12
ENDMDL
MODEL 8
REMARK VINA RESULT:      -8.4      2.959     10.847
REMARK  Name = 
REMARK  12 active torsions:
REMARK  status: ('A' for Active; 'I' for Inactive)
REMARK    1  A    between atoms: C_5  and  N_6
REMARK    2  A    between atoms: N_9  and  C_10
REMARK    3  A    between atoms: C_10  and  C_11
REMARK    4  A    between atoms: N_14  and  C_15
REMARK    5  A    between atoms: C_15  and  C_16
REMARK    6  A    between atoms: CA_17  and  C_18
REMARK    7  A    between atoms: CA_24  and  N_25
REMARK    8  A    between atoms: C_26  and  C_28
REMARK    9  A    between atoms: C_28  and  C_37
REMARK   10  A    between atoms: N_29  and  O_30
REMARK   11  A    between atoms: O_30  and  C_31
REMARK   12  A    between atoms: C_31  and  C_34
REMARK                            x       y       z     vdW  Elec       q    Type
REMARK                         _______ _______ _______ _____ _____    ______ ____
ROOT
ATOM      1  C   UNL     1       4.005   5.722 -10.615  0.00  0.00    +0.067 C 
ATOM      2  C   UNL     1       4.702   5.908  -9.331  0.00  0.00    +0.090 C 
ATOM      3  S   UNL     1       3.678   6.357  -7.944  0.00  0.00    -0.114 S 
ATOM      4  C   UNL     1       2.206   7.210  -8.802  0.00  0.00    +0.157 C 
ATOM      5  N   UNL     1       1.841   6.024  -9.681  0.00  0.00    -0.242 N 
ATOM      6  C   UNL     1       0.521   5.843  -9.236  0.00  0.00    +0.253 C 
ATOM      7  O   UNL     1      -0.632   5.690  -9.741  0.00  0.00    -0.273 OA
ATOM      8  CA  UNL     1       0.853   6.713  -7.904  0.00  0.00    +0.201 C 
ATOM      9  CA  UNL     1       2.710   5.978 -10.815  0.00  0.00    +0.134 C 
ENDROOT
BRANCH   9  10
ATOM     10  C   UNL     1       2.195   5.949 -12.195  0.00  0.00    +0.401 C 
ATOM     11  OXT UNL     1       1.339   4.882 -12.490  0.00  0.00    -0.239 OA
ATOM     12  O   UNL     1       1.883   7.022 -12.802  0.00  0.00    -0.239 OA
ENDBRANCH   9  10
BRANCH   8  13
ATOM     13  N   UNL     1       1.530   5.465  -7.164  0.00  0.00    -0.190 NA
ATOM     14  C   UNL     1       0.772   5.180  -5.981  0.00  0.00    +0.289 C 
ATOM     15  O   UNL     1      -0.346   4.674  -6.311  0.00  0.00    -0.266 OA
BRANCH  14  16
ATOM     16  C   UNL     1       1.310   5.111  -4.636  0.00  0.00    +0.210 C 
ATOM     17  N   UNL     1       0.441   5.238  -3.674  0.00  0.00    -0.075 NA
BRANCH  16  18
ATOM     18  C   UNL     1       2.718   5.415  -4.310  0.00  0.00    +0.197 A 
ATOM     19  N   UNL     1       3.219   6.523  -3.771  0.00  0.00    -0.199 NA
ATOM     20  C   UNL     1       4.448   6.823  -4.261  0.00  0.00    +0.219 A 
ATOM     21  N   UNL     1       5.109   8.083  -4.068  0.00  0.00    -0.098 NA
ATOM     22  S   UNL     1       5.083   5.227  -4.344  0.00  0.00    +0.053 S 
ATOM     23  N   UNL     1       3.608   4.389  -4.270  0.00  0.00    -0.185 NA
ENDBRANCH  16  18
BRANCH  17  24
ATOM     24  O   UNL     1      -0.781   5.856  -3.860  0.00  0.00    -0.374 OA
BRANCH  24  25
ATOM     25  C   UNL     1      -1.724   6.094  -2.855  0.00  0.00    +0.253 C 
ATOM     26  C   UNL     1      -1.265   5.531  -1.542  0.00  0.00    +0.058 C 
ATOM     27  C   UNL     1      -3.006   5.399  -3.306  0.00  0.00    +0.058 C 
BRANCH  25  28
ATOM     28  C   UNL     1      -2.056   7.516  -2.653  0.00  0.00    +0.403 C 
ATOM     29  O   UNL     1      -1.989   8.049  -1.364  0.00  0.00    -0.242 OA
ATOM     30  O   UNL     1      -2.062   8.338  -3.618  0.00  0.00    -0.242 OA
ENDBRANCH  25  28
ENDBRANCH  24  25
ENDBRANCH  17  24
ENDBRANCH  14  16
ENDBRANCH   8  13
BRANCH   1  31
ATOM     31  C   UNL     1       4.699   4.771 -11.540  0.00  0.00    +0.374 C 
BRANCH  31  34
ATOM     32  C   UNL     1       7.635   4.923 -10.705  0.00  0.00    +0.204 C 
ATOM     33  N   UNL     1       7.056   5.386 -11.896  0.00  0.00    -0.115 N 
ATOM     34  N   UNL     1       5.774   5.384 -12.269  0.00  0.00    -0.070 N 
ATOM     35  C   UNL     1       5.857   5.333 -13.625  0.00  0.00    +0.335 A 
ATOM     36  C   UNL     1       6.886   6.227 -13.903  0.00  0.00    +0.185 A 
ATOM     37  C   UNL     1       7.755   6.077 -12.829  0.00  0.00    +0.226 A 
ATOM     38  N   UNL     1       9.164   6.340 -12.859  0.00  0.00    -0.102 NA
BRANCH  36  39
ATOM     39  N   UNL     1       7.067   7.048 -15.053  0.00  0.00    -0.152 NA
ATOM     40  C   UNL     1       5.997   7.576 -15.806  0.00  0.00    +0.344 C 
ATOM     41  N   UNL     1       6.060   8.767 -16.545  0.00  0.00    -0.185 NA
ATOM     42  O   UNL     1       4.867   7.037 -15.657  0.00  0.00    -0.249 OA
BRANCH  41  43
ATOM     43  C   UNL     1       5.218   8.875 -17.718  0.00  0.00    +0.137 C 
BRANCH  43  44
ATOM     44  C   UNL     1       4.399  10.137 -17.728  0.00  0.00    +0.133 C 
ATOM     45  N   UNL     1       3.352  10.051 -16.728  0.00  0.00    -0.129 NA
ENDBRANCH  43  44
ENDBRANCH  41  43
ENDBRANCH  36  39
ENDBRANCH  31  34
ENDBRANCH   1  31
TORSDOF 12
ENDMDL
MODEL 9
REMARK VINA RESULT:      -8.4      3.445     10.867
REMARK  Name = 
REMARK  12 active torsions:
REMARK  status: ('A' for Active; 'I' for Inactive)
REMARK    1  A    between atoms: C_5  and  N_6
REMARK    2  A    between atoms: N_9  and  C_10
REMARK    3  A    between atoms: C_10  and  C_11
REMARK    4  A    between atoms: N_14  and  C_15
REMARK    5  A    between atoms: C_15  and  C_16
REMARK    6  A    between atoms: CA_17  and  C_18
REMARK    7  A    between atoms: CA_24  and  N_25
REMARK    8  A    between atoms: C_26  and  C_28
REMARK    9  A    between atoms: C_28  and  C_37
REMARK   10  A    between atoms: N_29  and  O_30
REMARK   11  A    between atoms: O_30  and  C_31
REMARK   12  A    between atoms: C_31  and  C_34
REMARK                            x       y       z     vdW  Elec       q    Type
REMARK                         _______ _______ _______ _____ _____    ______ ____
ROOT
ATOM      1  C   UNL     1      -0.227   5.736  -6.649  0.00  0.00    +0.067 C 
ATOM      2  C   UNL     1       1.122   6.221  -6.313  0.00  0.00    +0.090 C 
ATOM      3  S   UNL     1       1.396   6.649  -4.606  0.00  0.00    -0.114 S 
ATOM      4  C   UNL     1      -0.365   7.085  -4.022  0.00  0.00    +0.157 C 
ATOM      5  N   UNL     1      -0.979   5.744  -4.395  0.00  0.00    -0.242 N 
ATOM      6  C   UNL     1      -1.447   5.378  -3.122  0.00  0.00    +0.253 C 
ATOM      7  O   UNL     1      -2.518   4.942  -2.600  0.00  0.00    -0.273 OA
ATOM      8  CA  UNL     1      -0.448   6.465  -2.444  0.00  0.00    +0.201 C 
ATOM      9  CA  UNL     1      -1.255   5.712  -5.797  0.00  0.00    +0.134 C 
ENDROOT
BRANCH   9  10
ATOM     10  C   UNL     1      -2.596   5.402  -6.324  0.00  0.00    +0.401 C 
ATOM     11  OXT UNL     1      -3.336   4.488  -5.566  0.00  0.00    -0.239 OA
ATOM     12  O   UNL     1      -3.313   6.302  -6.863  0.00  0.00    -0.239 OA
ENDBRANCH   9  10
BRANCH   8  13
ATOM     13  N   UNL     1       0.810   5.478  -2.531  0.00  0.00    -0.190 NA
ATOM     14  C   UNL     1       1.467   5.475  -1.257  0.00  0.00    +0.289 C 
ATOM     15  O   UNL     1       0.746   4.855  -0.415  0.00  0.00    -0.266 OA
BRANCH  14  16
ATOM     16  C   UNL     1       2.868   5.777  -1.035  0.00  0.00    +0.210 C 
ATOM     17  N   UNL     1       3.132   6.474   0.034  0.00  0.00    -0.075 NA
BRANCH  16  18
ATOM     18  C   UNL     1       3.873   5.804  -2.117  0.00  0.00    +0.197 A 
ATOM     19  N   UNL     1       4.714   6.784  -2.435  0.00  0.00    -0.199 NA
ATOM     20  C   UNL     1       4.926   6.865  -3.772  0.00  0.00    +0.219 A 
ATOM     21  N   UNL     1       5.565   7.975  -4.423  0.00  0.00    -0.098 NA
ATOM     22  S   UNL     1       4.974   5.183  -4.123  0.00  0.00    +0.053 S 
ATOM     23  N   UNL     1       4.220   4.631  -2.706  0.00  0.00    -0.185 NA
ENDBRANCH  16  18
BRANCH  17  24
ATOM     24  O   UNL     1       2.184   7.271   0.648  0.00  0.00    -0.374 OA
BRANCH  24  25
ATOM     25  C   UNL     1       2.413   8.562   1.136  0.00  0.00    +0.253 C 
ATOM     26  C   UNL     1       1.163   9.391   1.070  0.00  0.00    +0.058 C 
ATOM     27  C   UNL     1       3.493   9.166   0.244  0.00  0.00    +0.058 C 
BRANCH  25  28
ATOM     28  C   UNL     1       2.923   8.610   2.518  0.00  0.00    +0.403 C 
ATOM     29  O   UNL     1       3.337   9.837   3.043  0.00  0.00    -0.242 OA
ATOM     30  O   UNL     1       2.684   7.680   3.345  0.00  0.00    -0.242 OA
ENDBRANCH  25  28
ENDBRANCH  24  25
ENDBRANCH  17  24
ENDBRANCH  14  16
ENDBRANCH   8  13
BRANCH   1  31
ATOM     31  C   UNL     1      -0.256   4.818  -7.832  0.00  0.00    +0.374 C 
BRANCH  31  34
ATOM     32  C   UNL     1       2.665   4.085  -8.351  0.00  0.00    +0.204 C 
ATOM     33  N   UNL     1       1.830   4.893  -9.138  0.00  0.00    -0.115 N 
ATOM     34  N   UNL     1       0.571   5.275  -8.914  0.00  0.00    -0.070 N 
ATOM     35  C   UNL     1       0.088   5.463 -10.171  0.00  0.00    +0.335 A 
ATOM     36  C   UNL     1       1.137   6.113 -10.810  0.00  0.00    +0.185 A 
ATOM     37  C   UNL     1       2.273   5.554 -10.234  0.00  0.00    +0.226 A 
ATOM     38  N   UNL     1       3.561   5.464 -10.858  0.00  0.00    -0.102 NA
BRANCH  36  39
ATOM     39  N   UNL     1       1.086   7.066 -11.867  0.00  0.00    -0.152 NA
ATOM     40  C   UNL     1       0.797   6.726 -13.205  0.00  0.00    +0.344 C 
ATOM     41  N   UNL     1       0.202   7.594 -14.133  0.00  0.00    -0.185 NA
ATOM     42  O   UNL     1       0.917   5.513 -13.530  0.00  0.00    -0.249 OA
BRANCH  41  43
ATOM     43  C   UNL     1       0.527   7.409 -15.532  0.00  0.00    +0.137 C 
BRANCH  43  44
ATOM     44  C   UNL     1       1.597   8.354 -16.007  0.00  0.00    +0.133 C 
ATOM     45  N   UNL     1       2.784   7.607 -16.378  0.00  0.00    -0.129 NA
ENDBRANCH  43  44
ENDBRANCH  41  43
ENDBRANCH  36  39
ENDBRANCH  31  34
ENDBRANCH   1  31
TORSDOF 12
ENDMDL
