MODEL 1
REMARK VINA RESULT:      -5.6      0.000      0.000
REMARK  Name = 
REMARK  2 active torsions:
REMARK  status: ('A' for Active; 'I' for Inactive)
REMARK    1  A    between atoms: C_2  and  N_3
REMARK    2  A    between atoms: N_3  and  C_6
REMARK                            x       y       z     vdW  Elec       q    Type
REMARK                         _______ _______ _______ _____ _____    ______ ____
ROOT
ATOM      1  C   UNL     1       4.828   6.346 -11.095  0.00  0.00    +0.169 A 
ATOM      2  C   UNL     1       5.545   5.431 -11.854  0.00  0.00    +0.105 A 
ATOM      3  C   UNL     1       6.905   5.617 -12.067  0.00  0.00    +0.201 A 
ATOM      4  O   UNL     1       7.603   4.610 -12.693  0.00  0.00    -0.286 OA
ATOM      5  C   UNL     1       7.576   6.676 -11.466  0.00  0.00    +0.042 A 
ATOM      6  C   UNL     1       6.784   7.779 -11.175  0.00  0.00    +0.009 A 
ATOM      7  C   UNL     1       5.442   7.561 -10.883  0.00  0.00    +0.063 A 
ENDROOT
BRANCH   1   8
ATOM      8  N   UNL     1       3.772   5.950 -10.213  0.00  0.00    -0.316 NA
ATOM      9  C   UNL     1       2.558   5.670 -10.972  0.00  0.00    +0.335 C 
ATOM     10  C   UNL     1       3.450   7.006  -9.257  0.00  0.00    +0.335 C 
BRANCH   8  12
ATOM     11  C   UNL     1       4.978   5.104  -8.254  0.00  0.00    +0.085 C 
ATOM     12  C   UNL     1       4.175   4.757  -9.499  0.00  0.00    +0.256 C 
ENDBRANCH   8  12
ENDBRANCH   1   8
TORSDOF 2
ENDMDL
MODEL 2
REMARK VINA RESULT:      -5.4      7.260      9.322
REMARK  Name = 
REMARK  2 active torsions:
REMARK  status: ('A' for Active; 'I' for Inactive)
REMARK    1  A    between atoms: C_2  and  N_3
REMARK    2  A    between atoms: N_3  and  C_6
REMARK                            x       y       z     vdW  Elec       q    Type
REMARK                         _______ _______ _______ _____ _____    ______ ____
ROOT
ATOM      1  C   UNL     1      -0.342   6.263  -4.829  0.00  0.00    +0.169 A 
ATOM      2  C   UNL     1      -0.816   5.434  -3.822  0.00  0.00    +0.105 A 
ATOM      3  C   UNL     1      -2.005   5.736  -3.173  0.00  0.00    +0.201 A 
ATOM      4  O   UNL     1      -2.512   4.809  -2.291  0.00  0.00    -0.286 OA
ATOM      5  C   UNL     1      -2.769   6.828  -3.568  0.00  0.00    +0.042 A 
ATOM      6  C   UNL     1      -2.053   7.853  -4.172  0.00  0.00    +0.009 A 
ATOM      7  C   UNL     1      -0.909   7.518  -4.889  0.00  0.00    +0.063 A 
ENDROOT
BRANCH   1   8
ATOM      8  N   UNL     1       0.320   5.756  -5.993  0.00  0.00    -0.316 NA
ATOM      9  C   UNL     1       1.106   4.575  -5.653  0.00  0.00    +0.335 C 
ATOM     10  C   UNL     1       1.241   6.740  -6.555  0.00  0.00    +0.335 C 
BRANCH   8  12
ATOM     11  C   UNL     1      -0.105   5.498  -8.393  0.00  0.00    +0.085 C 
ATOM     12  C   UNL     1      -0.672   5.400  -6.984  0.00  0.00    +0.256 C 
ENDBRANCH   8  12
ENDBRANCH   1   8
TORSDOF 2
ENDMDL
MODEL 3
REMARK VINA RESULT:      -5.3      7.258      9.272
REMARK  Name = 
REMARK  2 active torsions:
REMARK  status: ('A' for Active; 'I' for Inactive)
REMARK    1  A    between atoms: C_2  and  N_3
REMARK    2  A    between atoms: N_3  and  C_6
REMARK                            x       y       z     vdW  Elec       q    Type
REMARK                         _______ _______ _______ _____ _____    ______ ____
ROOT
ATOM      1  C   UNL     1      -0.333   6.297  -4.800  0.00  0.00    +0.169 A 
ATOM      2  C   UNL     1      -0.782   5.463  -3.786  0.00  0.00    +0.105 A 
ATOM      3  C   UNL     1      -1.974   5.744  -3.130  0.00  0.00    +0.201 A 
ATOM      4  O   UNL     1      -2.456   4.810  -2.241  0.00  0.00    -0.286 OA
ATOM      5  C   UNL     1      -2.764   6.816  -3.527  0.00  0.00    +0.042 A 
ATOM      6  C   UNL     1      -2.074   7.853  -4.141  0.00  0.00    +0.009 A 
ATOM      7  C   UNL     1      -0.927   7.539  -4.863  0.00  0.00    +0.063 A 
ENDROOT
BRANCH   1   8
ATOM      8  N   UNL     1       0.333   5.798  -5.965  0.00  0.00    -0.316 NA
ATOM      9  C   UNL     1      -0.642   5.376  -6.964  0.00  0.00    +0.335 C 
ATOM     10  C   UNL     1       1.161   4.637  -5.651  0.00  0.00    +0.335 C 
BRANCH   8  12
ATOM     11  C   UNL     1       2.575   6.790  -5.956  0.00  0.00    +0.085 C 
ATOM     12  C   UNL     1       1.163   6.847  -6.520  0.00  0.00    +0.256 C 
ENDBRANCH   8  12
ENDBRANCH   1   8
TORSDOF 2
ENDMDL
MODEL 4
REMARK VINA RESULT:      -5.1      6.404      8.359
REMARK  Name = 
REMARK  2 active torsions:
REMARK  status: ('A' for Active; 'I' for Inactive)
REMARK    1  A    between atoms: C_2  and  N_3
REMARK    2  A    between atoms: N_3  and  C_6
REMARK                            x       y       z     vdW  Elec       q    Type
REMARK                         _______ _______ _______ _____ _____    ______ ____
ROOT
ATOM      1  C   UNL     1       0.299   6.147  -5.993  0.00  0.00    +0.169 A 
ATOM      2  C   UNL     1      -0.185   7.197  -5.225  0.00  0.00    +0.105 A 
ATOM      3  C   UNL     1      -1.540   7.279  -4.932  0.00  0.00    +0.201 A 
ATOM      4  O   UNL     1      -1.951   8.247  -4.045  0.00  0.00    -0.286 OA
ATOM      5  C   UNL     1      -2.413   6.278  -5.341  0.00  0.00    +0.042 A 
ATOM      6  C   UNL     1      -2.010   5.577  -6.470  0.00  0.00    +0.009 A 
ATOM      7  C   UNL     1      -0.645   5.436  -6.701  0.00  0.00    +0.063 A 
ENDROOT
BRANCH   1   8
ATOM      8  N   UNL     1       1.569   5.535  -5.742  0.00  0.00    -0.316 NA
ATOM      9  C   UNL     1       1.543   4.133  -6.142  0.00  0.00    +0.335 C 
ATOM     10  C   UNL     1       1.910   5.574  -4.322  0.00  0.00    +0.335 C 
BRANCH   8  12
ATOM     11  C   UNL     1       3.536   6.990  -5.587  0.00  0.00    +0.085 C 
ATOM     12  C   UNL     1       2.587   6.230  -6.502  0.00  0.00    +0.256 C 
ENDBRANCH   8  12
ENDBRANCH   1   8
TORSDOF 2
ENDMDL
MODEL 5
REMARK VINA RESULT:      -5.0      2.680      4.534
REMARK  Name = 
REMARK  2 active torsions:
REMARK  status: ('A' for Active; 'I' for Inactive)
REMARK    1  A    between atoms: C_2  and  N_3
REMARK    2  A    between atoms: N_3  and  C_6
REMARK                            x       y       z     vdW  Elec       q    Type
REMARK                         _______ _______ _______ _____ _____    ______ ____
ROOT
ATOM      1  C   UNL     1       4.493   6.007  -9.460  0.00  0.00    +0.169 A 
ATOM      2  C   UNL     1       3.447   6.904  -9.294  0.00  0.00    +0.105 A 
ATOM      3  C   UNL     1       2.969   7.188  -8.021  0.00  0.00    +0.201 A 
ATOM      4  O   UNL     1       2.038   8.194  -7.891  0.00  0.00    -0.286 OA
ATOM      5  C   UNL     1       3.574   6.635  -6.899  0.00  0.00    +0.042 A 
ATOM      6  C   UNL     1       4.220   5.426  -7.121  0.00  0.00    +0.009 A 
ATOM      7  C   UNL     1       4.766   5.196  -8.380  0.00  0.00    +0.063 A 
ENDROOT
BRANCH   1   8
ATOM      8  N   UNL     1       5.509   6.189 -10.453  0.00  0.00    -0.316 NA
ATOM      9  C   UNL     1       5.526   7.574 -10.911  0.00  0.00    +0.335 C 
ATOM     10  C   UNL     1       5.268   5.350 -11.624  0.00  0.00    +0.335 C 
BRANCH   8  12
ATOM     11  C   UNL     1       7.889   5.860 -10.936  0.00  0.00    +0.085 C 
ATOM     12  C   UNL     1       6.795   5.859  -9.878  0.00  0.00    +0.256 C 
ENDBRANCH   8  12
ENDBRANCH   1   8
TORSDOF 2
ENDMDL
MODEL 6
REMARK VINA RESULT:      -5.0      5.909      7.624
REMARK  Name = 
REMARK  2 active torsions:
REMARK  status: ('A' for Active; 'I' for Inactive)
REMARK    1  A    between atoms: C_2  and  N_3
REMARK    2  A    between atoms: N_3  and  C_6
REMARK                            x       y       z     vdW  Elec       q    Type
REMARK                         _______ _______ _______ _____ _____    ______ ____
ROOT
ATOM      1  C   UNL     1      -0.397   5.239  -5.841  0.00  0.00    +0.169 A 
ATOM      2  C   UNL     1       0.900   4.745  -5.880  0.00  0.00    +0.105 A 
ATOM      3  C   UNL     1       1.627   4.789  -7.062  0.00  0.00    +0.201 A 
ATOM      4  O   UNL     1       2.955   4.431  -7.017  0.00  0.00    -0.286 OA
ATOM      5  C   UNL     1       1.095   5.391  -8.197  0.00  0.00    +0.042 A 
ATOM      6  C   UNL     1      -0.292   5.394  -8.260  0.00  0.00    +0.009 A 
ATOM      7  C   UNL     1      -1.002   5.433  -7.064  0.00  0.00    +0.063 A 
ENDROOT
BRANCH   1   8
ATOM      8  N   UNL     1      -0.920   5.929  -4.701  0.00  0.00    -0.316 NA
ATOM      9  C   UNL     1      -0.264   5.466  -3.484  0.00  0.00    +0.335 C 
ATOM     10  C   UNL     1      -2.351   5.685  -4.540  0.00  0.00    +0.335 C 
BRANCH   8  12
ATOM     11  C   UNL     1      -1.934   8.154  -4.528  0.00  0.00    +0.085 C 
ATOM     12  C   UNL     1      -0.686   7.349  -4.860  0.00  0.00    +0.256 C 
ENDBRANCH   8  12
ENDBRANCH   1   8
TORSDOF 2
ENDMDL
MODEL 7
REMARK VINA RESULT:      -4.8      6.441      7.940
REMARK  Name = 
REMARK  2 active torsions:
REMARK  status: ('A' for Active; 'I' for Inactive)
REMARK    1  A    between atoms: C_2  and  N_3
REMARK    2  A    between atoms: N_3  and  C_6
REMARK                            x       y       z     vdW  Elec       q    Type
REMARK                         _______ _______ _______ _____ _____    ______ ____
ROOT
ATOM      1  C   UNL     1       0.809   6.471  -5.963  0.00  0.00    +0.169 A 
ATOM      2  C   UNL     1      -0.315   6.803  -5.220  0.00  0.00    +0.105 A 
ATOM      3  C   UNL     1      -1.551   6.258  -5.545  0.00  0.00    +0.201 A 
ATOM      4  O   UNL     1      -2.605   6.493  -4.692  0.00  0.00    -0.286 OA
ATOM      5  C   UNL     1      -1.663   5.322  -6.567  0.00  0.00    +0.042 A 
ATOM      6  C   UNL     1      -0.688   5.413  -7.551  0.00  0.00    +0.009 A 
ATOM      7  C   UNL     1       0.568   5.885  -7.186  0.00  0.00    +0.063 A 
ENDROOT
BRANCH   1   8
ATOM      8  N   UNL     1       2.100   6.305  -5.367  0.00  0.00    -0.316 NA
ATOM      9  C   UNL     1       2.085   6.778  -3.987  0.00  0.00    +0.335 C 
ATOM     10  C   UNL     1       3.119   7.075  -6.075  0.00  0.00    +0.335 C 
BRANCH   8  12
ATOM     11  C   UNL     1       3.758   4.650  -4.646  0.00  0.00    +0.085 C 
ATOM     12  C   UNL     1       2.453   4.901  -5.387  0.00  0.00    +0.256 C 
ENDBRANCH   8  12
ENDBRANCH   1   8
TORSDOF 2
ENDMDL
MODEL 8
REMARK VINA RESULT:      -4.8      2.186      2.898
REMARK  Name = 
REMARK  2 active torsions:
REMARK  status: ('A' for Active; 'I' for Inactive)
REMARK    1  A    between atoms: C_2  and  N_3
REMARK    2  A    between atoms: N_3  and  C_6
REMARK                            x       y       z     vdW  Elec       q    Type
REMARK                         _______ _______ _______ _____ _____    ______ ____
ROOT
ATOM      1  C   UNL     1       4.206   5.770  -8.601  0.00  0.00    +0.169 A 
ATOM      2  C   UNL     1       5.494   5.253  -8.616  0.00  0.00    +0.105 A 
ATOM      3  C   UNL     1       6.432   5.746  -9.514  0.00  0.00    +0.201 A 
ATOM      4  O   UNL     1       7.733   5.313  -9.390  0.00  0.00    -0.286 OA
ATOM      5  C   UNL     1       6.117   6.806 -10.355  0.00  0.00    +0.042 A 
ATOM      6  C   UNL     1       4.767   6.930 -10.657  0.00  0.00    +0.009 A 
ATOM      7  C   UNL     1       3.843   6.506  -9.709  0.00  0.00    +0.063 A 
ENDROOT
BRANCH   1   8
ATOM      8  N   UNL     1       3.464   5.946  -7.390  0.00  0.00    -0.316 NA
ATOM      9  C   UNL     1       2.464   4.893  -7.252  0.00  0.00    +0.335 C 
ATOM     10  C   UNL     1       2.753   7.221  -7.379  0.00  0.00    +0.335 C 
BRANCH   8  12
ATOM     11  C   UNL     1       4.086   7.001  -5.266  0.00  0.00    +0.085 C 
ATOM     12  C   UNL     1       4.375   5.890  -6.265  0.00  0.00    +0.256 C 
ENDBRANCH   8  12
ENDBRANCH   1   8
TORSDOF 2
ENDMDL
MODEL 9
REMARK VINA RESULT:      -4.8      7.644      9.318
REMARK  Name = 
REMARK  2 active torsions:
REMARK  status: ('A' for Active; 'I' for Inactive)
REMARK    1  A    between atoms: C_2  and  N_3
REMARK    2  A    between atoms: N_3  and  C_6
REMARK                            x       y       z     vdW  Elec       q    Type
REMARK                         _______ _______ _______ _____ _____    ______ ____
ROOT
ATOM      1  C   UNL     1      -1.563   5.772  -4.372  0.00  0.00    +0.169 A 
ATOM      2  C   UNL     1      -0.249   5.331  -4.451  0.00  0.00    +0.105 A 
ATOM      3  C   UNL     1       0.343   5.123  -5.689  0.00  0.00    +0.201 A 
ATOM      4  O   UNL     1       1.688   4.834  -5.721  0.00  0.00    -0.286 OA
ATOM      5  C   UNL     1      -0.344   5.420  -6.860  0.00  0.00    +0.042 A 
ATOM      6  C   UNL     1      -1.728   5.357  -6.757  0.00  0.00    +0.009 A 
ATOM      7  C   UNL     1      -2.306   5.651  -5.526  0.00  0.00    +0.063 A 
ENDROOT
BRANCH   1   8
ATOM      8  N   UNL     1      -2.005   6.691  -3.368  0.00  0.00    -0.316 NA
ATOM      9  C   UNL     1      -3.371   6.380  -2.963  0.00  0.00    +0.335 C 
ATOM     10  C   UNL     1      -2.003   8.065  -3.863  0.00  0.00    +0.335 C 
BRANCH   8  12
ATOM     11  C   UNL     1      -1.825   5.892  -1.057  0.00  0.00    +0.085 C 
ATOM     12  C   UNL     1      -1.131   6.590  -2.218  0.00  0.00    +0.256 C 
ENDBRANCH   8  12
ENDBRANCH   1   8
TORSDOF 2
ENDMDL
