MODEL 1
REMARK VINA RESULT:      -8.9      0.000      0.000
REMARK  Name = 
REMARK  5 active torsions:
REMARK  status: ('A' for Active; 'I' for Inactive)
REMARK    1  A    between atoms: C_4  and  C_5
REMARK    2  A    between atoms: C_10  and  O_11
REMARK    3  A    between atoms: O_11  and  C_12
REMARK    4  A    between atoms: N_15  and  C_16
REMARK    5  A    between atoms: C_19  and  C_20
REMARK                            x       y       z     vdW  Elec       q    Type
REMARK                         _______ _______ _______ _____ _____    ______ ____
ROOT
ATOM      1  C   UNL     1       0.496   6.342  -5.450  0.00  0.00    +0.241 A 
ATOM      2  C   UNL     1      -0.891   6.432  -5.472  0.00  0.00    +0.123 A 
ATOM      3 BR   UNL     1      -1.846   7.693  -4.396  0.00  0.00    -0.041 Br
ATOM      4  C   UNL     1      -1.530   5.661  -6.423  0.00  0.00    +0.183 A 
ATOM      5  N   UNL     1      -2.943   5.620  -6.369  0.00  0.00    -0.106 NA
ATOM      6  N   UNL     1      -0.788   5.076  -7.367  0.00  0.00    -0.193 NA
ATOM      7  C   UNL     1       0.495   5.448  -7.591  0.00  0.00    +0.245 A 
ATOM      8  N   UNL     1       1.122   5.022  -8.791  0.00  0.00    -0.178 NA
ATOM      9  N   UNL     1       1.136   6.149  -6.629  0.00  0.00    -0.176 NA
ENDROOT
BRANCH   8  10
ATOM     10  C   UNL     1       0.464   5.378 -10.013  0.00  0.00    +0.074 A 
ATOM     11  C   UNL     1       0.253   4.409 -10.986  0.00  0.00    +0.017 A 
ATOM     12  C   UNL     1       0.348   4.722 -12.337  0.00  0.00    +0.012 A 
ATOM     13  C   UNL     1       0.770   5.980 -12.749  0.00  0.00    +0.069 A 
ATOM     14  C   UNL     1       0.561   6.996 -11.823  0.00  0.00    +0.012 A 
ATOM     15  C   UNL     1       0.479   6.690 -10.470  0.00  0.00    +0.017 A 
BRANCH  13  16
ATOM     16  C   UNL     1       1.632   6.136 -13.878  0.00  0.00    +0.100 C 
ATOM     17  N   UNL     1       2.369   6.266 -14.773  0.00  0.00    -0.191 NA
ENDBRANCH  13  16
ENDBRANCH   8  10
BRANCH   1  18
ATOM     18  O   UNL     1       1.149   7.102  -4.507  0.00  0.00    -0.436 OA
BRANCH  18  21
ATOM     19  C   UNL     1       4.000   7.298  -4.889  0.00  0.00    +0.034 C 
ATOM     20  C   UNL     1       3.318   7.207  -3.560  0.00  0.00    +0.013 A 
ATOM     21  C   UNL     1       2.054   6.631  -3.585  0.00  0.00    +0.139 A 
ATOM     22  C   UNL     1       1.571   6.009  -2.441  0.00  0.00    +0.013 A 
ATOM     23  C   UNL     1       0.270   5.316  -2.432  0.00  0.00    +0.034 C 
ATOM     24  C   UNL     1       2.386   5.895  -1.328  0.00  0.00    +0.009 A 
ATOM     25  C   UNL     1       3.577   6.612  -1.288  0.00  0.00    +0.068 A 
ATOM     26  C   UNL     1       4.014   7.368  -2.368  0.00  0.00    +0.009 A 
BRANCH  25  27
ATOM     27  C   UNL     1       4.383   6.649  -0.094  0.00  0.00    +0.100 C 
ATOM     28  N   UNL     1       4.858   6.548   0.962  0.00  0.00    -0.191 NA
ENDBRANCH  25  27
ENDBRANCH  18  21
ENDBRANCH   1  18
TORSDOF 5
ENDMDL
MODEL 2
REMARK VINA RESULT:      -8.9      3.184      8.159
REMARK  Name = 
REMARK  5 active torsions:
REMARK  status: ('A' for Active; 'I' for Inactive)
REMARK    1  A    between atoms: C_4  and  C_5
REMARK    2  A    between atoms: C_10  and  O_11
REMARK    3  A    between atoms: O_11  and  C_12
REMARK    4  A    between atoms: N_15  and  C_16
REMARK    5  A    between atoms: C_19  and  C_20
REMARK                            x       y       z     vdW  Elec       q    Type
REMARK                         _______ _______ _______ _____ _____    ______ ____
ROOT
ATOM      1  C   UNL     1       1.967   6.088  -6.788  0.00  0.00    +0.241 A 
ATOM      2  C   UNL     1       2.484   6.175  -5.500  0.00  0.00    +0.123 A 
ATOM      3 BR   UNL     1       4.067   7.175  -5.104  0.00  0.00    -0.041 Br
ATOM      4  C   UNL     1       1.708   5.621  -4.501  0.00  0.00    +0.183 A 
ATOM      5  N   UNL     1       2.278   5.563  -3.207  0.00  0.00    -0.106 NA
ATOM      6  N   UNL     1       0.459   5.253  -4.798  0.00  0.00    -0.193 NA
ATOM      7  C   UNL     1      -0.150   5.670  -5.935  0.00  0.00    +0.245 A 
ATOM      8  N   UNL     1      -1.556   5.512  -6.044  0.00  0.00    -0.178 NA
ATOM      9  N   UNL     1       0.621   6.153  -6.935  0.00  0.00    -0.176 NA
ENDROOT
BRANCH   8  10
ATOM     10  C   UNL     1      -2.346   6.116  -5.014  0.00  0.00    +0.074 A 
ATOM     11  C   UNL     1      -2.187   7.468  -4.731  0.00  0.00    +0.017 A 
ATOM     12  C   UNL     1      -2.276   7.940  -3.427  0.00  0.00    +0.012 A 
ATOM     13  C   UNL     1      -2.408   7.061  -2.359  0.00  0.00    +0.069 A 
ATOM     14  C   UNL     1      -2.971   5.831  -2.683  0.00  0.00    +0.012 A 
ATOM     15  C   UNL     1      -2.874   5.349  -3.983  0.00  0.00    +0.017 A 
BRANCH  13  16
ATOM     16  C   UNL     1      -1.722   7.290  -1.127  0.00  0.00    +0.100 C 
ATOM     17  N   UNL     1      -1.180   7.518  -0.118  0.00  0.00    -0.191 NA
ENDBRANCH  13  16
ENDBRANCH   8  10
BRANCH   1  18
ATOM     18  O   UNL     1       2.728   6.634  -7.796  0.00  0.00    -0.436 OA
BRANCH  18  21
ATOM     19  C   UNL     1       0.992   6.271 -10.069  0.00  0.00    +0.034 C 
ATOM     20  C   UNL     1       2.487   6.298 -10.129  0.00  0.00    +0.013 A 
ATOM     21  C   UNL     1       3.130   5.982  -8.938  0.00  0.00    +0.139 A 
ATOM     22  C   UNL     1       4.413   5.452  -8.982  0.00  0.00    +0.013 A 
ATOM     23  C   UNL     1       5.113   5.028  -7.755  0.00  0.00    +0.034 C 
ATOM     24  C   UNL     1       4.993   5.165 -10.205  0.00  0.00    +0.009 A 
ATOM     25  C   UNL     1       4.388   5.634 -11.366  0.00  0.00    +0.068 A 
ATOM     26  C   UNL     1       3.171   6.303 -11.339  0.00  0.00    +0.009 A 
BRANCH  25  27
ATOM     27  C   UNL     1       5.030   5.496 -12.648  0.00  0.00    +0.100 C 
ATOM     28  N   UNL     1       5.584   5.160 -13.614  0.00  0.00    -0.191 NA
ENDBRANCH  25  27
ENDBRANCH  18  21
ENDBRANCH   1  18
TORSDOF 5
ENDMDL
MODEL 3
REMARK VINA RESULT:      -8.4      4.035      5.649
REMARK  Name = 
REMARK  5 active torsions:
REMARK  status: ('A' for Active; 'I' for Inactive)
REMARK    1  A    between atoms: C_4  and  C_5
REMARK    2  A    between atoms: C_10  and  O_11
REMARK    3  A    between atoms: O_11  and  C_12
REMARK    4  A    between atoms: N_15  and  C_16
REMARK    5  A    between atoms: C_19  and  C_20
REMARK                            x       y       z     vdW  Elec       q    Type
REMARK                         _______ _______ _______ _____ _____    ______ ____
ROOT
ATOM      1  C   UNL     1       2.421   6.161  -8.859  0.00  0.00    +0.241 A 
ATOM      2  C   UNL     1       2.018   6.154 -10.190  0.00  0.00    +0.123 A 
ATOM      3 BR   UNL     1       0.434   7.052 -10.779  0.00  0.00    -0.041 Br
ATOM      4  C   UNL     1       2.905   5.587 -11.085  0.00  0.00    +0.183 A 
ATOM      5  N   UNL     1       2.456   5.433 -12.418  0.00  0.00    -0.106 NA
ATOM      6  N   UNL     1       4.137   5.298 -10.659  0.00  0.00    -0.193 NA
ATOM      7  C   UNL     1       4.622   5.804  -9.499  0.00  0.00    +0.245 A 
ATOM      8  N   UNL     1       6.019   5.722  -9.260  0.00  0.00    -0.178 NA
ATOM      9  N   UNL     1       3.744   6.300  -8.600  0.00  0.00    -0.176 NA
ENDROOT
BRANCH   8  10
ATOM     10  C   UNL     1       6.870   6.310 -10.250  0.00  0.00    +0.074 A 
ATOM     11  C   UNL     1       6.442   7.437 -10.940  0.00  0.00    +0.017 A 
ATOM     12  C   UNL     1       6.754   7.613 -12.283  0.00  0.00    +0.012 A 
ATOM     13  C   UNL     1       7.400   6.614 -13.001  0.00  0.00    +0.069 A 
ATOM     14  C   UNL     1       8.159   5.741 -12.229  0.00  0.00    +0.012 A 
ATOM     15  C   UNL     1       7.843   5.551 -10.889  0.00  0.00    +0.017 A 
BRANCH  13  16
ATOM     16  C   UNL     1       7.042   6.330 -14.354  0.00  0.00    +0.100 C 
ATOM     17  N   UNL     1       6.764   6.137 -15.472  0.00  0.00    -0.191 NA
ENDBRANCH  13  16
ENDBRANCH   8  10
BRANCH   1  18
ATOM     18  O   UNL     1       1.549   6.720  -7.954  0.00  0.00    -0.436 OA
BRANCH  18  21
ATOM     19  C   UNL     1       3.081   6.661  -5.513  0.00  0.00    +0.034 C 
ATOM     20  C   UNL     1       1.590   6.567  -5.590  0.00  0.00    +0.013 A 
ATOM     21  C   UNL     1       1.091   6.117  -6.806  0.00  0.00    +0.139 A 
ATOM     22  C   UNL     1      -0.146   5.486  -6.838  0.00  0.00    +0.013 A 
ATOM     23  C   UNL     1      -0.691   4.921  -8.087  0.00  0.00    +0.034 C 
ATOM     24  C   UNL     1      -0.818   5.236  -5.654  0.00  0.00    +0.009 A 
ATOM     25  C   UNL     1      -0.364   5.833  -4.482  0.00  0.00    +0.068 A 
ATOM     26  C   UNL     1       0.795   6.598  -4.451  0.00  0.00    +0.009 A 
BRANCH  25  27
ATOM     27  C   UNL     1      -1.114   5.730  -3.257  0.00  0.00    +0.100 C 
ATOM     28  N   UNL     1      -1.656   5.419  -2.276  0.00  0.00    -0.191 NA
ENDBRANCH  25  27
ENDBRANCH  18  21
ENDBRANCH   1  18
TORSDOF 5
ENDMDL
MODEL 4
REMARK VINA RESULT:      -7.8      2.829      3.880
REMARK  Name = 
REMARK  5 active torsions:
REMARK  status: ('A' for Active; 'I' for Inactive)
REMARK    1  A    between atoms: C_4  and  C_5
REMARK    2  A    between atoms: C_10  and  O_11
REMARK    3  A    between atoms: O_11  and  C_12
REMARK    4  A    between atoms: N_15  and  C_16
REMARK    5  A    between atoms: C_19  and  C_20
REMARK                            x       y       z     vdW  Elec       q    Type
REMARK                         _______ _______ _______ _____ _____    ______ ____
ROOT
ATOM      1  C   UNL     1       0.738   5.565  -4.538  0.00  0.00    +0.241 A 
ATOM      2  C   UNL     1       2.032   6.064  -4.628  0.00  0.00    +0.123 A 
ATOM      3 BR   UNL     1       3.389   5.610  -3.357  0.00  0.00    -0.041 Br
ATOM      4  C   UNL     1       2.321   6.789  -5.768  0.00  0.00    +0.183 A 
ATOM      5  N   UNL     1       3.580   7.432  -5.814  0.00  0.00    -0.106 NA
ATOM      6  N   UNL     1       1.439   6.771  -6.771  0.00  0.00    -0.193 NA
ATOM      7  C   UNL     1       0.444   5.852  -6.822  0.00  0.00    +0.245 A 
ATOM      8  N   UNL     1      -0.256   5.684  -8.045  0.00  0.00    -0.178 NA
ATOM      9  N   UNL     1       0.123   5.191  -5.687  0.00  0.00    -0.176 NA
ENDROOT
BRANCH   8  10
ATOM     10  C   UNL     1       0.538   5.364  -9.193  0.00  0.00    +0.074 A 
ATOM     11  C   UNL     1       1.679   4.585  -9.044  0.00  0.00    +0.017 A 
ATOM     12  C   UNL     1       2.815   4.829  -9.805  0.00  0.00    +0.012 A 
ATOM     13  C   UNL     1       2.882   5.930 -10.651  0.00  0.00    +0.069 A 
ATOM     14  C   UNL     1       1.650   6.407 -11.085  0.00  0.00    +0.012 A 
ATOM     15  C   UNL     1       0.513   6.177 -10.320  0.00  0.00    +0.017 A 
BRANCH  13  16
ATOM     16  C   UNL     1       4.088   6.685 -10.783  0.00  0.00    +0.100 C 
ATOM     17  N   UNL     1       5.087   7.284 -10.853  0.00  0.00    -0.191 NA
ENDBRANCH  13  16
ENDBRANCH   8  10
BRANCH   1  18
ATOM     18  O   UNL     1       0.432   4.842  -3.408  0.00  0.00    -0.436 OA
BRANCH  18  21
ATOM     19  C   UNL     1       1.596   4.801  -0.771  0.00  0.00    +0.034 C 
ATOM     20  C   UNL     1       0.543   5.760  -1.227  0.00  0.00    +0.013 A 
ATOM     21  C   UNL     1      -0.225   5.326  -2.301  0.00  0.00    +0.139 A 
ATOM     22  C   UNL     1      -1.512   5.825  -2.459  0.00  0.00    +0.013 A 
ATOM     23  C   UNL     1      -2.397   5.343  -3.536  0.00  0.00    +0.034 C 
ATOM     24  C   UNL     1      -2.039   6.673  -1.502  0.00  0.00    +0.009 A 
ATOM     25  C   UNL     1      -1.196   7.202  -0.531  0.00  0.00    +0.068 A 
ATOM     26  C   UNL     1       0.141   6.834  -0.441  0.00  0.00    +0.009 A 
BRANCH  25  27
ATOM     27  C   UNL     1      -1.661   8.207   0.391  0.00  0.00    +0.100 C 
ATOM     28  N   UNL     1      -1.810   9.089   1.133  0.00  0.00    -0.191 NA
ENDBRANCH  25  27
ENDBRANCH  18  21
ENDBRANCH   1  18
TORSDOF 5
ENDMDL
MODEL 5
REMARK VINA RESULT:      -7.7      2.455      8.869
REMARK  Name = 
REMARK  5 active torsions:
REMARK  status: ('A' for Active; 'I' for Inactive)
REMARK    1  A    between atoms: C_4  and  C_5
REMARK    2  A    between atoms: C_10  and  O_11
REMARK    3  A    between atoms: O_11  and  C_12
REMARK    4  A    between atoms: N_15  and  C_16
REMARK    5  A    between atoms: C_19  and  C_20
REMARK                            x       y       z     vdW  Elec       q    Type
REMARK                         _______ _______ _______ _____ _____    ______ ____
ROOT
ATOM      1  C   UNL     1       2.350   6.126  -7.594  0.00  0.00    +0.241 A 
ATOM      2  C   UNL     1       1.193   6.158  -6.825  0.00  0.00    +0.123 A 
ATOM      3 BR   UNL     1      -0.366   5.151  -7.291  0.00  0.00    -0.041 Br
ATOM      4  C   UNL     1       1.283   6.841  -5.628  0.00  0.00    +0.183 A 
ATOM      5  N   UNL     1       0.082   7.014  -4.899  0.00  0.00    -0.106 NA
ATOM      6  N   UNL     1       2.491   7.219  -5.203  0.00  0.00    -0.193 NA
ATOM      7  C   UNL     1       3.623   6.706  -5.743  0.00  0.00    +0.245 A 
ATOM      8  N   UNL     1       4.848   6.900  -5.053  0.00  0.00    -0.178 NA
ATOM      9  N   UNL     1       3.540   6.093  -6.945  0.00  0.00    -0.176 NA
ENDROOT
BRANCH   8  10
ATOM     10  C   UNL     1       4.896   6.435  -3.699  0.00  0.00    +0.074 A 
ATOM     11  C   UNL     1       4.387   5.180  -3.386  0.00  0.00    +0.017 A 
ATOM     12  C   UNL     1       3.727   4.958  -2.184  0.00  0.00    +0.012 A 
ATOM     13  C   UNL     1       3.453   6.008  -1.316  0.00  0.00    +0.069 A 
ATOM     14  C   UNL     1       4.305   7.100  -1.438  0.00  0.00    +0.012 A 
ATOM     15  C   UNL     1       4.958   7.335  -2.642  0.00  0.00    +0.017 A 
BRANCH  13  16
ATOM     16  C   UNL     1       2.214   6.075  -0.608  0.00  0.00    +0.100 C 
ATOM     17  N   UNL     1       1.212   6.093  -0.009  0.00  0.00    -0.191 NA
ENDBRANCH  13  16
ENDBRANCH   8  10
BRANCH   1  18
ATOM     18  O   UNL     1       2.278   5.452  -8.791  0.00  0.00    -0.436 OA
BRANCH  18  21
ATOM     19  C   UNL     1       5.016   5.879  -9.586  0.00  0.00    +0.034 C 
ATOM     20  C   UNL     1       3.876   5.651 -10.528  0.00  0.00    +0.013 A 
ATOM     21  C   UNL     1       2.621   5.963 -10.021  0.00  0.00    +0.139 A 
ATOM     22  C   UNL     1       1.604   6.316 -10.899  0.00  0.00    +0.013 A 
ATOM     23  C   UNL     1       0.275   6.729 -10.412  0.00  0.00    +0.034 C 
ATOM     24  C   UNL     1       1.878   6.437 -12.250  0.00  0.00    +0.009 A 
ATOM     25  C   UNL     1       3.096   5.972 -12.735  0.00  0.00    +0.068 A 
ATOM     26  C   UNL     1       4.079   5.471 -11.891  0.00  0.00    +0.009 A 
BRANCH  25  27
ATOM     27  C   UNL     1       3.366   5.933 -14.150  0.00  0.00    +0.100 C 
ATOM     28  N   UNL     1       3.676   6.119 -15.255  0.00  0.00    -0.191 NA
ENDBRANCH  25  27
ENDBRANCH  18  21
ENDBRANCH   1  18
TORSDOF 5
ENDMDL
MODEL 6
REMARK VINA RESULT:      -7.7      3.120      7.900
REMARK  Name = 
REMARK  5 active torsions:
REMARK  status: ('A' for Active; 'I' for Inactive)
REMARK    1  A    between atoms: C_4  and  C_5
REMARK    2  A    between atoms: C_10  and  O_11
REMARK    3  A    between atoms: O_11  and  C_12
REMARK    4  A    between atoms: N_15  and  C_16
REMARK    5  A    between atoms: C_19  and  C_20
REMARK                            x       y       z     vdW  Elec       q    Type
REMARK                         _______ _______ _______ _____ _____    ______ ____
ROOT
ATOM      1  C   UNL     1       2.862   5.755  -5.719  0.00  0.00    +0.241 A 
ATOM      2  C   UNL     1       3.103   6.109  -4.397  0.00  0.00    +0.123 A 
ATOM      3 BR   UNL     1       4.548   7.262  -3.899  0.00  0.00    -0.041 Br
ATOM      4  C   UNL     1       2.153   5.701  -3.481  0.00  0.00    +0.183 A 
ATOM      5  N   UNL     1       2.449   5.918  -2.114  0.00  0.00    -0.106 NA
ATOM      6  N   UNL     1       1.000   5.208  -3.940  0.00  0.00    -0.193 NA
ATOM      7  C   UNL     1       0.626   5.370  -5.232  0.00  0.00    +0.245 A 
ATOM      8  N   UNL     1      -0.724   5.107  -5.582  0.00  0.00    -0.178 NA
ATOM      9  N   UNL     1       1.573   5.708  -6.136  0.00  0.00    -0.176 NA
ENDROOT
BRANCH   8  10
ATOM     10  C   UNL     1      -1.722   5.841  -4.862  0.00  0.00    +0.074 A 
ATOM     11  C   UNL     1      -1.655   7.228  -4.818  0.00  0.00    +0.017 A 
ATOM     12  C   UNL     1      -2.019   7.925  -3.672  0.00  0.00    +0.012 A 
ATOM     13  C   UNL     1      -2.347   7.249  -2.503  0.00  0.00    +0.069 A 
ATOM     14  C   UNL     1      -2.804   5.949  -2.689  0.00  0.00    +0.012 A 
ATOM     15  C   UNL     1      -2.432   5.244  -3.828  0.00  0.00    +0.017 A 
BRANCH  13  16
ATOM     16  C   UNL     1      -1.934   7.742  -1.226  0.00  0.00    +0.100 C 
ATOM     17  N   UNL     1      -1.602   8.186  -0.199  0.00  0.00    -0.191 NA
ENDBRANCH  13  16
ENDBRANCH   8  10
BRANCH   1  18
ATOM     18  O   UNL     1       3.798   6.152  -6.645  0.00  0.00    -0.436 OA
BRANCH  18  21
ATOM     19  C   UNL     1       5.482   4.865  -8.599  0.00  0.00    +0.034 C 
ATOM     20  C   UNL     1       4.055   5.254  -8.822  0.00  0.00    +0.013 A 
ATOM     21  C   UNL     1       3.586   6.270  -7.999  0.00  0.00    +0.139 A 
ATOM     22  C   UNL     1       2.536   7.067  -8.438  0.00  0.00    +0.013 A 
ATOM     23  C   UNL     1       2.048   8.207  -7.640  0.00  0.00    +0.034 C 
ATOM     24  C   UNL     1       2.036   6.896  -9.717  0.00  0.00    +0.009 A 
ATOM     25  C   UNL     1       2.423   5.779 -10.449  0.00  0.00    +0.068 A 
ATOM     26  C   UNL     1       3.364   4.877  -9.968  0.00  0.00    +0.009 A 
BRANCH  25  27
ATOM     27  C   UNL     1       1.814   5.474 -11.719  0.00  0.00    +0.100 C 
ATOM     28  N   UNL     1       1.537   5.140 -12.797  0.00  0.00    -0.191 NA
ENDBRANCH  25  27
ENDBRANCH  18  21
ENDBRANCH   1  18
TORSDOF 5
ENDMDL
MODEL 7
REMARK VINA RESULT:      -7.7      2.614      2.851
REMARK  Name = 
REMARK  5 active torsions:
REMARK  status: ('A' for Active; 'I' for Inactive)
REMARK    1  A    between atoms: C_4  and  C_5
REMARK    2  A    between atoms: C_10  and  O_11
REMARK    3  A    between atoms: O_11  and  C_12
REMARK    4  A    between atoms: N_15  and  C_16
REMARK    5  A    between atoms: C_19  and  C_20
REMARK                            x       y       z     vdW  Elec       q    Type
REMARK                         _______ _______ _______ _____ _____    ______ ____
ROOT
ATOM      1  C   UNL     1       2.138   6.424  -5.312  0.00  0.00    +0.241 A 
ATOM      2  C   UNL     1       0.900   6.323  -5.936  0.00  0.00    +0.123 A 
ATOM      3 BR   UNL     1      -0.628   7.304  -5.330  0.00  0.00    -0.041 Br
ATOM      4  C   UNL     1       0.873   5.590  -7.106  0.00  0.00    +0.183 A 
ATOM      5  N   UNL     1      -0.398   5.348  -7.680  0.00  0.00    -0.106 NA
ATOM      6  N   UNL     1       2.036   5.230  -7.656  0.00  0.00    -0.193 NA
ATOM      7  C   UNL     1       3.205   5.800  -7.276  0.00  0.00    +0.245 A 
ATOM      8  N   UNL     1       4.346   5.611  -8.099  0.00  0.00    -0.178 NA
ATOM      9  N   UNL     1       3.242   6.464  -6.099  0.00  0.00    -0.176 NA
ENDROOT
BRANCH   8  10
ATOM     10  C   UNL     1       4.218   6.016  -9.467  0.00  0.00    +0.074 A 
ATOM     11  C   UNL     1       3.755   5.106 -10.410  0.00  0.00    +0.017 A 
ATOM     12  C   UNL     1       4.265   5.097 -11.703  0.00  0.00    +0.012 A 
ATOM     13  C   UNL     1       5.333   5.915 -12.053  0.00  0.00    +0.069 A 
ATOM     14  C   UNL     1       5.475   7.054 -11.267  0.00  0.00    +0.012 A 
ATOM     15  C   UNL     1       4.978   7.064  -9.970  0.00  0.00    +0.017 A 
BRANCH  13  16
ATOM     16  C   UNL     1       6.366   5.448 -12.922  0.00  0.00    +0.100 C 
ATOM     17  N   UNL     1       7.197   5.095 -13.662  0.00  0.00    -0.191 NA
ENDBRANCH  13  16
ENDBRANCH   8  10
BRANCH   1  18
ATOM     18  O   UNL     1       2.184   7.150  -4.144  0.00  0.00    -0.436 OA
BRANCH  18  21
ATOM     19  C   UNL     1       4.972   7.812  -3.838  0.00  0.00    +0.034 C 
ATOM     20  C   UNL     1       4.016   7.590  -2.709  0.00  0.00    +0.013 A 
ATOM     21  C   UNL     1       2.905   6.816  -3.022  0.00  0.00    +0.139 A 
ATOM     22  C   UNL     1       2.269   6.105  -2.012  0.00  0.00    +0.013 A 
ATOM     23  C   UNL     1       1.133   5.210  -2.299  0.00  0.00    +0.034 C 
ATOM     24  C   UNL     1       2.801   6.107  -0.735  0.00  0.00    +0.009 A 
ATOM     25  C   UNL     1       3.816   7.007  -0.428  0.00  0.00    +0.068 A 
ATOM     26  C   UNL     1       4.371   7.842  -1.389  0.00  0.00    +0.009 A 
BRANCH  25  27
ATOM     27  C   UNL     1       4.295   7.154   0.923  0.00  0.00    +0.100 C 
ATOM     28  N   UNL     1       4.697   7.036   2.007  0.00  0.00    -0.191 NA
ENDBRANCH  25  27
ENDBRANCH  18  21
ENDBRANCH   1  18
TORSDOF 5
ENDMDL
MODEL 8
REMARK VINA RESULT:      -7.7      3.929      9.014
REMARK  Name = 
REMARK  5 active torsions:
REMARK  status: ('A' for Active; 'I' for Inactive)
REMARK    1  A    between atoms: C_4  and  C_5
REMARK    2  A    between atoms: C_10  and  O_11
REMARK    3  A    between atoms: O_11  and  C_12
REMARK    4  A    between atoms: N_15  and  C_16
REMARK    5  A    between atoms: C_19  and  C_20
REMARK                            x       y       z     vdW  Elec       q    Type
REMARK                         _______ _______ _______ _____ _____    ______ ____
ROOT
ATOM      1  C   UNL     1       4.172   5.692  -7.938  0.00  0.00    +0.241 A 
ATOM      2  C   UNL     1       2.894   5.205  -7.687  0.00  0.00    +0.123 A 
ATOM      3 BR   UNL     1       2.196   3.668  -8.587  0.00  0.00    -0.041 Br
ATOM      4  C   UNL     1       2.215   5.805  -6.644  0.00  0.00    +0.183 A 
ATOM      5  N   UNL     1       0.862   5.431  -6.464  0.00  0.00    -0.106 NA
ATOM      6  N   UNL     1       2.890   6.627  -5.837  0.00  0.00    -0.193 NA
ATOM      7  C   UNL     1       4.245   6.654  -5.828  0.00  0.00    +0.245 A 
ATOM      8  N   UNL     1       4.900   7.304  -4.749  0.00  0.00    -0.178 NA
ATOM      9  N   UNL     1       4.904   6.122  -6.881  0.00  0.00    -0.176 NA
ENDROOT
BRANCH   8  10
ATOM     10  C   UNL     1       4.577   6.834  -3.435  0.00  0.00    +0.074 A 
ATOM     11  C   UNL     1       4.568   5.469  -3.177  0.00  0.00    +0.017 A 
ATOM     12  C   UNL     1       3.634   4.912  -2.312  0.00  0.00    +0.012 A 
ATOM     13  C   UNL     1       2.612   5.685  -1.774  0.00  0.00    +0.069 A 
ATOM     14  C   UNL     1       2.888   7.046  -1.702  0.00  0.00    +0.012 A 
ATOM     15  C   UNL     1       3.812   7.610  -2.573  0.00  0.00    +0.017 A 
BRANCH  13  16
ATOM     16  C   UNL     1       1.291   5.160  -1.625  0.00  0.00    +0.100 C 
ATOM     17  N   UNL     1       0.205   4.741  -1.545  0.00  0.00    -0.191 NA
ENDBRANCH  13  16
ENDBRANCH   8  10
BRANCH   1  18
ATOM     18  O   UNL     1       4.863   5.107  -8.974  0.00  0.00    -0.436 OA
BRANCH  18  21
ATOM     19  C   UNL     1       7.606   5.968  -9.177  0.00  0.00    +0.034 C 
ATOM     20  C   UNL     1       6.715   5.667 -10.340  0.00  0.00    +0.013 A 
ATOM     21  C   UNL     1       5.354   5.762 -10.080  0.00  0.00    +0.139 A 
ATOM     22  C   UNL     1       4.482   6.045 -11.124  0.00  0.00    +0.013 A 
ATOM     23  C   UNL     1       3.038   6.231 -10.893  0.00  0.00    +0.034 C 
ATOM     24  C   UNL     1       4.989   6.315 -12.383  0.00  0.00    +0.009 A 
ATOM     25  C   UNL     1       6.332   6.062 -12.639  0.00  0.00    +0.068 A 
ATOM     26  C   UNL     1       7.199   5.631 -11.643  0.00  0.00    +0.009 A 
BRANCH  25  27
ATOM     27  C   UNL     1       6.871   6.179 -13.970  0.00  0.00    +0.100 C 
ATOM     28  N   UNL     1       7.136   6.437 -15.072  0.00  0.00    -0.191 NA
ENDBRANCH  25  27
ENDBRANCH  18  21
ENDBRANCH   1  18
TORSDOF 5
ENDMDL
MODEL 9
REMARK VINA RESULT:      -7.6      3.766      5.537
REMARK  Name = 
REMARK  5 active torsions:
REMARK  status: ('A' for Active; 'I' for Inactive)
REMARK    1  A    between atoms: C_4  and  C_5
REMARK    2  A    between atoms: C_10  and  O_11
REMARK    3  A    between atoms: O_11  and  C_12
REMARK    4  A    between atoms: N_15  and  C_16
REMARK    5  A    between atoms: C_19  and  C_20
REMARK                            x       y       z     vdW  Elec       q    Type
REMARK                         _______ _______ _______ _____ _____    ______ ____
ROOT
ATOM      1  C   UNL     1       1.448   5.757  -9.782  0.00  0.00    +0.241 A 
ATOM      2  C   UNL     1       1.216   6.160 -11.092  0.00  0.00    +0.123 A 
ATOM      3 BR   UNL     1      -0.225   7.330 -11.556  0.00  0.00    -0.041 Br
ATOM      4  C   UNL     1       2.171   5.785 -12.016  0.00  0.00    +0.183 A 
ATOM      5  N   UNL     1       1.884   6.052 -13.376  0.00  0.00    -0.106 NA
ATOM      6  N   UNL     1       3.321   5.274 -11.568  0.00  0.00    -0.193 NA
ATOM      7  C   UNL     1       3.687   5.389 -10.269  0.00  0.00    +0.245 A 
ATOM      8  N   UNL     1       5.035   5.112  -9.921  0.00  0.00    -0.178 NA
ATOM      9  N   UNL     1       2.735   5.694  -9.359  0.00  0.00    -0.176 NA
ENDROOT
BRANCH   8  10
ATOM     10  C   UNL     1       6.037   5.871 -10.607  0.00  0.00    +0.074 A 
ATOM     11  C   UNL     1       5.866   7.240 -10.775  0.00  0.00    +0.017 A 
ATOM     12  C   UNL     1       6.285   7.874 -11.938  0.00  0.00    +0.012 A 
ATOM     13  C   UNL     1       6.777   7.141 -13.011  0.00  0.00    +0.069 A 
ATOM     14  C   UNL     1       7.315   5.904 -12.673  0.00  0.00    +0.012 A 
ATOM     15  C   UNL     1       6.890   5.259 -11.517  0.00  0.00    +0.017 A 
BRANCH  13  16
ATOM     16  C   UNL     1       6.454   7.496 -14.357  0.00  0.00    +0.100 C 
ATOM     17  N   UNL     1       6.213   7.822 -15.452  0.00  0.00    -0.191 NA
ENDBRANCH  13  16
ENDBRANCH   8  10
BRANCH   1  18
ATOM     18  O   UNL     1       0.506   6.120  -8.848  0.00  0.00    -0.436 OA
BRANCH  18  21
ATOM     19  C   UNL     1      -1.178   4.824  -6.901  0.00  0.00    +0.034 C 
ATOM     20  C   UNL     1       0.250   5.208  -6.677  0.00  0.00    +0.013 A 
ATOM     21  C   UNL     1       0.721   6.228  -7.494  0.00  0.00    +0.139 A 
ATOM     22  C   UNL     1       1.774   7.019  -7.051  0.00  0.00    +0.013 A 
ATOM     23  C   UNL     1       2.264   8.163  -7.842  0.00  0.00    +0.034 C 
ATOM     24  C   UNL     1       2.275   6.838  -5.774  0.00  0.00    +0.009 A 
ATOM     25  C   UNL     1       1.887   5.716  -5.050  0.00  0.00    +0.068 A 
ATOM     26  C   UNL     1       0.942   4.821  -5.535  0.00  0.00    +0.009 A 
BRANCH  25  27
ATOM     27  C   UNL     1       2.496   5.402  -3.783  0.00  0.00    +0.100 C 
ATOM     28  N   UNL     1       2.857   5.329  -2.680  0.00  0.00    -0.191 NA
ENDBRANCH  25  27
ENDBRANCH  18  21
ENDBRANCH   1  18
TORSDOF 5
ENDMDL
