MODEL 1
REMARK VINA RESULT:      -3.0      0.000      0.000
REMARK  Name = 
REMARK  1 active torsions:
REMARK  status: ('A' for Active; 'I' for Inactive)
REMARK    1  A    between atoms: C_2  and  C_4
REMARK                            x       y       z     vdW  Elec       q    Type
REMARK                         _______ _______ _______ _____ _____    ______ ____
ROOT
ATOM      1  C   UNL     1       7.239   7.310 -10.891  0.00  0.00    +0.038 C 
ATOM      2  C   UNL     1       7.546   5.696 -10.708  0.00  0.00    +0.185 C 
ATOM      3  O   UNL     1       6.218   5.387 -11.389  0.00  0.00    -0.220 OA
ENDROOT
BRANCH   2   4
ATOM      4  C   UNL     1       8.385   5.613 -12.127  0.00  0.00    +0.215 C 
ATOM      5  O   UNL     1       7.836   4.642 -12.872  0.00  0.00    -0.218 OA
ENDBRANCH   2   4
TORSDOF 1
ENDMDL
MODEL 2
REMARK VINA RESULT:      -2.9      1.724      2.204
REMARK  Name = 
REMARK  1 active torsions:
REMARK  status: ('A' for Active; 'I' for Inactive)
REMARK    1  A    between atoms: C_2  and  C_4
REMARK                            x       y       z     vdW  Elec       q    Type
REMARK                         _______ _______ _______ _____ _____    ______ ____
ROOT
ATOM      1  C   UNL     1       7.816   6.478 -11.553  0.00  0.00    +0.038 C 
ATOM      2  C   UNL     1       7.636   6.002 -13.126  0.00  0.00    +0.185 C 
ATOM      3  O   UNL     1       7.791   4.553 -12.684  0.00  0.00    -0.220 OA
ENDROOT
BRANCH   2   4
ATOM      4  C   UNL     1       5.991   5.949 -13.004  0.00  0.00    +0.215 C 
ATOM      5  O   UNL     1       5.586   4.753 -13.459  0.00  0.00    -0.218 OA
ENDBRANCH   2   4
TORSDOF 1
ENDMDL
MODEL 3
REMARK VINA RESULT:      -2.9     12.435     13.140
REMARK  Name = 
REMARK  1 active torsions:
REMARK  status: ('A' for Active; 'I' for Inactive)
REMARK    1  A    between atoms: C_2  and  C_4
REMARK                            x       y       z     vdW  Elec       q    Type
REMARK                         _______ _______ _______ _____ _____    ______ ____
ROOT
ATOM      1  C   UNL     1      -2.683   6.910  -2.674  0.00  0.00    +0.038 C 
ATOM      2  C   UNL     1      -2.223   5.646  -1.714  0.00  0.00    +0.185 C 
ATOM      3  O   UNL     1      -2.813   4.682  -2.736  0.00  0.00    -0.220 OA
ENDROOT
BRANCH   2   4
ATOM      4  C   UNL     1      -0.720   5.573  -2.393  0.00  0.00    +0.215 C 
ATOM      5  O   UNL     1       0.002   4.684  -1.694  0.00  0.00    -0.218 OA
ENDBRANCH   2   4
TORSDOF 1
ENDMDL
MODEL 4
REMARK VINA RESULT:      -2.8     11.905     12.721
REMARK  Name = 
REMARK  1 active torsions:
REMARK  status: ('A' for Active; 'I' for Inactive)
REMARK    1  A    between atoms: C_2  and  C_4
REMARK                            x       y       z     vdW  Elec       q    Type
REMARK                         _______ _______ _______ _____ _____    ______ ____
ROOT
ATOM      1  C   UNL     1      -2.243   7.399  -4.482  0.00  0.00    +0.038 C 
ATOM      2  C   UNL     1      -2.449   5.768  -4.653  0.00  0.00    +0.185 C 
ATOM      3  O   UNL     1      -1.097   5.548  -3.987  0.00  0.00    -0.220 OA
ENDROOT
BRANCH   2   4
ATOM      4  C   UNL     1      -3.265   5.640  -3.225  0.00  0.00    +0.215 C 
ATOM      5  O   UNL     1      -2.706   4.644  -2.521  0.00  0.00    -0.218 OA
ENDBRANCH   2   4
TORSDOF 1
ENDMDL
MODEL 5
REMARK VINA RESULT:      -2.6     13.949     14.281
REMARK  Name = 
REMARK  1 active torsions:
REMARK  status: ('A' for Active; 'I' for Inactive)
REMARK    1  A    between atoms: C_2  and  C_4
REMARK                            x       y       z     vdW  Elec       q    Type
REMARK                         _______ _______ _______ _____ _____    ______ ____
ROOT
ATOM      1  C   UNL     1       9.651   2.848   2.847  0.00  0.00    +0.038 C 
ATOM      2  C   UNL     1      11.183   2.659   2.256  0.00  0.00    +0.185 C 
ATOM      3  O   UNL     1      10.611   2.601   0.846  0.00  0.00    -0.220 OA
ENDROOT
BRANCH   2   4
ATOM      4  C   UNL     1      11.438   4.287   2.173  0.00  0.00    +0.215 C 
ATOM      5  O   UNL     1      12.446   4.501   1.312  0.00  0.00    -0.218 OA
ENDBRANCH   2   4
TORSDOF 1
ENDMDL
MODEL 6
REMARK VINA RESULT:      -2.4      7.387      7.720
REMARK  Name = 
REMARK  1 active torsions:
REMARK  status: ('A' for Active; 'I' for Inactive)
REMARK    1  A    between atoms: C_2  and  C_4
REMARK                            x       y       z     vdW  Elec       q    Type
REMARK                         _______ _______ _______ _____ _____    ______ ____
ROOT
ATOM      1  C   UNL     1       5.079   7.651  -4.342  0.00  0.00    +0.038 C 
ATOM      2  C   UNL     1       3.623   6.883  -4.496  0.00  0.00    +0.185 C 
ATOM      3  O   UNL     1       3.503   7.439  -5.909  0.00  0.00    -0.220 OA
ENDROOT
BRANCH   2   4
ATOM      4  C   UNL     1       4.325   5.485  -5.019  0.00  0.00    +0.215 C 
ATOM      5  O   UNL     1       5.065   4.996  -4.011  0.00  0.00    -0.218 OA
ENDBRANCH   2   4
TORSDOF 1
ENDMDL
MODEL 7
REMARK VINA RESULT:      -2.4     11.335     11.841
REMARK  Name = 
REMARK  1 active torsions:
REMARK  status: ('A' for Active; 'I' for Inactive)
REMARK    1  A    between atoms: C_2  and  C_4
REMARK                            x       y       z     vdW  Elec       q    Type
REMARK                         _______ _______ _______ _____ _____    ______ ____
ROOT
ATOM      1  C   UNL     1      -2.443   5.847  -6.025  0.00  0.00    +0.038 C 
ATOM      2  C   UNL     1      -2.333   6.297  -4.438  0.00  0.00    +0.185 C 
ATOM      3  O   UNL     1      -1.137   5.367  -4.279  0.00  0.00    -0.220 OA
ENDROOT
BRANCH   2   4
ATOM      4  C   UNL     1      -1.378   7.596  -4.790  0.00  0.00    +0.215 C 
ATOM      5  O   UNL     1      -1.948   8.683  -4.245  0.00  0.00    -0.218 OA
ENDBRANCH   2   4
TORSDOF 1
ENDMDL
MODEL 8
REMARK VINA RESULT:      -2.4      6.551      7.052
REMARK  Name = 
REMARK  1 active torsions:
REMARK  status: ('A' for Active; 'I' for Inactive)
REMARK    1  A    between atoms: C_2  and  C_4
REMARK                            x       y       z     vdW  Elec       q    Type
REMARK                         _______ _______ _______ _____ _____    ______ ____
ROOT
ATOM      1  C   UNL     1       3.728   6.883  -5.559  0.00  0.00    +0.038 C 
ATOM      2  C   UNL     1       3.363   6.429  -7.107  0.00  0.00    +0.185 C 
ATOM      3  O   UNL     1       2.694   5.175  -6.559  0.00  0.00    -0.220 OA
ENDROOT
BRANCH   2   4
ATOM      4  C   UNL     1       1.950   7.282  -7.108  0.00  0.00    +0.215 C 
ATOM      5  O   UNL     1       2.133   8.377  -7.862  0.00  0.00    -0.218 OA
ENDBRANCH   2   4
TORSDOF 1
ENDMDL
MODEL 9
REMARK VINA RESULT:      -2.3      8.752      9.343
REMARK  Name = 
REMARK  1 active torsions:
REMARK  status: ('A' for Active; 'I' for Inactive)
REMARK    1  A    between atoms: C_2  and  C_4
REMARK                            x       y       z     vdW  Elec       q    Type
REMARK                         _______ _______ _______ _____ _____    ______ ____
ROOT
ATOM      1  C   UNL     1      -1.052   5.292  -6.773  0.00  0.00    +0.038 C 
ATOM      2  C   UNL     1       0.383   6.037  -6.430  0.00  0.00    +0.185 C 
ATOM      3  O   UNL     1      -0.331   6.883  -5.383  0.00  0.00    -0.220 OA
ENDROOT
BRANCH   2   4
ATOM      4  C   UNL     1       0.808   4.886  -5.327  0.00  0.00    +0.215 C 
ATOM      5  O   UNL     1       1.223   3.803  -6.005  0.00  0.00    -0.218 OA
ENDBRANCH   2   4
TORSDOF 1
ENDMDL
