MODEL 1
REMARK VINA RESULT:      -6.4      0.000      0.000
REMARK  Name = 
REMARK  5 active torsions:
REMARK  status: ('A' for Active; 'I' for Inactive)
REMARK    1  A    between atoms: C_2  and  N_3
REMARK    2  A    between atoms: C_5  and  O_7
REMARK    3  A    between atoms: O_7  and  C_8
REMARK    4  A    between atoms: C_12  and  C_13
REMARK    5  A    between atoms: C_13  and  N_15
REMARK                            x       y       z     vdW  Elec       q    Type
REMARK                         _______ _______ _______ _____ _____    ______ ____
ROOT
ATOM      1  C   UNL     1       3.909   6.412  -9.575  0.00  0.00    +0.150 A 
ATOM      2  C   UNL     1       4.914   6.943 -10.379  0.00  0.00    +0.035 A 
ATOM      3  C   UNL     1       6.115   6.234 -10.442  0.00  0.00    -0.005 A 
ATOM      4  C   UNL     1       6.506   5.794  -9.172  0.00  0.00    -0.003 A 
ATOM      5  C   UNL     1       5.559   4.993  -8.543  0.00  0.00    +0.003 A 
ATOM      6  C   UNL     1       4.244   5.218  -8.938  0.00  0.00    +0.038 A 
ENDROOT
BRANCH   3   7
ATOM      7  C   UNL     1       7.301   6.966 -11.254  0.00  0.00    +0.080 C 
ATOM      8  C   UNL     1       6.387   7.201 -12.605  0.00  0.00    +0.022 C 
BRANCH   7   9
ATOM      9  N   UNL     1       7.863   5.609 -11.824  0.00  0.00    -0.268 NA
ATOM     10  C   UNL     1       9.220   5.814 -12.206  0.00  0.00    +0.090 C 
ATOM     11  C   UNL     1       7.114   5.431 -13.067  0.00  0.00    +0.090 C 
ENDBRANCH   7   9
ENDBRANCH   3   7
BRANCH   1  12
ATOM     12  O   UNL     1       2.837   7.202  -9.121  0.00  0.00    -0.410 OA
BRANCH  12  14
ATOM     13  N   UNL     1       1.247   5.997  -7.632  0.00  0.00    -0.244 N 
ATOM     14  C   UNL     1       2.298   6.940  -7.877  0.00  0.00    +0.409 C 
ATOM     15  O   UNL     1       2.896   7.524  -6.922  0.00  0.00    -0.226 OA
ATOM     16  C   UNL     1       0.391   5.607  -8.750  0.00  0.00    +0.118 C 
BRANCH  13  18
ATOM     17  C   UNL     1      -0.887   5.632  -6.499  0.00  0.00    +0.023 C 
ATOM     18  C   UNL     1       0.488   6.278  -6.413  0.00  0.00    +0.097 C 
ENDBRANCH  13  18
ENDBRANCH  12  14
ENDBRANCH   1  12
TORSDOF 5
ENDMDL
MODEL 2
REMARK VINA RESULT:      -6.4      3.215      8.478
REMARK  Name = 
REMARK  5 active torsions:
REMARK  status: ('A' for Active; 'I' for Inactive)
REMARK    1  A    between atoms: C_2  and  N_3
REMARK    2  A    between atoms: C_5  and  O_7
REMARK    3  A    between atoms: O_7  and  C_8
REMARK    4  A    between atoms: C_12  and  C_13
REMARK    5  A    between atoms: C_13  and  N_15
REMARK                            x       y       z     vdW  Elec       q    Type
REMARK                         _______ _______ _______ _____ _____    ______ ____
ROOT
ATOM      1  C   UNL     1       0.566   6.494  -6.221  0.00  0.00    +0.150 A 
ATOM      2  C   UNL     1      -0.353   6.953  -5.281  0.00  0.00    +0.035 A 
ATOM      3  C   UNL     1      -1.522   6.207  -5.122  0.00  0.00    -0.005 A 
ATOM      4  C   UNL     1      -2.046   5.823  -6.362  0.00  0.00    -0.003 A 
ATOM      5  C   UNL     1      -1.158   5.083  -7.136  0.00  0.00    +0.003 A 
ATOM      6  C   UNL     1       0.188   5.325  -6.881  0.00  0.00    +0.038 A 
ENDROOT
BRANCH   3   7
ATOM      7  C   UNL     1      -2.625   6.862  -4.142  0.00  0.00    +0.080 C 
ATOM      8  C   UNL     1      -1.970   8.372  -4.229  0.00  0.00    +0.022 C 
BRANCH   7   9
ATOM      9  N   UNL     1      -1.790   6.534  -2.847  0.00  0.00    -0.268 NA
ATOM     10  C   UNL     1      -2.393   5.416  -2.200  0.00  0.00    +0.090 C 
ATOM     11  C   UNL     1      -2.043   7.687  -1.983  0.00  0.00    +0.090 C 
ENDBRANCH   7   9
ENDBRANCH   3   7
BRANCH   1  12
ATOM     12  O   UNL     1       1.561   7.337  -6.749  0.00  0.00    -0.410 OA
BRANCH  12  14
ATOM     13  N   UNL     1       3.338   6.639  -8.347  0.00  0.00    -0.244 N 
ATOM     14  C   UNL     1       2.804   6.805  -7.027  0.00  0.00    +0.409 C 
ATOM     15  O   UNL     1       3.508   6.573  -5.998  0.00  0.00    -0.226 OA
ATOM     16  C   UNL     1       2.406   6.607  -9.472  0.00  0.00    +0.118 C 
BRANCH  13  18
ATOM     17  C   UNL     1       3.742   4.305  -8.945  0.00  0.00    +0.023 C 
ATOM     18  C   UNL     1       4.361   5.598  -8.433  0.00  0.00    +0.097 C 
ENDBRANCH  13  18
ENDBRANCH  12  14
ENDBRANCH   1  12
TORSDOF 5
ENDMDL
MODEL 3
REMARK VINA RESULT:      -6.2      3.086      8.439
REMARK  Name = 
REMARK  5 active torsions:
REMARK  status: ('A' for Active; 'I' for Inactive)
REMARK    1  A    between atoms: C_2  and  N_3
REMARK    2  A    between atoms: C_5  and  O_7
REMARK    3  A    between atoms: O_7  and  C_8
REMARK    4  A    between atoms: C_12  and  C_13
REMARK    5  A    between atoms: C_13  and  N_15
REMARK                            x       y       z     vdW  Elec       q    Type
REMARK                         _______ _______ _______ _____ _____    ______ ____
ROOT
ATOM      1  C   UNL     1      -0.035   5.649  -6.911  0.00  0.00    +0.150 A 
ATOM      2  C   UNL     1       0.203   6.066  -5.604  0.00  0.00    +0.035 A 
ATOM      3  C   UNL     1      -0.849   5.933  -4.695  0.00  0.00    -0.005 A 
ATOM      4  C   UNL     1      -2.059   6.345  -5.265  0.00  0.00    -0.003 A 
ATOM      5  C   UNL     1      -2.394   5.652  -6.424  0.00  0.00    +0.003 A 
ATOM      6  C   UNL     1      -1.314   5.139  -7.134  0.00  0.00    +0.038 A 
ENDROOT
BRANCH   3   7
ATOM      7  C   UNL     1      -0.582   6.575  -3.240  0.00  0.00    +0.080 C 
ATOM      8  C   UNL     1       1.011   6.149  -3.219  0.00  0.00    +0.022 C 
BRANCH   7   9
ATOM      9  N   UNL     1      -0.985   5.250  -2.489  0.00  0.00    -0.268 NA
ATOM     10  C   UNL     1      -2.062   5.548  -1.605  0.00  0.00    +0.090 C 
ATOM     11  C   UNL     1       0.174   4.979  -1.639  0.00  0.00    +0.090 C 
ENDBRANCH   7   9
ENDBRANCH   3   7
BRANCH   1  12
ATOM     12  O   UNL     1       0.772   6.081  -7.979  0.00  0.00    -0.410 OA
BRANCH  12  14
ATOM     13  N   UNL     1       3.053   5.086  -7.902  0.00  0.00    -0.244 N 
ATOM     14  C   UNL     1       1.743   5.229  -8.466  0.00  0.00    +0.409 C 
ATOM     15  O   UNL     1       1.343   4.474  -9.404  0.00  0.00    -0.226 OA
ATOM     16  C   UNL     1       3.569   6.167  -7.066  0.00  0.00    +0.118 C 
BRANCH  13  18
ATOM     17  C   UNL     1       5.419   5.144  -8.509  0.00  0.00    +0.023 C 
ATOM     18  C   UNL     1       4.044   4.589  -8.855  0.00  0.00    +0.097 C 
ENDBRANCH  13  18
ENDBRANCH  12  14
ENDBRANCH   1  12
TORSDOF 5
ENDMDL
MODEL 4
REMARK VINA RESULT:      -6.2      5.182      7.761
REMARK  Name = 
REMARK  5 active torsions:
REMARK  status: ('A' for Active; 'I' for Inactive)
REMARK    1  A    between atoms: C_2  and  N_3
REMARK    2  A    between atoms: C_5  and  O_7
REMARK    3  A    between atoms: O_7  and  C_8
REMARK    4  A    between atoms: C_12  and  C_13
REMARK    5  A    between atoms: C_13  and  N_15
REMARK                            x       y       z     vdW  Elec       q    Type
REMARK                         _______ _______ _______ _____ _____    ______ ____
ROOT
ATOM      1  C   UNL     1      -1.325   5.685  -4.066  0.00  0.00    +0.150 A 
ATOM      2  C   UNL     1      -0.100   5.550  -4.713  0.00  0.00    +0.035 A 
ATOM      3  C   UNL     1      -0.058   5.889  -6.067  0.00  0.00    -0.005 A 
ATOM      4  C   UNL     1      -1.174   5.387  -6.745  0.00  0.00    -0.003 A 
ATOM      5  C   UNL     1      -2.387   5.825  -6.224  0.00  0.00    +0.003 A 
ATOM      6  C   UNL     1      -2.360   6.158  -4.873  0.00  0.00    +0.038 A 
ENDROOT
BRANCH   3   7
ATOM      7  C   UNL     1       1.337   5.565  -6.811  0.00  0.00    +0.080 C 
ATOM      8  C   UNL     1       2.075   5.027  -5.439  0.00  0.00    +0.022 C 
BRANCH   7   9
ATOM      9  N   UNL     1       1.893   7.022  -6.583  0.00  0.00    -0.268 NA
ATOM     10  C   UNL     1       2.142   7.608  -7.858  0.00  0.00    +0.090 C 
ATOM     11  C   UNL     1       3.204   6.790  -5.979  0.00  0.00    +0.090 C 
ENDBRANCH   7   9
ENDBRANCH   3   7
BRANCH   1  12
ATOM     12  O   UNL     1      -1.594   5.022  -2.854  0.00  0.00    -0.410 OA
BRANCH  12  14
ATOM     13  N   UNL     1      -1.161   6.245  -0.730  0.00  0.00    -0.244 N 
ATOM     14  C   UNL     1      -0.810   5.306  -1.754  0.00  0.00    +0.409 C 
ATOM     15  O   UNL     1       0.219   4.571  -1.649  0.00  0.00    -0.226 OA
ATOM     16  C   UNL     1      -2.151   7.273  -1.042  0.00  0.00    +0.118 C 
BRANCH  13  18
ATOM     17  C   UNL     1      -0.337   8.147   0.564  0.00  0.00    +0.023 C 
ATOM     18  C   UNL     1      -0.005   6.777  -0.009  0.00  0.00    +0.097 C 
ENDBRANCH  13  18
ENDBRANCH  12  14
ENDBRANCH   1  12
TORSDOF 5
ENDMDL
MODEL 5
REMARK VINA RESULT:      -6.2      5.066      8.779
REMARK  Name = 
REMARK  5 active torsions:
REMARK  status: ('A' for Active; 'I' for Inactive)
REMARK    1  A    between atoms: C_2  and  N_3
REMARK    2  A    between atoms: C_5  and  O_7
REMARK    3  A    between atoms: O_7  and  C_8
REMARK    4  A    between atoms: C_12  and  C_13
REMARK    5  A    between atoms: C_13  and  N_15
REMARK                            x       y       z     vdW  Elec       q    Type
REMARK                         _______ _______ _______ _____ _____    ______ ____
ROOT
ATOM      1  C   UNL     1       0.551   6.257  -5.956  0.00  0.00    +0.150 A 
ATOM      2  C   UNL     1      -0.361   6.738  -5.020  0.00  0.00    +0.035 A 
ATOM      3  C   UNL     1      -1.630   6.156  -5.016  0.00  0.00    -0.005 A 
ATOM      4  C   UNL     1      -2.111   5.988  -6.319  0.00  0.00    -0.003 A 
ATOM      5  C   UNL     1      -1.280   5.217  -7.125  0.00  0.00    +0.003 A 
ATOM      6  C   UNL     1       0.065   5.233  -6.768  0.00  0.00    +0.038 A 
ENDROOT
BRANCH   3   7
ATOM      7  C   UNL     1      -2.700   6.852  -4.029  0.00  0.00    +0.080 C 
ATOM      8  C   UNL     1      -2.017   8.347  -4.159  0.00  0.00    +0.022 C 
BRANCH   7   9
ATOM      9  N   UNL     1      -1.847   6.533  -2.743  0.00  0.00    -0.268 NA
ATOM     10  C   UNL     1      -2.415   5.393  -2.103  0.00  0.00    +0.090 C 
ATOM     11  C   UNL     1      -2.123   7.670  -1.866  0.00  0.00    +0.090 C 
ENDBRANCH   7   9
ENDBRANCH   3   7
BRANCH   1  12
ATOM     12  O   UNL     1       1.687   7.000  -6.324  0.00  0.00    -0.410 OA
BRANCH  12  14
ATOM     13  N   UNL     1       3.478   6.355  -4.720  0.00  0.00    -0.244 N 
ATOM     14  C   UNL     1       2.937   6.488  -6.040  0.00  0.00    +0.409 C 
ATOM     15  O   UNL     1       3.545   6.021  -7.052  0.00  0.00    -0.226 OA
ATOM     16  C   UNL     1       2.911   7.176  -3.653  0.00  0.00    +0.118 C 
BRANCH  13  18
ATOM     17  C   UNL     1       5.474   7.658  -4.183  0.00  0.00    +0.023 C 
ATOM     18  C   UNL     1       4.940   6.326  -4.691  0.00  0.00    +0.097 C 
ENDBRANCH  13  18
ENDBRANCH  12  14
ENDBRANCH   1  12
TORSDOF 5
ENDMDL
MODEL 6
REMARK VINA RESULT:      -6.2      4.668      6.479
REMARK  Name = 
REMARK  5 active torsions:
REMARK  status: ('A' for Active; 'I' for Inactive)
REMARK    1  A    between atoms: C_2  and  N_3
REMARK    2  A    between atoms: C_5  and  O_7
REMARK    3  A    between atoms: O_7  and  C_8
REMARK    4  A    between atoms: C_12  and  C_13
REMARK    5  A    between atoms: C_13  and  N_15
REMARK                            x       y       z     vdW  Elec       q    Type
REMARK                         _______ _______ _______ _____ _____    ______ ____
ROOT
ATOM      1  C   UNL     1      -0.081   6.845  -5.331  0.00  0.00    +0.150 A 
ATOM      2  C   UNL     1       0.728   6.447  -6.393  0.00  0.00    +0.035 A 
ATOM      3  C   UNL     1       0.087   5.892  -7.503  0.00  0.00    -0.005 A 
ATOM      4  C   UNL     1      -0.906   4.989  -7.110  0.00  0.00    -0.003 A 
ATOM      5  C   UNL     1      -1.874   5.549  -6.283  0.00  0.00    +0.003 A 
ATOM      6  C   UNL     1      -1.445   6.638  -5.531  0.00  0.00    +0.038 A 
ENDROOT
BRANCH   3   7
ATOM      7  C   UNL     1       1.071   5.301  -8.637  0.00  0.00    +0.080 C 
ATOM      8  C   UNL     1       1.797   6.752  -8.926  0.00  0.00    +0.022 C 
BRANCH   7   9
ATOM      9  N   UNL     1       0.028   5.550  -9.791  0.00  0.00    -0.268 NA
ATOM     10  C   UNL     1       0.144   4.487 -10.733  0.00  0.00    +0.090 C 
ATOM     11  C   UNL     1       0.545   6.744 -10.459  0.00  0.00    +0.090 C 
ENDBRANCH   7   9
ENDBRANCH   3   7
BRANCH   1  12
ATOM     12  O   UNL     1       0.444   7.039  -4.041  0.00  0.00    -0.410 OA
BRANCH  12  14
ATOM     13  N   UNL     1       2.647   6.266  -3.176  0.00  0.00    -0.244 N 
ATOM     14  C   UNL     1       1.266   6.069  -3.504  0.00  0.00    +0.409 C 
ATOM     15  O   UNL     1       0.665   4.991  -3.206  0.00  0.00    -0.226 OA
ATOM     16  C   UNL     1       3.360   7.368  -3.816  0.00  0.00    +0.118 C 
BRANCH  13  18
ATOM     17  C   UNL     1       4.394   5.008  -4.331  0.00  0.00    +0.023 C 
ATOM     18  C   UNL     1       3.423   5.027  -3.159  0.00  0.00    +0.097 C 
ENDBRANCH  13  18
ENDBRANCH  12  14
ENDBRANCH   1  12
TORSDOF 5
ENDMDL
MODEL 7
REMARK VINA RESULT:      -6.1      1.940      7.306
REMARK  Name = 
REMARK  5 active torsions:
REMARK  status: ('A' for Active; 'I' for Inactive)
REMARK    1  A    between atoms: C_2  and  N_3
REMARK    2  A    between atoms: C_5  and  O_7
REMARK    3  A    between atoms: O_7  and  C_8
REMARK    4  A    between atoms: C_12  and  C_13
REMARK    5  A    between atoms: C_13  and  N_15
REMARK                            x       y       z     vdW  Elec       q    Type
REMARK                         _______ _______ _______ _____ _____    ______ ____
ROOT
ATOM      1  C   UNL     1       2.342   5.504  -8.732  0.00  0.00    +0.150 A 
ATOM      2  C   UNL     1       1.474   4.963  -7.786  0.00  0.00    +0.035 A 
ATOM      3  C   UNL     1       0.705   5.862  -7.045  0.00  0.00    -0.005 A 
ATOM      4  C   UNL     1       1.474   6.954  -6.625  0.00  0.00    -0.003 A 
ATOM      5  C   UNL     1       2.071   7.650  -7.671  0.00  0.00    +0.003 A 
ATOM      6  C   UNL     1       2.315   6.896  -8.815  0.00  0.00    +0.038 A 
ENDROOT
BRANCH   3   7
ATOM      7  C   UNL     1      -0.162   5.202  -5.855  0.00  0.00    +0.080 C 
ATOM      8  C   UNL     1      -1.572   5.241  -6.708  0.00  0.00    +0.022 C 
BRANCH   7   9
ATOM      9  N   UNL     1      -0.478   6.599  -5.198  0.00  0.00    -0.268 NA
ATOM     10  C   UNL     1      -0.282   6.483  -3.791  0.00  0.00    +0.090 C 
ATOM     11  C   UNL     1      -1.919   6.745  -5.396  0.00  0.00    +0.090 C 
ENDBRANCH   7   9
ENDBRANCH   3   7
BRANCH   1  12
ATOM     12  O   UNL     1       3.424   4.765  -9.245  0.00  0.00    -0.410 OA
BRANCH  12  14
ATOM     13  N   UNL     1       5.515   5.834 -10.071  0.00  0.00    -0.244 N 
ATOM     14  C   UNL     1       4.705   5.240  -9.049  0.00  0.00    +0.409 C 
ATOM     15  O   UNL     1       5.083   5.219  -7.837  0.00  0.00    -0.226 OA
ATOM     16  C   UNL     1       5.189   5.549 -11.466  0.00  0.00    +0.118 C 
BRANCH  13  18
ATOM     17  C   UNL     1       7.665   6.944 -10.411  0.00  0.00    +0.023 C 
ATOM     18  C   UNL     1       6.949   5.748  -9.799  0.00  0.00    +0.097 C 
ENDBRANCH  13  18
ENDBRANCH  12  14
ENDBRANCH   1  12
TORSDOF 5
ENDMDL
MODEL 8
REMARK VINA RESULT:      -6.1      4.416      5.857
REMARK  Name = 
REMARK  5 active torsions:
REMARK  status: ('A' for Active; 'I' for Inactive)
REMARK    1  A    between atoms: C_2  and  N_3
REMARK    2  A    between atoms: C_5  and  O_7
REMARK    3  A    between atoms: O_7  and  C_8
REMARK    4  A    between atoms: C_12  and  C_13
REMARK    5  A    between atoms: C_13  and  N_15
REMARK                            x       y       z     vdW  Elec       q    Type
REMARK                         _______ _______ _______ _____ _____    ______ ____
ROOT
ATOM      1  C   UNL     1       2.242   5.648  -3.843  0.00  0.00    +0.150 A 
ATOM      2  C   UNL     1       2.193   5.875  -5.216  0.00  0.00    +0.035 A 
ATOM      3  C   UNL     1       3.363   5.637  -5.939  0.00  0.00    -0.005 A 
ATOM      4  C   UNL     1       4.481   6.146  -5.268  0.00  0.00    -0.003 A 
ATOM      5  C   UNL     1       4.647   5.627  -3.988  0.00  0.00    +0.003 A 
ATOM      6  C   UNL     1       3.475   5.197  -3.372  0.00  0.00    +0.038 A 
ENDROOT
BRANCH   3   7
ATOM      7  C   UNL     1       3.306   6.065  -7.493  0.00  0.00    +0.080 C 
ATOM      8  C   UNL     1       2.250   7.304  -7.231  0.00  0.00    +0.022 C 
BRANCH   7   9
ATOM      9  N   UNL     1       2.123   5.074  -7.810  0.00  0.00    -0.268 NA
ATOM     10  C   UNL     1       2.669   3.912  -8.430  0.00  0.00    +0.090 C 
ATOM     11  C   UNL     1       1.369   5.772  -8.850  0.00  0.00    +0.090 C 
ENDBRANCH   7   9
ENDBRANCH   3   7
BRANCH   1  12
ATOM     12  O   UNL     1       1.292   6.210  -2.970  0.00  0.00    -0.410 OA
BRANCH  12  14
ATOM     13  N   UNL     1      -1.090   5.716  -3.496  0.00  0.00    -0.244 N 
ATOM     14  C   UNL     1       0.114   5.528  -2.742  0.00  0.00    +0.409 C 
ATOM     15  O   UNL     1       0.208   4.613  -1.869  0.00  0.00    -0.226 OA
ATOM     16  C   UNL     1      -1.253   6.962  -4.242  0.00  0.00    +0.118 C 
BRANCH  13  18
ATOM     17  C   UNL     1      -3.161   6.564  -2.514  0.00  0.00    +0.023 C 
ATOM     18  C   UNL     1      -2.298   5.335  -2.766  0.00  0.00    +0.097 C 
ENDBRANCH  13  18
ENDBRANCH  12  14
ENDBRANCH   1  12
TORSDOF 5
ENDMDL
MODEL 9
REMARK VINA RESULT:      -6.1      5.074      8.607
REMARK  Name = 
REMARK  5 active torsions:
REMARK  status: ('A' for Active; 'I' for Inactive)
REMARK    1  A    between atoms: C_2  and  N_3
REMARK    2  A    between atoms: C_5  and  O_7
REMARK    3  A    between atoms: O_7  and  C_8
REMARK    4  A    between atoms: C_12  and  C_13
REMARK    5  A    between atoms: C_13  and  N_15
REMARK                            x       y       z     vdW  Elec       q    Type
REMARK                         _______ _______ _______ _____ _____    ______ ____
ROOT
ATOM      1  C   UNL     1       1.495   5.058  -5.731  0.00  0.00    +0.150 A 
ATOM      2  C   UNL     1       0.970   5.583  -4.554  0.00  0.00    +0.035 A 
ATOM      3  C   UNL     1      -0.414   5.763  -4.503  0.00  0.00    -0.005 A 
ATOM      4  C   UNL     1      -0.893   6.317  -5.696  0.00  0.00    -0.003 A 
ATOM      5  C   UNL     1      -0.593   5.559  -6.823  0.00  0.00    +0.003 A 
ATOM      6  C   UNL     1       0.548   4.769  -6.713  0.00  0.00    +0.038 A 
ENDROOT
BRANCH   3   7
ATOM      7  C   UNL     1      -0.958   6.521  -3.187  0.00  0.00    +0.080 C 
ATOM      8  C   UNL     1       0.364   6.137  -2.280  0.00  0.00    +0.022 C 
BRANCH   7   9
ATOM      9  N   UNL     1      -1.729   5.247  -2.670  0.00  0.00    -0.268 NA
ATOM     10  C   UNL     1      -3.025   5.240  -3.263  0.00  0.00    +0.090 C 
ATOM     11  C   UNL     1      -1.934   5.531  -1.250  0.00  0.00    +0.090 C 
ENDBRANCH   7   9
ENDBRANCH   3   7
BRANCH   1  12
ATOM     12  O   UNL     1       2.858   5.197  -6.055  0.00  0.00    -0.410 OA
BRANCH  12  14
ATOM     13  N   UNL     1       4.597   6.439  -4.778  0.00  0.00    -0.244 N 
ATOM     14  C   UNL     1       3.507   6.364  -5.707  0.00  0.00    +0.409 C 
ATOM     15  O   UNL     1       3.138   7.378  -6.373  0.00  0.00    -0.226 OA
ATOM     16  C   UNL     1       4.767   5.350  -3.820  0.00  0.00    +0.118 C 
BRANCH  13  18
ATOM     17  C   UNL     1       3.882   7.849  -2.915  0.00  0.00    +0.023 C 
ATOM     18  C   UNL     1       4.746   7.758  -4.165  0.00  0.00    +0.097 C 
ENDBRANCH  13  18
ENDBRANCH  12  14
ENDBRANCH   1  12
TORSDOF 5
ENDMDL
