MODEL 1
REMARK VINA RESULT:      -8.2      0.000      0.000
REMARK  Name = 
REMARK  5 active torsions:
REMARK  status: ('A' for Active; 'I' for Inactive)
REMARK    1  A    between atoms: O_2  and  C_3
REMARK    2  A    between atoms: C_7  and  O_8
REMARK    3  A    between atoms: C_10  and  O_11
REMARK    4  A    between atoms: C_16  and  O_17
REMARK    5  A    between atoms: C_23  and  N_24
REMARK                            x       y       z     vdW  Elec       q    Type
REMARK                         _______ _______ _______ _____ _____    ______ ____
ROOT
ATOM      1  C   UNL     1       3.346   6.401  -8.150  0.00  0.00    +0.175 A 
ATOM      2  C   UNL     1       2.050   6.901  -8.050  0.00  0.00    +0.206 A 
ATOM      3  C   UNL     1       1.319   6.836  -6.863  0.00  0.00    +0.175 A 
ATOM      4  C   UNL     1       2.128   6.686  -5.748  0.00  0.00    +0.033 A 
ATOM      5  C   UNL     1       1.289   6.230  -4.629  0.00  0.00    +0.001 A 
ATOM      6  C   UNL     1       1.876   6.124  -3.376  0.00  0.00    +0.001 A 
ATOM      7  C   UNL     1       2.990   4.999  -2.986  0.00  0.00    +0.118 C 
ATOM      8  C   UNL     1       3.853   5.049  -4.404  0.00  0.00    +0.031 C 
ATOM      9  C   UNL     1       4.322   6.431  -4.632  0.00  0.00    +0.029 C 
ATOM     10  C   UNL     1       1.110   5.836  -2.247  0.00  0.00    +0.043 A 
ATOM     11  C   UNL     1      -0.273   5.817  -2.087  0.00  0.00    +0.229 A 
ATOM     12  O   UNL     1      -0.717   5.164  -1.116  0.00  0.00    -0.283 OA
ATOM     13  C   UNL     1      -1.229   6.105  -3.054  0.00  0.00    +0.177 A 
ATOM     14  C   UNL     1      -0.977   6.916  -4.155  0.00  0.00    +0.040 A 
ATOM     15  C   UNL     1       0.241   7.141  -4.795  0.00  0.00    +0.003 A 
ATOM     16  C   UNL     1       3.509   6.896  -5.810  0.00  0.00    -0.016 A 
ATOM     17  C   UNL     1       4.105   6.446  -6.984  0.00  0.00    +0.036 A 
ENDROOT
BRANCH   7  18
ATOM     18  N   UNL     1       3.904   6.102  -2.277  0.00  0.00    -0.203 NA
ATOM     19  C   UNL     1       4.221   5.815  -0.933  0.00  0.00    +0.242 C 
ATOM     20  O   UNL     1       4.577   4.656  -0.650  0.00  0.00    -0.273 OA
ATOM     21  C   UNL     1       4.128   6.860   0.114  0.00  0.00    +0.096 C 
ENDBRANCH   7  18
BRANCH   1  23
ATOM     22  C   UNL     1       3.750   4.309  -8.981  0.00  0.00    +0.253 C 
ATOM     23  O   UNL     1       3.560   5.413  -9.120  0.00  0.00    -0.468 OA
ENDBRANCH   1  23
BRANCH   2  24
ATOM     24  O   UNL     1       1.460   7.313  -9.227  0.00  0.00    -0.465 OA
ATOM     25  C   UNL     1       0.974   6.470 -10.234  0.00  0.00    +0.253 C 
ENDBRANCH   2  24
BRANCH   3  26
ATOM     26  O   UNL     1       0.083   6.199  -7.020  0.00  0.00    -0.468 OA
ATOM     27  C   UNL     1      -0.072   4.855  -7.373  0.00  0.00    +0.253 C 
ENDBRANCH   3  26
BRANCH  13  28
ATOM     28  O   UNL     1      -2.494   5.585  -2.878  0.00  0.00    -0.468 OA
ATOM     29  C   UNL     1      -3.639   6.401  -2.642  0.00  0.00    +0.253 C 
ENDBRANCH  13  28
TORSDOF 5
ENDMDL
MODEL 2
REMARK VINA RESULT:      -7.9      2.172      5.651
REMARK  Name = 
REMARK  5 active torsions:
REMARK  status: ('A' for Active; 'I' for Inactive)
REMARK    1  A    between atoms: O_2  and  C_3
REMARK    2  A    between atoms: C_7  and  O_8
REMARK    3  A    between atoms: C_10  and  O_11
REMARK    4  A    between atoms: C_16  and  O_17
REMARK    5  A    between atoms: C_23  and  N_24
REMARK                            x       y       z     vdW  Elec       q    Type
REMARK                         _______ _______ _______ _____ _____    ______ ____
ROOT
ATOM      1  C   UNL     1       4.747   5.862  -4.035  0.00  0.00    +0.175 A 
ATOM      2  C   UNL     1       3.748   5.579  -3.107  0.00  0.00    +0.206 A 
ATOM      3  C   UNL     1       2.397   5.549  -3.458  0.00  0.00    +0.175 A 
ATOM      4  C   UNL     1       2.204   5.351  -4.816  0.00  0.00    +0.033 A 
ATOM      5  C   UNL     1       0.822   5.730  -5.144  0.00  0.00    +0.001 A 
ATOM      6  C   UNL     1       0.375   5.503  -6.438  0.00  0.00    +0.001 A 
ATOM      7  C   UNL     1       0.900   6.331  -7.740  0.00  0.00    +0.118 C 
ATOM      8  C   UNL     1       2.505   6.396  -7.322  0.00  0.00    +0.031 C 
ATOM      9  C   UNL     1       3.008   5.020  -7.133  0.00  0.00    +0.029 C 
ATOM     10  C   UNL     1      -0.963   5.705  -6.781  0.00  0.00    +0.043 A 
ATOM     11  C   UNL     1      -2.069   5.929  -5.966  0.00  0.00    +0.229 A 
ATOM     12  O   UNL     1      -3.066   6.458  -6.507  0.00  0.00    -0.283 OA
ATOM     13  C   UNL     1      -2.085   5.991  -4.577  0.00  0.00    +0.177 A 
ATOM     14  C   UNL     1      -1.136   5.364  -3.778  0.00  0.00    +0.040 A 
ATOM     15  C   UNL     1       0.187   5.057  -4.095  0.00  0.00    +0.003 A 
ATOM     16  C   UNL     1       3.243   4.924  -5.649  0.00  0.00    -0.016 A 
ATOM     17  C   UNL     1       4.485   5.475  -5.345  0.00  0.00    +0.036 A 
ENDROOT
BRANCH   7  18
ATOM     18  N   UNL     1       1.071   4.978  -8.573  0.00  0.00    -0.203 NA
ATOM     19  C   UNL     1       0.908   5.129  -9.966  0.00  0.00    +0.242 C 
ATOM     20  O   UNL     1       1.465   6.095 -10.519  0.00  0.00    -0.273 OA
ATOM     21  C   UNL     1       0.093   4.169 -10.749  0.00  0.00    +0.096 C 
ENDBRANCH   7  18
BRANCH   1  23
ATOM     22  C   UNL     1       5.457   8.036  -4.074  0.00  0.00    +0.253 C 
ATOM     23  O   UNL     1       5.569   6.960  -3.750  0.00  0.00    -0.468 OA
ENDBRANCH   1  23
BRANCH   2  24
ATOM     24  O   UNL     1       4.142   5.497  -1.787  0.00  0.00    -0.465 OA
ATOM     25  C   UNL     1       4.283   4.314  -1.051  0.00  0.00    +0.253 C 
ENDBRANCH   2  24
BRANCH   3  26
ATOM     26  O   UNL     1       1.613   6.405  -2.675  0.00  0.00    -0.468 OA
ATOM     27  C   UNL     1       1.372   6.225  -1.310  0.00  0.00    +0.253 C 
ENDBRANCH   3  26
BRANCH  13  28
ATOM     28  O   UNL     1      -3.120   6.676  -3.978  0.00  0.00    -0.468 OA
ATOM     29  C   UNL     1      -3.507   6.464  -2.622  0.00  0.00    +0.253 C 
ENDBRANCH  13  28
TORSDOF 5
ENDMDL
MODEL 3
REMARK VINA RESULT:      -7.9      3.986      9.449
REMARK  Name = 
REMARK  5 active torsions:
REMARK  status: ('A' for Active; 'I' for Inactive)
REMARK    1  A    between atoms: O_2  and  C_3
REMARK    2  A    between atoms: C_7  and  O_8
REMARK    3  A    between atoms: C_10  and  O_11
REMARK    4  A    between atoms: C_16  and  O_17
REMARK    5  A    between atoms: C_23  and  N_24
REMARK                            x       y       z     vdW  Elec       q    Type
REMARK                         _______ _______ _______ _____ _____    ______ ____
ROOT
ATOM      1  C   UNL     1       0.614   5.984  -7.866  0.00  0.00    +0.175 A 
ATOM      2  C   UNL     1       1.967   6.227  -7.644  0.00  0.00    +0.206 A 
ATOM      3  C   UNL     1       2.902   6.213  -8.680  0.00  0.00    +0.175 A 
ATOM      4  C   UNL     1       2.323   6.412  -9.923  0.00  0.00    +0.033 A 
ATOM      5  C   UNL     1       3.285   5.988 -10.951  0.00  0.00    +0.001 A 
ATOM      6  C   UNL     1       2.954   6.208 -12.281  0.00  0.00    +0.001 A 
ATOM      7  C   UNL     1       1.774   5.407 -13.069  0.00  0.00    +0.118 C 
ATOM      8  C   UNL     1       0.661   5.393 -11.837  0.00  0.00    +0.031 C 
ATOM      9  C   UNL     1       0.389   6.785 -11.422  0.00  0.00    +0.029 C 
ATOM     10  C   UNL     1       3.876   5.963 -13.299  0.00  0.00    +0.043 A 
ATOM     11  C   UNL     1       5.241   5.696 -13.223  0.00  0.00    +0.229 A 
ATOM     12  O   UNL     1       5.759   5.137 -14.216  0.00  0.00    -0.283 OA
ATOM     13  C   UNL     1       6.015   5.625 -12.071  0.00  0.00    +0.177 A 
ATOM     14  C   UNL     1       5.681   6.279 -10.890  0.00  0.00    +0.040 A 
ATOM     15  C   UNL     1       4.413   6.633 -10.433  0.00  0.00    +0.003 A 
ATOM     16  C   UNL     1       1.012   6.879 -10.054  0.00  0.00    -0.016 A 
ATOM     17  C   UNL     1       0.124   6.370  -9.111  0.00  0.00    +0.036 A 
ENDROOT
BRANCH   7  18
ATOM     18  N   UNL     1       1.217   6.770 -13.689  0.00  0.00    -0.203 NA
ATOM     19  C   UNL     1       0.913   6.701 -15.065  0.00  0.00    +0.242 C 
ATOM     20  O   UNL     1       0.288   5.706 -15.477  0.00  0.00    -0.273 OA
ATOM     21  C   UNL     1       1.331   7.776 -15.995  0.00  0.00    +0.096 C 
ENDBRANCH   7  18
BRANCH   1  23
ATOM     22  C   UNL     1      -0.881   4.895  -6.520  0.00  0.00    +0.253 C 
ATOM     23  O   UNL     1       0.048   4.913  -7.162  0.00  0.00    -0.468 OA
ENDBRANCH   1  23
BRANCH   2  24
ATOM     24  O   UNL     1       2.365   6.315  -6.326  0.00  0.00    -0.465 OA
ATOM     25  C   UNL     1       3.353   7.173  -5.829  0.00  0.00    +0.253 C 
ENDBRANCH   2  24
BRANCH   3  26
ATOM     26  O   UNL     1       3.959   5.326  -8.445  0.00  0.00    -0.468 OA
ATOM     27  C   UNL     1       3.832   3.934  -8.432  0.00  0.00    +0.253 C 
ENDBRANCH   3  26
BRANCH  13  28
ATOM     28  O   UNL     1       7.187   4.901 -12.130  0.00  0.00    -0.468 OA
ATOM     29  C   UNL     1       8.472   5.494 -11.960  0.00  0.00    +0.253 C 
ENDBRANCH  13  28
TORSDOF 5
ENDMDL
MODEL 4
REMARK VINA RESULT:      -7.4      2.028      4.798
REMARK  Name = 
REMARK  5 active torsions:
REMARK  status: ('A' for Active; 'I' for Inactive)
REMARK    1  A    between atoms: O_2  and  C_3
REMARK    2  A    between atoms: C_7  and  O_8
REMARK    3  A    between atoms: C_10  and  O_11
REMARK    4  A    between atoms: C_16  and  O_17
REMARK    5  A    between atoms: C_23  and  N_24
REMARK                            x       y       z     vdW  Elec       q    Type
REMARK                         _______ _______ _______ _____ _____    ______ ____
ROOT
ATOM      1  C   UNL     1       0.172   5.624  -9.387  0.00  0.00    +0.175 A 
ATOM      2  C   UNL     1       1.416   5.076  -9.086  0.00  0.00    +0.206 A 
ATOM      3  C   UNL     1       1.941   5.095  -7.793  0.00  0.00    +0.175 A 
ATOM      4  C   UNL     1       0.964   5.254  -6.824  0.00  0.00    +0.033 A 
ATOM      5  C   UNL     1       1.619   5.660  -5.572  0.00  0.00    +0.001 A 
ATOM      6  C   UNL     1       0.835   5.765  -4.431  0.00  0.00    +0.001 A 
ATOM      7  C   UNL     1      -0.291   6.922  -4.205  0.00  0.00    +0.118 C 
ATOM      8  C   UNL     1      -0.908   6.927  -5.747  0.00  0.00    +0.031 C 
ATOM      9  C   UNL     1      -1.377   5.567  -6.081  0.00  0.00    +0.029 C 
ATOM     10  C   UNL     1       1.411   6.007  -3.184  0.00  0.00    +0.043 A 
ATOM     11  C   UNL     1       2.749   5.973  -2.797  0.00  0.00    +0.229 A 
ATOM     12  O   UNL     1       3.045   6.593  -1.751  0.00  0.00    -0.283 OA
ATOM     13  C   UNL     1       3.843   5.669  -3.599  0.00  0.00    +0.177 A 
ATOM     14  C   UNL     1       3.752   4.886  -4.744  0.00  0.00    +0.040 A 
ATOM     15  C   UNL     1       2.650   4.716  -5.582  0.00  0.00    +0.003 A 
ATOM     16  C   UNL     1      -0.394   5.094  -7.119  0.00  0.00    -0.016 A 
ATOM     17  C   UNL     1      -0.771   5.585  -8.365  0.00  0.00    +0.036 A 
ENDROOT
BRANCH   7  18
ATOM     18  N   UNL     1      -1.345   5.840  -3.683  0.00  0.00    -0.203 NA
ATOM     19  C   UNL     1      -2.175   6.296  -2.637  0.00  0.00    +0.242 C 
ATOM     20  O   UNL     1      -2.678   7.430  -2.742  0.00  0.00    -0.273 OA
ATOM     21  C   UNL     1      -2.438   5.453  -1.447  0.00  0.00    +0.096 C 
ENDBRANCH   7  18
BRANCH   1  23
ATOM     22  C   UNL     1      -0.593   6.814 -11.184  0.00  0.00    +0.253 C 
ATOM     23  O   UNL     1       0.154   6.635 -10.357  0.00  0.00    -0.468 OA
ENDBRANCH   1  23
BRANCH   2  24
ATOM     24  O   UNL     1       2.180   4.664 -10.159  0.00  0.00    -0.465 OA
ATOM     25  C   UNL     1       2.874   5.506 -11.036  0.00  0.00    +0.253 C 
ENDBRANCH   2  24
BRANCH   3  26
ATOM     26  O   UNL     1       3.206   5.690  -7.729  0.00  0.00    -0.468 OA
ATOM     27  C   UNL     1       3.473   7.016  -8.086  0.00  0.00    +0.253 C 
ENDBRANCH   3  26
BRANCH  13  28
ATOM     28  O   UNL     1       5.077   6.140  -3.204  0.00  0.00    -0.468 OA
ATOM     29  C   UNL     1       5.714   7.255  -3.824  0.00  0.00    +0.253 C 
ENDBRANCH  13  28
TORSDOF 5
ENDMDL
MODEL 5
REMARK VINA RESULT:      -7.4      3.283      7.538
REMARK  Name = 
REMARK  5 active torsions:
REMARK  status: ('A' for Active; 'I' for Inactive)
REMARK    1  A    between atoms: O_2  and  C_3
REMARK    2  A    between atoms: C_7  and  O_8
REMARK    3  A    between atoms: C_10  and  O_11
REMARK    4  A    between atoms: C_16  and  O_17
REMARK    5  A    between atoms: C_23  and  N_24
REMARK                            x       y       z     vdW  Elec       q    Type
REMARK                         _______ _______ _______ _____ _____    ______ ____
ROOT
ATOM      1  C   UNL     1       4.171   5.412  -5.761  0.00  0.00    +0.175 A 
ATOM      2  C   UNL     1       2.900   4.975  -6.126  0.00  0.00    +0.206 A 
ATOM      3  C   UNL     1       2.438   5.055  -7.441  0.00  0.00    +0.175 A 
ATOM      4  C   UNL     1       3.468   5.146  -8.363  0.00  0.00    +0.033 A 
ATOM      5  C   UNL     1       2.906   5.623  -9.635  0.00  0.00    +0.001 A 
ATOM      6  C   UNL     1       3.747   5.678 -10.738  0.00  0.00    +0.001 A 
ATOM      7  C   UNL     1       4.974   6.740 -10.893  0.00  0.00    +0.118 C 
ATOM      8  C   UNL     1       5.519   6.672  -9.326  0.00  0.00    +0.031 C 
ATOM      9  C   UNL     1       5.858   5.273  -8.996  0.00  0.00    +0.029 C 
ATOM     10  C   UNL     1       3.249   5.985 -12.005  0.00  0.00    +0.043 A 
ATOM     11  C   UNL     1       1.933   6.069 -12.450  0.00  0.00    +0.229 A 
ATOM     12  O   UNL     1       1.736   6.726 -13.497  0.00  0.00    -0.283 OA
ATOM     13  C   UNL     1       0.782   5.846 -11.703  0.00  0.00    +0.177 A 
ATOM     14  C   UNL     1       0.756   5.042 -10.569  0.00  0.00    +0.040 A 
ATOM     15  C   UNL     1       1.800   4.768  -9.686  0.00  0.00    +0.003 A 
ATOM     16  C   UNL     1       4.793   4.869  -8.011  0.00  0.00    -0.016 A 
ATOM     17  C   UNL     1       5.153   5.309  -6.741  0.00  0.00    +0.036 A 
ENDROOT
BRANCH   7  18
ATOM     18  N   UNL     1       5.957   5.581 -11.388  0.00  0.00    -0.203 NA
ATOM     19  C   UNL     1       6.980   6.019 -12.256  0.00  0.00    +0.242 C 
ATOM     20  O   UNL     1       7.593   7.061 -11.959  0.00  0.00    -0.273 OA
ATOM     21  C   UNL     1       7.312   5.265 -13.488  0.00  0.00    +0.096 C 
ENDBRANCH   7  18
BRANCH   1  23
ATOM     22  C   UNL     1       4.921   7.293  -4.698  0.00  0.00    +0.253 C 
ATOM     23  O   UNL     1       4.229   6.405  -4.773  0.00  0.00    -0.468 OA
ENDBRANCH   1  23
BRANCH   2  24
ATOM     24  O   UNL     1       2.057   4.613  -5.096  0.00  0.00    -0.465 OA
ATOM     25  C   UNL     1       1.512   5.484  -4.145  0.00  0.00    +0.253 C 
ENDBRANCH   2  24
BRANCH   3  26
ATOM     26  O   UNL     1       1.231   5.755  -7.549  0.00  0.00    -0.468 OA
ATOM     27  C   UNL     1       1.045   7.076  -7.131  0.00  0.00    +0.253 C 
ENDBRANCH   3  26
BRANCH  13  28
ATOM     28  O   UNL     1      -0.390   6.424 -12.143  0.00  0.00    -0.468 OA
ATOM     29  C   UNL     1      -0.935   7.606 -11.562  0.00  0.00    +0.253 C 
ENDBRANCH  13  28
TORSDOF 5
ENDMDL
MODEL 6
REMARK VINA RESULT:      -7.2      1.901      4.753
REMARK  Name = 
REMARK  5 active torsions:
REMARK  status: ('A' for Active; 'I' for Inactive)
REMARK    1  A    between atoms: O_2  and  C_3
REMARK    2  A    between atoms: C_7  and  O_8
REMARK    3  A    between atoms: C_10  and  O_11
REMARK    4  A    between atoms: C_16  and  O_17
REMARK    5  A    between atoms: C_23  and  N_24
REMARK                            x       y       z     vdW  Elec       q    Type
REMARK                         _______ _______ _______ _____ _____    ______ ____
ROOT
ATOM      1  C   UNL     1       3.172   6.017  -7.918  0.00  0.00    +0.175 A 
ATOM      2  C   UNL     1       4.093   5.471  -7.027  0.00  0.00    +0.206 A 
ATOM      3  C   UNL     1       3.834   5.374  -5.659  0.00  0.00    +0.175 A 
ATOM      4  C   UNL     1       2.479   5.414  -5.371  0.00  0.00    +0.033 A 
ATOM      5  C   UNL     1       2.323   5.710  -3.939  0.00  0.00    +0.001 A 
ATOM      6  C   UNL     1       1.042   5.684  -3.405  0.00  0.00    +0.001 A 
ATOM      7  C   UNL     1      -0.109   6.786  -3.748  0.00  0.00    +0.118 C 
ATOM      8  C   UNL     1       0.206   6.930  -5.372  0.00  0.00    +0.031 C 
ATOM      9  C   UNL     1       0.093   5.599  -6.002  0.00  0.00    +0.029 C 
ATOM     10  C   UNL     1       0.834   5.814  -2.031  0.00  0.00    +0.043 A 
ATOM     11  C   UNL     1       1.749   5.773  -0.982  0.00  0.00    +0.229 A 
ATOM     12  O   UNL     1       1.387   6.294   0.097  0.00  0.00    -0.283 OA
ATOM     13  C   UNL     1       3.122   5.575  -1.078  0.00  0.00    +0.177 A 
ATOM     14  C   UNL     1       3.720   4.907  -2.140  0.00  0.00    +0.040 A 
ATOM     15  C   UNL     1       3.262   4.795  -3.452  0.00  0.00    +0.003 A 
ATOM     16  C   UNL     1       1.512   5.253  -6.367  0.00  0.00    -0.016 A 
ATOM     17  C   UNL     1       1.832   5.856  -7.580  0.00  0.00    +0.036 A 
ENDROOT
BRANCH   7  18
ATOM     18  N   UNL     1      -1.196   5.634  -3.961  0.00  0.00    -0.203 NA
ATOM     19  C   UNL     1      -2.533   6.076  -3.881  0.00  0.00    +0.242 C 
ATOM     20  O   UNL     1      -2.838   7.127  -4.475  0.00  0.00    -0.273 OA
ATOM     21  C   UNL     1      -3.544   5.316  -3.109  0.00  0.00    +0.096 C 
ENDBRANCH   7  18
BRANCH   1  23
ATOM     22  C   UNL     1       3.559   7.284  -9.783  0.00  0.00    +0.253 C 
ATOM     23  O   UNL     1       3.607   7.119  -8.667  0.00  0.00    -0.468 OA
ENDBRANCH   1  23
BRANCH   2  24
ATOM     24  O   UNL     1       5.343   5.184  -7.537  0.00  0.00    -0.465 OA
ATOM     25  C   UNL     1       5.603   4.650  -8.805  0.00  0.00    +0.253 C 
ENDBRANCH   2  24
BRANCH   3  26
ATOM     26  O   UNL     1       4.816   5.989  -4.875  0.00  0.00    -0.468 OA
ATOM     27  C   UNL     1       5.065   7.365  -4.859  0.00  0.00    +0.253 C 
ENDBRANCH   3  26
BRANCH  13  28
ATOM     28  O   UNL     1       3.909   6.033  -0.043  0.00  0.00    -0.468 OA
ATOM     29  C   UNL     1       4.832   7.108  -0.191  0.00  0.00    +0.253 C 
ENDBRANCH  13  28
TORSDOF 5
ENDMDL
MODEL 7
REMARK VINA RESULT:      -7.2      4.007      8.488
REMARK  Name = 
REMARK  5 active torsions:
REMARK  status: ('A' for Active; 'I' for Inactive)
REMARK    1  A    between atoms: O_2  and  C_3
REMARK    2  A    between atoms: C_7  and  O_8
REMARK    3  A    between atoms: C_10  and  O_11
REMARK    4  A    between atoms: C_16  and  O_17
REMARK    5  A    between atoms: C_23  and  N_24
REMARK                            x       y       z     vdW  Elec       q    Type
REMARK                         _______ _______ _______ _____ _____    ______ ____
ROOT
ATOM      1  C   UNL     1       1.217   5.912  -7.587  0.00  0.00    +0.175 A 
ATOM      2  C   UNL     1       0.340   5.414  -8.548  0.00  0.00    +0.206 A 
ATOM      3  C   UNL     1       0.677   5.361  -9.902  0.00  0.00    +0.175 A 
ATOM      4  C   UNL     1       2.047   5.388 -10.111  0.00  0.00    +0.033 A 
ATOM      5  C   UNL     1       2.290   5.732 -11.520  0.00  0.00    +0.001 A 
ATOM      6  C   UNL     1       3.599   5.702 -11.980  0.00  0.00    +0.001 A 
ATOM      7  C   UNL     1       4.745   6.772 -11.532  0.00  0.00    +0.118 C 
ATOM      8  C   UNL     1       4.339   6.863  -9.925  0.00  0.00    +0.031 C 
ATOM      9  C   UNL     1       4.395   5.508  -9.338  0.00  0.00    +0.029 C 
ATOM     10  C   UNL     1       3.888   5.878 -13.334  0.00  0.00    +0.043 A 
ATOM     11  C   UNL     1       3.034   5.890 -14.435  0.00  0.00    +0.229 A 
ATOM     12  O   UNL     1       3.465   6.442 -15.472  0.00  0.00    -0.283 OA
ATOM     13  C   UNL     1       1.656   5.713 -14.424  0.00  0.00    +0.177 A 
ATOM     14  C   UNL     1       0.986   5.018 -13.423  0.00  0.00    +0.040 A 
ATOM     15  C   UNL     1       1.366   4.851 -12.092  0.00  0.00    +0.003 A 
ATOM     16  C   UNL     1       2.952   5.174  -9.067  0.00  0.00    -0.016 A 
ATOM     17  C   UNL     1       2.571   5.740  -7.854  0.00  0.00    +0.036 A 
ENDROOT
BRANCH   7  18
ATOM     18  N   UNL     1       5.800   5.594 -11.300  0.00  0.00    -0.203 NA
ATOM     19  C   UNL     1       7.141   5.961 -11.539  0.00  0.00    +0.242 C 
ATOM     20  O   UNL     1       7.541   7.048 -11.082  0.00  0.00    -0.273 OA
ATOM     21  C   UNL     1       8.046   5.081 -12.316  0.00  0.00    +0.096 C 
ENDBRANCH   7  18
BRANCH   1  23
ATOM     22  C   UNL     1       1.019   7.279  -5.764  0.00  0.00    +0.253 C 
ATOM     23  O   UNL     1       0.756   6.993  -6.824  0.00  0.00    -0.468 OA
ENDBRANCH   1  23
BRANCH   2  24
ATOM     24  O   UNL     1      -0.941   5.131  -8.122  0.00  0.00    -0.465 OA
ATOM     25  C   UNL     1      -1.342   4.984  -6.788  0.00  0.00    +0.253 C 
ENDBRANCH   2  24
BRANCH   3  26
ATOM     26  O   UNL     1      -0.249   6.021 -10.718  0.00  0.00    -0.468 OA
ATOM     27  C   UNL     1      -0.338   7.410 -10.846  0.00  0.00    +0.253 C 
ENDBRANCH   3  26
BRANCH  13  28
ATOM     28  O   UNL     1       0.936   6.221 -15.485  0.00  0.00    -0.468 OA
ATOM     29  C   UNL     1       0.097   7.368 -15.372  0.00  0.00    +0.253 C 
ENDBRANCH  13  28
TORSDOF 5
ENDMDL
MODEL 8
REMARK VINA RESULT:      -7.0      2.457      7.469
REMARK  Name = 
REMARK  5 active torsions:
REMARK  status: ('A' for Active; 'I' for Inactive)
REMARK    1  A    between atoms: O_2  and  C_3
REMARK    2  A    between atoms: C_7  and  O_8
REMARK    3  A    between atoms: C_10  and  O_11
REMARK    4  A    between atoms: C_16  and  O_17
REMARK    5  A    between atoms: C_23  and  N_24
REMARK                            x       y       z     vdW  Elec       q    Type
REMARK                         _______ _______ _______ _____ _____    ______ ____
ROOT
ATOM      1  C   UNL     1       1.020   6.196  -3.213  0.00  0.00    +0.175 A 
ATOM      2  C   UNL     1       2.337   6.598  -3.420  0.00  0.00    +0.206 A 
ATOM      3  C   UNL     1       2.958   6.491  -4.666  0.00  0.00    +0.175 A 
ATOM      4  C   UNL     1       2.048   6.415  -5.708  0.00  0.00    +0.033 A 
ATOM      5  C   UNL     1       2.752   5.910  -6.896  0.00  0.00    +0.001 A 
ATOM      6  C   UNL     1       2.054   5.862  -8.095  0.00  0.00    +0.001 A 
ATOM      7  C   UNL     1       0.829   4.829  -8.394  0.00  0.00    +0.118 C 
ATOM      8  C   UNL     1       0.095   4.928  -6.908  0.00  0.00    +0.031 C 
ATOM      9  C   UNL     1      -0.246   6.339  -6.634  0.00  0.00    +0.029 C 
ATOM     10  C   UNL     1       2.698   5.530  -9.287  0.00  0.00    +0.043 A 
ATOM     11  C   UNL     1       4.057   5.409  -9.565  0.00  0.00    +0.229 A 
ATOM     12  O   UNL     1       4.366   4.735 -10.573  0.00  0.00    -0.283 OA
ATOM     13  C   UNL     1       5.111   5.612  -8.681  0.00  0.00    +0.177 A 
ATOM     14  C   UNL     1       5.016   6.428  -7.560  0.00  0.00    +0.040 A 
ATOM     15  C   UNL     1       3.877   6.737  -6.817  0.00  0.00    +0.003 A 
ATOM     16  C   UNL     1       0.698   6.728  -5.527  0.00  0.00    -0.016 A 
ATOM     17  C   UNL     1       0.171   6.311  -4.308  0.00  0.00    +0.036 A 
ENDROOT
BRANCH   7  18
ATOM     18  N   UNL     1      -0.055   6.006  -9.017  0.00  0.00    -0.203 NA
ATOM     19  C   UNL     1      -0.182   5.954 -10.421  0.00  0.00    +0.242 C 
ATOM     20  O   UNL     1      -0.427   4.853 -10.947  0.00  0.00    -0.273 OA
ATOM     21  C   UNL     1      -0.023   7.174 -11.248  0.00  0.00    +0.096 C 
ENDBRANCH   7  18
BRANCH   1  23
ATOM     22  C   UNL     1      -0.029   5.120  -1.488  0.00  0.00    +0.253 C 
ATOM     23  O   UNL     1       0.815   5.216  -2.232  0.00  0.00    -0.468 OA
ENDBRANCH   1  23
BRANCH   2  24
ATOM     24  O   UNL     1       3.054   6.952  -2.295  0.00  0.00    -0.465 OA
ATOM     25  C   UNL     1       3.755   8.151  -2.119  0.00  0.00    +0.253 C 
ENDBRANCH   2  24
BRANCH   3  26
ATOM     26  O   UNL     1       4.151   5.761  -4.617  0.00  0.00    -0.468 OA
ATOM     27  C   UNL     1       4.291   4.522  -3.985  0.00  0.00    +0.253 C 
ENDBRANCH   3  26
BRANCH  13  28
ATOM     28  O   UNL     1       6.313   5.001  -8.967  0.00  0.00    -0.468 OA
ATOM     29  C   UNL     1       7.445   5.714  -9.460  0.00  0.00    +0.253 C 
ENDBRANCH  13  28
TORSDOF 5
ENDMDL
MODEL 9
REMARK VINA RESULT:      -6.9      2.656      3.834
REMARK  Name = 
REMARK  5 active torsions:
REMARK  status: ('A' for Active; 'I' for Inactive)
REMARK    1  A    between atoms: O_2  and  C_3
REMARK    2  A    between atoms: C_7  and  O_8
REMARK    3  A    between atoms: C_10  and  O_11
REMARK    4  A    between atoms: C_16  and  O_17
REMARK    5  A    between atoms: C_23  and  N_24
REMARK                            x       y       z     vdW  Elec       q    Type
REMARK                         _______ _______ _______ _____ _____    ______ ____
ROOT
ATOM      1  C   UNL     1       3.464   6.024 -12.052  0.00  0.00    +0.175 A 
ATOM      2  C   UNL     1       2.128   6.349 -11.833  0.00  0.00    +0.206 A 
ATOM      3  C   UNL     1       1.543   6.269 -10.568  0.00  0.00    +0.175 A 
ATOM      4  C   UNL     1       2.478   6.309  -9.546  0.00  0.00    +0.033 A 
ATOM      5  C   UNL     1       1.835   5.823  -8.316  0.00  0.00    +0.001 A 
ATOM      6  C   UNL     1       2.560   5.886  -7.135  0.00  0.00    +0.001 A 
ATOM      7  C   UNL     1       3.858   4.953  -6.813  0.00  0.00    +0.118 C 
ATOM      8  C   UNL     1       4.551   5.020  -8.321  0.00  0.00    +0.031 C 
ATOM      9  C   UNL     1       4.791   6.434  -8.676  0.00  0.00    +0.029 C 
ATOM     10  C   UNL     1       1.966   5.576  -5.911  0.00  0.00    +0.043 A 
ATOM     11  C   UNL     1       0.624   5.381  -5.594  0.00  0.00    +0.229 A 
ATOM     12  O   UNL     1       0.384   4.744  -4.544  0.00  0.00    -0.283 OA
ATOM     13  C   UNL     1      -0.459   5.467  -6.460  0.00  0.00    +0.177 A 
ATOM     14  C   UNL     1      -0.443   6.226  -7.624  0.00  0.00    +0.040 A 
ATOM     15  C   UNL     1       0.656   6.569  -8.411  0.00  0.00    +0.003 A 
ATOM     16  C   UNL     1       3.800   6.700  -9.777  0.00  0.00    -0.016 A 
ATOM     17  C   UNL     1       4.327   6.254 -10.986  0.00  0.00    +0.036 A 
ENDROOT
BRANCH   7  18
ATOM     18  N   UNL     1       4.674   6.217  -6.274  0.00  0.00    -0.203 NA
ATOM     19  C   UNL     1       4.794   6.275  -4.870  0.00  0.00    +0.242 C 
ATOM     20  O   UNL     1       5.092   5.229  -4.264  0.00  0.00    -0.273 OA
ATOM     21  C   UNL     1       4.565   7.542  -4.135  0.00  0.00    +0.096 C 
ENDBRANCH   7  18
BRANCH   1  23
ATOM     22  C   UNL     1       4.572   4.906 -13.712  0.00  0.00    +0.253 C 
ATOM     23  O   UNL     1       3.714   5.009 -12.985  0.00  0.00    -0.468 OA
ENDBRANCH   1  23
BRANCH   2  24
ATOM     24  O   UNL     1       1.364   6.594 -12.956  0.00  0.00    -0.465 OA
ATOM     25  C   UNL     1       0.560   7.720 -13.165  0.00  0.00    +0.253 C 
ENDBRANCH   2  24
BRANCH   3  26
ATOM     26  O   UNL     1       0.401   5.460 -10.549  0.00  0.00    -0.468 OA
ATOM     27  C   UNL     1       0.326   4.187 -11.122  0.00  0.00    +0.253 C 
ENDBRANCH   3  26
BRANCH  13  28
ATOM     28  O   UNL     1      -1.612   4.794  -6.112  0.00  0.00    -0.468 OA
ATOM     29  C   UNL     1      -2.827   5.462  -5.782  0.00  0.00    +0.253 C 
ENDBRANCH  13  28
TORSDOF 5
ENDMDL
