MODEL 1
REMARK VINA RESULT:      -6.4      0.000      0.000
REMARK  Name = 
REMARK  5 active torsions:
REMARK  status: ('A' for Active; 'I' for Inactive)
REMARK    1  A    between atoms: N_2  and  C_4
REMARK    2  A    between atoms: C_4  and  C_5
REMARK    3  A    between atoms: C_5  and  C_6
REMARK    4  A    between atoms: C_6  and  C_7
REMARK    5  A    between atoms: C_6  and  C_14
REMARK                            x       y       z     vdW  Elec       q    Type
REMARK                         _______ _______ _______ _____ _____    ______ ____
ROOT
ATOM      1  C   UNL     1       2.060   5.580  -8.366  0.00  0.00    +0.064 C 
ENDROOT
BRANCH   1   2
ATOM      2  C   UNL     1       3.438   5.611  -9.204  0.00  0.00    -0.017 A 
ATOM      3  C   UNL     1       4.492   5.011  -8.522  0.00  0.00    -0.003 A 
ATOM      4  C   UNL     1       5.785   5.346  -8.910  0.00  0.00    +0.006 A 
ATOM      5  C   UNL     1       6.003   6.125 -10.030  0.00  0.00    +0.035 A 
ATOM      6 BR   UNL     1       7.747   6.719 -10.551  0.00  0.00    -0.049 Br
ATOM      7  C   UNL     1       4.906   6.690 -10.668  0.00  0.00    +0.006 A 
ATOM      8  C   UNL     1       3.732   6.708  -9.932  0.00  0.00    -0.003 A 
ENDBRANCH   1   2
BRANCH   1   9
ATOM      9  C   UNL     1       1.133   5.726  -9.669  0.00  0.00    +0.063 A 
ATOM     10  N   UNL     1       0.393   6.774  -9.883  0.00  0.00    -0.248 NA
ATOM     11  C   UNL     1      -0.018   7.004 -11.155  0.00  0.00    +0.098 A 
ATOM     12  C   UNL     1       0.180   6.031 -12.130  0.00  0.00    +0.021 A 
ATOM     13  C   UNL     1       0.323   4.745 -11.620  0.00  0.00    +0.003 A 
ATOM     14  C   UNL     1       0.813   4.562 -10.329  0.00  0.00    +0.015 A 
ENDBRANCH   1   9
BRANCH   1  15
ATOM     15  C   UNL     1       2.100   7.196  -8.040  0.00  0.00    +0.028 C 
BRANCH  15  16
ATOM     16  C   UNL     1       1.663   7.212  -6.581  0.00  0.00    +0.073 C 
BRANCH  16  18
ATOM     17  C   UNL     1       1.804   5.887  -4.607  0.00  0.00    +0.090 C 
ATOM     18  N   UNL     1       2.513   6.388  -5.755  0.00  0.00    -0.270 NA
ATOM     19  C   UNL     1       3.726   7.084  -5.364  0.00  0.00    +0.090 C 
ENDBRANCH  16  18
ENDBRANCH  15  16
ENDBRANCH   1  15
TORSDOF 5
ENDMDL
MODEL 2
REMARK VINA RESULT:      -6.4      3.695      6.922
REMARK  Name = 
REMARK  5 active torsions:
REMARK  status: ('A' for Active; 'I' for Inactive)
REMARK    1  A    between atoms: N_2  and  C_4
REMARK    2  A    between atoms: C_4  and  C_5
REMARK    3  A    between atoms: C_5  and  C_6
REMARK    4  A    between atoms: C_6  and  C_7
REMARK    5  A    between atoms: C_6  and  C_14
REMARK                            x       y       z     vdW  Elec       q    Type
REMARK                         _______ _______ _______ _____ _____    ______ ____
ROOT
ATOM      1  C   UNL     1       2.094   4.300  -5.889  0.00  0.00    +0.064 C 
ENDROOT
BRANCH   1   2
ATOM      2  C   UNL     1       0.878   5.183  -5.302  0.00  0.00    -0.017 A 
ATOM      3  C   UNL     1       0.848   5.193  -3.910  0.00  0.00    -0.003 A 
ATOM      4  C   UNL     1      -0.353   5.528  -3.294  0.00  0.00    +0.006 A 
ATOM      5  C   UNL     1      -1.423   5.980  -4.041  0.00  0.00    +0.035 A 
ATOM      6 BR   UNL     1      -3.138   6.345  -3.271  0.00  0.00    -0.049 Br
ATOM      7  C   UNL     1      -1.326   5.950  -5.426  0.00  0.00    +0.006 A 
ATOM      8  C   UNL     1      -0.312   5.154  -5.935  0.00  0.00    -0.003 A 
ENDBRANCH   1   2
BRANCH   1   9
ATOM      9  C   UNL     1       3.231   5.267  -5.298  0.00  0.00    +0.063 A 
ATOM     10  N   UNL     1       3.431   6.468  -5.757  0.00  0.00    -0.248 NA
ATOM     11  C   UNL     1       4.095   7.342  -4.961  0.00  0.00    +0.098 A 
ATOM     12  C   UNL     1       4.711   6.887  -3.800  0.00  0.00    +0.021 A 
ATOM     13  C   UNL     1       5.009   5.528  -3.818  0.00  0.00    +0.003 A 
ATOM     14  C   UNL     1       4.252   4.662  -4.603  0.00  0.00    +0.015 A 
ENDBRANCH   1   9
BRANCH   1  15
ATOM     15  C   UNL     1       2.044   5.027  -7.368  0.00  0.00    +0.028 C 
BRANCH  15  16
ATOM     16  C   UNL     1       2.596   3.920  -8.258  0.00  0.00    +0.073 C 
BRANCH  16  18
ATOM     17  C   UNL     1       4.724   4.906  -8.673  0.00  0.00    +0.090 C 
ATOM     18  N   UNL     1       3.497   4.435  -9.261  0.00  0.00    -0.270 NA
ATOM     19  C   UNL     1       2.873   5.463 -10.074  0.00  0.00    +0.090 C 
ENDBRANCH  16  18
ENDBRANCH  15  16
ENDBRANCH   1  15
TORSDOF 5
ENDMDL
MODEL 3
REMARK VINA RESULT:      -6.3      1.192      4.635
REMARK  Name = 
REMARK  5 active torsions:
REMARK  status: ('A' for Active; 'I' for Inactive)
REMARK    1  A    between atoms: N_2  and  C_4
REMARK    2  A    between atoms: C_4  and  C_5
REMARK    3  A    between atoms: C_5  and  C_6
REMARK    4  A    between atoms: C_6  and  C_7
REMARK    5  A    between atoms: C_6  and  C_14
REMARK                            x       y       z     vdW  Elec       q    Type
REMARK                         _______ _______ _______ _____ _____    ______ ____
ROOT
ATOM      1  C   UNL     1       2.591   6.389  -8.781  0.00  0.00    +0.064 C 
ENDROOT
BRANCH   1   2
ATOM      2  C   UNL     1       4.157   6.450  -9.160  0.00  0.00    -0.017 A 
ATOM      3  C   UNL     1       4.399   7.179 -10.320  0.00  0.00    -0.003 A 
ATOM      4  C   UNL     1       5.599   6.951 -10.986  0.00  0.00    +0.006 A 
ATOM      5  C   UNL     1       6.571   6.145 -10.427  0.00  0.00    +0.035 A 
ATOM      6 BR   UNL     1       8.192   5.697 -11.342  0.00  0.00    -0.049 Br
ATOM      7  C   UNL     1       6.267   5.449  -9.264  0.00  0.00    +0.006 A 
ATOM      8  C   UNL     1       4.918   5.354  -8.961  0.00  0.00    -0.003 A 
ENDBRANCH   1   2
BRANCH   1   9
ATOM      9  C   UNL     1       2.862   6.028  -7.240  0.00  0.00    +0.063 A 
ATOM     10  N   UNL     1       2.332   4.987  -6.666  0.00  0.00    -0.248 NA
ATOM     11  C   UNL     1       2.919   4.530  -5.532  0.00  0.00    +0.098 A 
ATOM     12  C   UNL     1       3.911   5.285  -4.915  0.00  0.00    +0.021 A 
ATOM     13  C   UNL     1       3.862   6.640  -5.228  0.00  0.00    +0.003 A 
ATOM     14  C   UNL     1       3.308   7.052  -6.438  0.00  0.00    +0.015 A 
ENDBRANCH   1   9
BRANCH   1  15
ATOM     15  C   UNL     1       2.428   4.821  -9.267  0.00  0.00    +0.028 C 
BRANCH  15  16
ATOM     16  C   UNL     1       1.104   4.883 -10.018  0.00  0.00    +0.073 C 
BRANCH  16  18
ATOM     17  C   UNL     1      -0.245   6.525 -11.094  0.00  0.00    +0.090 C 
ATOM     18  N   UNL     1       1.076   5.966 -10.972  0.00  0.00    -0.270 NA
ATOM     19  C   UNL     1       1.600   5.562 -12.265  0.00  0.00    +0.090 C 
ENDBRANCH  16  18
ENDBRANCH  15  16
ENDBRANCH   1  15
TORSDOF 5
ENDMDL
MODEL 4
REMARK VINA RESULT:      -6.3      2.677      5.466
REMARK  Name = 
REMARK  5 active torsions:
REMARK  status: ('A' for Active; 'I' for Inactive)
REMARK    1  A    between atoms: N_2  and  C_4
REMARK    2  A    between atoms: C_4  and  C_5
REMARK    3  A    between atoms: C_5  and  C_6
REMARK    4  A    between atoms: C_6  and  C_7
REMARK    5  A    between atoms: C_6  and  C_14
REMARK                            x       y       z     vdW  Elec       q    Type
REMARK                         _______ _______ _______ _____ _____    ______ ____
ROOT
ATOM      1  C   UNL     1       3.719   5.183 -10.252  0.00  0.00    +0.064 C 
ENDROOT
BRANCH   1   2
ATOM      2  C   UNL     1       3.334   5.606  -8.744  0.00  0.00    -0.017 A 
ATOM      3  C   UNL     1       2.881   4.530  -7.987  0.00  0.00    -0.003 A 
ATOM      4  C   UNL     1       2.122   4.812  -6.855  0.00  0.00    +0.006 A 
ATOM      5  C   UNL     1       1.960   6.114  -6.425  0.00  0.00    +0.035 A 
ATOM      6 BR   UNL     1       0.834   6.581  -4.948  0.00  0.00    -0.049 Br
ATOM      7  C   UNL     1       2.441   7.142  -7.226  0.00  0.00    +0.006 A 
ATOM      8  C   UNL     1       2.728   6.793  -8.536  0.00  0.00    -0.003 A 
ENDBRANCH   1   2
BRANCH   1   9
ATOM      9  C   UNL     1       5.114   5.979 -10.239  0.00  0.00    +0.063 A 
ATOM     10  N   UNL     1       6.063   5.706  -9.392  0.00  0.00    -0.248 NA
ATOM     11  C   UNL     1       7.319   6.115  -9.703  0.00  0.00    +0.098 A 
ATOM     12  C   UNL     1       7.517   6.972 -10.780  0.00  0.00    +0.021 A 
ATOM     13  C   UNL     1       6.392   7.713 -11.124  0.00  0.00    +0.003 A 
ATOM     14  C   UNL     1       5.121   7.216 -10.842  0.00  0.00    +0.015 A 
ENDBRANCH   1   9
BRANCH   1  15
ATOM     15  C   UNL     1       2.859   6.417 -10.928  0.00  0.00    +0.028 C 
BRANCH  15  16
ATOM     16  C   UNL     1       2.057   5.670 -11.987  0.00  0.00    +0.073 C 
BRANCH  16  18
ATOM     17  C   UNL     1       0.231   6.969 -11.181  0.00  0.00    +0.090 C 
ATOM     18  N   UNL     1       0.642   5.693 -11.706  0.00  0.00    -0.270 NA
ATOM     19  C   UNL     1       0.246   4.608 -10.825  0.00  0.00    +0.090 C 
ENDBRANCH  16  18
ENDBRANCH  15  16
ENDBRANCH   1  15
TORSDOF 5
ENDMDL
MODEL 5
REMARK VINA RESULT:      -6.2      3.060      4.678
REMARK  Name = 
REMARK  5 active torsions:
REMARK  status: ('A' for Active; 'I' for Inactive)
REMARK    1  A    between atoms: N_2  and  C_4
REMARK    2  A    between atoms: C_4  and  C_5
REMARK    3  A    between atoms: C_5  and  C_6
REMARK    4  A    between atoms: C_6  and  C_7
REMARK    5  A    between atoms: C_6  and  C_14
REMARK                            x       y       z     vdW  Elec       q    Type
REMARK                         _______ _______ _______ _____ _____    ______ ____
ROOT
ATOM      1  C   UNL     1       0.980   5.198  -4.624  0.00  0.00    +0.064 C 
ENDROOT
BRANCH   1   2
ATOM      2  C   UNL     1       1.365   5.584  -6.143  0.00  0.00    -0.017 A 
ATOM      3  C   UNL     1       2.008   4.547  -6.812  0.00  0.00    -0.003 A 
ATOM      4  C   UNL     1       2.765   4.874  -7.932  0.00  0.00    +0.006 A 
ATOM      5  C   UNL     1       2.747   6.158  -8.441  0.00  0.00    +0.035 A 
ATOM      6 BR   UNL     1       3.855   6.703  -9.905  0.00  0.00    -0.049 Br
ATOM      7  C   UNL     1       2.082   7.146  -7.726  0.00  0.00    +0.006 A 
ATOM      8  C   UNL     1       1.793   6.835  -6.407  0.00  0.00    -0.003 A 
ENDBRANCH   1   2
BRANCH   1   9
ATOM      9  C   UNL     1      -0.461   5.902  -4.691  0.00  0.00    +0.063 A 
ATOM     10  N   UNL     1      -0.941   6.599  -3.703  0.00  0.00    -0.248 NA
ATOM     11  C   UNL     1      -1.937   7.478  -3.981  0.00  0.00    +0.098 A 
ATOM     12  C   UNL     1      -2.544   7.460  -5.232  0.00  0.00    +0.021 A 
ATOM     13  C   UNL     1      -2.423   6.244  -5.898  0.00  0.00    +0.003 A 
ATOM     14  C   UNL     1      -1.344   5.407  -5.623  0.00  0.00    +0.015 A 
ENDBRANCH   1   9
BRANCH   1  15
ATOM     15  C   UNL     1       1.749   6.510  -3.986  0.00  0.00    +0.028 C 
BRANCH  15  16
ATOM     16  C   UNL     1       2.721   5.841  -3.023  0.00  0.00    +0.073 C 
BRANCH  16  18
ATOM     17  C   UNL     1       4.237   7.510  -3.790  0.00  0.00    +0.090 C 
ATOM     18  N   UNL     1       4.094   6.148  -3.344  0.00  0.00    -0.270 NA
ATOM     19  C   UNL     1       4.647   5.216  -4.311  0.00  0.00    +0.090 C 
ENDBRANCH  16  18
ENDBRANCH  15  16
ENDBRANCH   1  15
TORSDOF 5
ENDMDL
MODEL 6
REMARK VINA RESULT:      -6.2      3.280      5.928
REMARK  Name = 
REMARK  5 active torsions:
REMARK  status: ('A' for Active; 'I' for Inactive)
REMARK    1  A    between atoms: N_2  and  C_4
REMARK    2  A    between atoms: C_4  and  C_5
REMARK    3  A    between atoms: C_5  and  C_6
REMARK    4  A    between atoms: C_6  and  C_7
REMARK    5  A    between atoms: C_6  and  C_14
REMARK                            x       y       z     vdW  Elec       q    Type
REMARK                         _______ _______ _______ _____ _____    ______ ____
ROOT
ATOM      1  C   UNL     1       0.875   6.814  -4.871  0.00  0.00    +0.064 C 
ENDROOT
BRANCH   1   2
ATOM      2  C   UNL     1       1.058   6.348  -6.405  0.00  0.00    -0.017 A 
ATOM      3  C   UNL     1       1.911   7.184  -7.119  0.00  0.00    -0.003 A 
ATOM      4  C   UNL     1       1.817   7.168  -8.507  0.00  0.00    +0.006 A 
ATOM      5  C   UNL     1       1.013   6.244  -9.145  0.00  0.00    +0.035 A 
ATOM      6 BR   UNL     1       0.746   6.243 -11.041  0.00  0.00    -0.049 Br
ATOM      7  C   UNL     1       0.189   5.435  -8.373  0.00  0.00    +0.006 A 
ATOM      8  C   UNL     1      -0.009   5.859  -7.068  0.00  0.00    -0.003 A 
ENDBRANCH   1   2
BRANCH   1   9
ATOM      9  C   UNL     1       2.349   6.351  -4.436  0.00  0.00    +0.063 A 
ATOM     10  N   UNL     1       2.710   5.101  -4.420  0.00  0.00    -0.248 NA
ATOM     11  C   UNL     1       4.039   4.830  -4.449  0.00  0.00    +0.098 A 
ATOM     12  C   UNL     1       4.956   5.863  -4.288  0.00  0.00    +0.021 A 
ATOM     13  C   UNL     1       4.442   6.974  -3.627  0.00  0.00    +0.003 A 
ATOM     14  C   UNL     1       3.076   7.244  -3.684  0.00  0.00    +0.015 A 
ENDBRANCH   1   9
BRANCH   1  15
ATOM     15  C   UNL     1       0.145   5.405  -4.422  0.00  0.00    +0.028 C 
BRANCH  15  16
ATOM     16  C   UNL     1      -0.923   5.920  -3.466  0.00  0.00    +0.073 C 
BRANCH  16  18
ATOM     17  C   UNL     1      -1.973   5.655  -1.345  0.00  0.00    +0.090 C 
ATOM     18  N   UNL     1      -0.963   5.157  -2.242  0.00  0.00    -0.270 NA
ATOM     19  C   UNL     1       0.336   5.101  -1.595  0.00  0.00    +0.090 C 
ENDBRANCH  16  18
ENDBRANCH  15  16
ENDBRANCH   1  15
TORSDOF 5
ENDMDL
MODEL 7
REMARK VINA RESULT:      -6.2      3.894      6.786
REMARK  Name = 
REMARK  5 active torsions:
REMARK  status: ('A' for Active; 'I' for Inactive)
REMARK    1  A    between atoms: N_2  and  C_4
REMARK    2  A    between atoms: C_4  and  C_5
REMARK    3  A    between atoms: C_5  and  C_6
REMARK    4  A    between atoms: C_6  and  C_7
REMARK    5  A    between atoms: C_6  and  C_14
REMARK                            x       y       z     vdW  Elec       q    Type
REMARK                         _______ _______ _______ _____ _____    ______ ____
ROOT
ATOM      1  C   UNL     1      -0.100   6.755  -5.328  0.00  0.00    +0.064 C 
ENDROOT
BRANCH   1   2
ATOM      2  C   UNL     1       0.861   6.526  -4.053  0.00  0.00    -0.017 A 
ATOM      3  C   UNL     1       2.180   6.892  -4.304  0.00  0.00    -0.003 A 
ATOM      4  C   UNL     1       3.166   6.355  -3.482  0.00  0.00    +0.006 A 
ATOM      5  C   UNL     1       2.824   5.612  -2.369  0.00  0.00    +0.035 A 
ATOM      6 BR   UNL     1       4.128   4.748  -1.265  0.00  0.00    -0.049 Br
ATOM      7  C   UNL     1       1.488   5.286  -2.173  0.00  0.00    +0.006 A 
ATOM      8  C   UNL     1       0.669   5.436  -3.281  0.00  0.00    -0.003 A 
ENDBRANCH   1   2
BRANCH   1   9
ATOM      9  C   UNL     1      -1.451   6.517  -4.495  0.00  0.00    +0.063 A 
ATOM     10  N   UNL     1      -2.308   5.590  -4.809  0.00  0.00    -0.248 NA
ATOM     11  C   UNL     1      -3.178   5.188  -3.848  0.00  0.00    +0.098 A 
ATOM     12  C   UNL     1      -3.270   5.902  -2.658  0.00  0.00    +0.021 A 
ATOM     13  C   UNL     1      -2.835   7.220  -2.758  0.00  0.00    +0.003 A 
ATOM     14  C   UNL     1      -1.888   7.566  -3.720  0.00  0.00    +0.015 A 
ENDBRANCH   1   9
BRANCH   1  15
ATOM     15  C   UNL     1       0.030   5.192  -5.837  0.00  0.00    +0.028 C 
BRANCH  15  16
ATOM     16  C   UNL     1       0.629   5.384  -7.225  0.00  0.00    +0.073 C 
BRANCH  16  18
ATOM     17  C   UNL     1       2.205   4.322  -8.660  0.00  0.00    +0.090 C 
ATOM     18  N   UNL     1       1.946   4.803  -7.328  0.00  0.00    -0.270 NA
ATOM     19  C   UNL     1       2.157   3.760  -6.340  0.00  0.00    +0.090 C 
ENDBRANCH  16  18
ENDBRANCH  15  16
ENDBRANCH   1  15
TORSDOF 5
ENDMDL
MODEL 8
REMARK VINA RESULT:      -6.0      3.376      6.852
REMARK  Name = 
REMARK  5 active torsions:
REMARK  status: ('A' for Active; 'I' for Inactive)
REMARK    1  A    between atoms: N_2  and  C_4
REMARK    2  A    between atoms: C_4  and  C_5
REMARK    3  A    between atoms: C_5  and  C_6
REMARK    4  A    between atoms: C_6  and  C_7
REMARK    5  A    between atoms: C_6  and  C_14
REMARK                            x       y       z     vdW  Elec       q    Type
REMARK                         _______ _______ _______ _____ _____    ______ ____
ROOT
ATOM      1  C   UNL     1       3.680   5.126  -5.789  0.00  0.00    +0.064 C 
ENDROOT
BRANCH   1   2
ATOM      2  C   UNL     1       2.126   5.325  -5.404  0.00  0.00    -0.017 A 
ATOM      3  C   UNL     1       1.294   4.419  -6.054  0.00  0.00    -0.003 A 
ATOM      4  C   UNL     1      -0.054   4.744  -6.162  0.00  0.00    +0.006 A 
ATOM      5  C   UNL     1      -0.564   5.851  -5.511  0.00  0.00    +0.035 A 
ATOM      6 BR   UNL     1      -2.381   6.421  -5.712  0.00  0.00    -0.049 Br
ATOM      7  C   UNL     1       0.321   6.713  -4.876  0.00  0.00    +0.006 A 
ATOM      8  C   UNL     1       1.651   6.577  -5.240  0.00  0.00    -0.003 A 
ENDBRANCH   1   2
BRANCH   1   9
ATOM      9  C   UNL     1       4.218   5.768  -4.419  0.00  0.00    +0.063 A 
ATOM     10  N   UNL     1       5.063   6.757  -4.399  0.00  0.00    -0.248 NA
ATOM     11  C   UNL     1       5.141   7.493  -3.262  0.00  0.00    +0.098 A 
ATOM     12  C   UNL     1       4.492   7.057  -2.112  0.00  0.00    +0.021 A 
ATOM     13  C   UNL     1       4.242   5.689  -2.092  0.00  0.00    +0.003 A 
ATOM     14  C   UNL     1       4.104   4.991  -3.290  0.00  0.00    +0.015 A 
ENDBRANCH   1   9
BRANCH   1  15
ATOM     15  C   UNL     1       3.755   6.534  -6.644  0.00  0.00    +0.028 C 
BRANCH  15  16
ATOM     16  C   UNL     1       3.976   6.008  -8.056  0.00  0.00    +0.073 C 
BRANCH  16  18
ATOM     17  C   UNL     1       1.918   6.789  -8.965  0.00  0.00    +0.090 C 
ATOM     18  N   UNL     1       3.354   6.852  -9.049  0.00  0.00    -0.270 NA
ATOM     19  C   UNL     1       3.819   6.545 -10.389  0.00  0.00    +0.090 C 
ENDBRANCH  16  18
ENDBRANCH  15  16
ENDBRANCH   1  15
TORSDOF 5
ENDMDL
MODEL 9
REMARK VINA RESULT:      -5.9      2.631      4.500
REMARK  Name = 
REMARK  5 active torsions:
REMARK  status: ('A' for Active; 'I' for Inactive)
REMARK    1  A    between atoms: N_2  and  C_4
REMARK    2  A    between atoms: C_4  and  C_5
REMARK    3  A    between atoms: C_5  and  C_6
REMARK    4  A    between atoms: C_6  and  C_7
REMARK    5  A    between atoms: C_6  and  C_14
REMARK                            x       y       z     vdW  Elec       q    Type
REMARK                         _______ _______ _______ _____ _____    ______ ____
ROOT
ATOM      1  C   UNL     1       3.666   6.614 -10.121  0.00  0.00    +0.064 C 
ENDROOT
BRANCH   1   2
ATOM      2  C   UNL     1       3.362   6.277  -8.573  0.00  0.00    -0.017 A 
ATOM      3  C   UNL     1       2.547   7.230  -7.968  0.00  0.00    -0.003 A 
ATOM      4  C   UNL     1       2.566   7.307  -6.579  0.00  0.00    +0.006 A 
ATOM      5  C   UNL     1       3.254   6.370  -5.833  0.00  0.00    +0.035 A 
ATOM      6 BR   UNL     1       3.419   6.486  -3.929  0.00  0.00    -0.049 Br
ATOM      7  C   UNL     1       4.046   5.443  -6.499  0.00  0.00    +0.006 A 
ATOM      8  C   UNL     1       4.348   5.753  -7.816  0.00  0.00    -0.003 A 
ENDBRANCH   1   2
BRANCH   1   9
ATOM      9  C   UNL     1       2.301   5.952 -10.649  0.00  0.00    +0.063 A 
ATOM     10  N   UNL     1       1.844   4.829 -10.177  0.00  0.00    -0.248 NA
ATOM     11  C   UNL     1       0.527   4.560 -10.361  0.00  0.00    +0.098 A 
ATOM     12  C   UNL     1      -0.229   5.365 -11.207  0.00  0.00    +0.021 A 
ATOM     13  C   UNL     1       0.526   6.052 -12.152  0.00  0.00    +0.003 A 
ATOM     14  C   UNL     1       1.857   6.362 -11.884  0.00  0.00    +0.015 A 
ENDBRANCH   1   9
BRANCH   1  15
ATOM     15  C   UNL     1       4.577   5.258 -10.345  0.00  0.00    +0.028 C 
BRANCH  15  16
ATOM     16  C   UNL     1       5.660   5.783 -11.278  0.00  0.00    +0.073 C 
BRANCH  16  18
ATOM     17  C   UNL     1       6.597   7.933 -11.692  0.00  0.00    +0.090 C 
ATOM     18  N   UNL     1       6.362   6.908 -10.709  0.00  0.00    -0.270 NA
ATOM     19  C   UNL     1       7.597   6.505 -10.061  0.00  0.00    +0.090 C 
ENDBRANCH  16  18
ENDBRANCH  15  16
ENDBRANCH   1  15
TORSDOF 5
ENDMDL
