MODEL 1
REMARK VINA RESULT:      -5.9      0.000      0.000
REMARK  Name = 
REMARK  4 active torsions:
REMARK  status: ('A' for Active; 'I' for Inactive)
REMARK    1  A    between atoms: C_2  and  C_3
REMARK    2  A    between atoms: C_3  and  C_4
REMARK    3  A    between atoms: C_4  and  C_6
REMARK    4  A    between atoms: C_6  and  C_7
REMARK                            x       y       z     vdW  Elec       q    Type
REMARK                         _______ _______ _______ _____ _____    ______ ____
ROOT
ATOM      1  C   UNL     1       2.880   5.919  -7.051  0.00  0.00    +0.141 C 
ATOM      2  C   UNL     1       2.910   4.596  -7.709  0.00  0.00    +0.257 C 
ATOM      3  O   UNL     1       2.265   3.626  -7.205  0.00  0.00    -0.272 OA
ATOM      4  N   UNL     1       3.200   4.450  -9.105  0.00  0.00    -0.125 NA
ATOM      5  C   UNL     1       3.247   5.595  -9.964  0.00  0.00    +0.352 C 
ATOM      6  O   UNL     1       3.871   5.421 -11.055  0.00  0.00    -0.248 OA
ATOM      7  N   UNL     1       3.408   6.853  -9.296  0.00  0.00    -0.125 NA
ATOM      8  C   UNL     1       2.965   7.056  -7.951  0.00  0.00    +0.257 C 
ATOM      9  O   UNL     1       2.251   8.088  -7.759  0.00  0.00    -0.272 OA
ENDROOT
BRANCH   1  10
ATOM     10  C   UNL     1       4.243   5.932  -6.114  0.00  0.00    +0.017 C 
ATOM     11  C   UNL     1       3.596   4.875  -5.018  0.00  0.00    +0.001 C 
BRANCH  10  12
ATOM     12  C   UNL     1       3.724   7.239  -5.239  0.00  0.00    +0.001 C 
BRANCH  12  14
ATOM     13  C   UNL     1       4.433   7.892  -2.942  0.00  0.00    +0.000 C 
ATOM     14  C   UNL     1       4.892   7.594  -4.356  0.00  0.00    +0.000 C 
ENDBRANCH  12  14
ENDBRANCH  10  12
ENDBRANCH   1  10
BRANCH   1  15
ATOM     15  C   UNL     1       1.735   5.946  -6.088  0.00  0.00    +0.018 C 
ATOM     16  C   UNL     1       0.380   5.954  -6.720  0.00  0.00    +0.001 C 
ENDBRANCH   1  15
TORSDOF 4
ENDMDL
MODEL 2
REMARK VINA RESULT:      -5.8      1.675      4.030
REMARK  Name = 
REMARK  4 active torsions:
REMARK  status: ('A' for Active; 'I' for Inactive)
REMARK    1  A    between atoms: C_2  and  C_3
REMARK    2  A    between atoms: C_3  and  C_4
REMARK    3  A    between atoms: C_4  and  C_6
REMARK    4  A    between atoms: C_6  and  C_7
REMARK                            x       y       z     vdW  Elec       q    Type
REMARK                         _______ _______ _______ _____ _____    ______ ____
ROOT
ATOM      1  C   UNL     1       2.173   5.602  -6.277  0.00  0.00    +0.141 C 
ATOM      2  C   UNL     1       3.188   6.520  -6.837  0.00  0.00    +0.257 C 
ATOM      3  O   UNL     1       3.774   7.351  -6.078  0.00  0.00    -0.272 OA
ATOM      4  N   UNL     1       3.900   6.217  -8.043  0.00  0.00    -0.125 NA
ATOM      5  C   UNL     1       3.824   4.912  -8.628  0.00  0.00    +0.352 C 
ATOM      6  O   UNL     1       4.154   4.854  -9.851  0.00  0.00    -0.248 OA
ATOM      7  N   UNL     1       2.713   4.115  -8.197  0.00  0.00    -0.125 NA
ATOM      8  C   UNL     1       2.100   4.301  -6.917  0.00  0.00    +0.257 C 
ATOM      9  O   UNL     1       1.943   3.247  -6.227  0.00  0.00    -0.272 OA
ENDROOT
BRANCH   1  10
ATOM     10  C   UNL     1       0.736   6.370  -6.560  0.00  0.00    +0.017 C 
ATOM     11  C   UNL     1       0.633   6.922  -5.003  0.00  0.00    +0.001 C 
BRANCH  10  12
ATOM     12  C   UNL     1      -0.149   5.019  -6.196  0.00  0.00    +0.001 C 
BRANCH  12  14
ATOM     13  C   UNL     1      -2.561   5.639  -6.193  0.00  0.00    +0.000 C 
ATOM     14  C   UNL     1      -1.396   5.145  -7.030  0.00  0.00    +0.000 C 
ENDBRANCH  12  14
ENDBRANCH  10  12
ENDBRANCH   1  10
BRANCH   1  15
ATOM     15  C   UNL     1       2.325   5.577  -4.787  0.00  0.00    +0.018 C 
ATOM     16  C   UNL     1       3.577   4.929  -4.292  0.00  0.00    +0.001 C 
ENDBRANCH   1  15
TORSDOF 4
ENDMDL
MODEL 3
REMARK VINA RESULT:      -5.7      2.588      5.144
REMARK  Name = 
REMARK  4 active torsions:
REMARK  status: ('A' for Active; 'I' for Inactive)
REMARK    1  A    between atoms: C_2  and  C_3
REMARK    2  A    between atoms: C_3  and  C_4
REMARK    3  A    between atoms: C_4  and  C_6
REMARK    4  A    between atoms: C_6  and  C_7
REMARK                            x       y       z     vdW  Elec       q    Type
REMARK                         _______ _______ _______ _____ _____    ______ ____
ROOT
ATOM      1  C   UNL     1       1.715   5.831  -8.391  0.00  0.00    +0.141 C 
ATOM      2  C   UNL     1       1.906   4.516  -7.744  0.00  0.00    +0.257 C 
ATOM      3  O   UNL     1       2.625   3.634  -8.307  0.00  0.00    -0.272 OA
ATOM      4  N   UNL     1       1.750   4.336  -6.331  0.00  0.00    -0.125 NA
ATOM      5  C   UNL     1       1.629   5.466  -5.460  0.00  0.00    +0.352 C 
ATOM      6  O   UNL     1       1.121   5.216  -4.325  0.00  0.00    -0.248 OA
ATOM      7  N   UNL     1       1.257   6.693  -6.102  0.00  0.00    -0.125 NA
ATOM      8  C   UNL     1       1.561   6.949  -7.477  0.00  0.00    +0.257 C 
ATOM      9  O   UNL     1       2.121   8.063  -7.716  0.00  0.00    -0.272 OA
ENDROOT
BRANCH   1  10
ATOM     10  C   UNL     1       0.291   5.671  -9.216  0.00  0.00    +0.017 C 
ATOM     11  C   UNL     1       0.940   4.588 -10.286  0.00  0.00    +0.001 C 
BRANCH  10  12
ATOM     12  C   UNL     1       0.634   6.946 -10.215  0.00  0.00    +0.001 C 
BRANCH  12  14
ATOM     13  C   UNL     1       0.053   7.454 -12.583  0.00  0.00    +0.000 C 
ATOM     14  C   UNL     1      -0.451   6.915 -11.258  0.00  0.00    +0.000 C 
ENDBRANCH  12  14
ENDBRANCH  10  12
ENDBRANCH   1  10
BRANCH   1  15
ATOM     15  C   UNL     1       2.767   6.001  -9.442  0.00  0.00    +0.018 C 
ATOM     16  C   UNL     1       4.161   6.143  -8.922  0.00  0.00    +0.001 C 
ENDBRANCH   1  15
TORSDOF 4
ENDMDL
MODEL 4
REMARK VINA RESULT:      -5.7      2.025      3.933
REMARK  Name = 
REMARK  4 active torsions:
REMARK  status: ('A' for Active; 'I' for Inactive)
REMARK    1  A    between atoms: C_2  and  C_3
REMARK    2  A    between atoms: C_3  and  C_4
REMARK    3  A    between atoms: C_4  and  C_6
REMARK    4  A    between atoms: C_6  and  C_7
REMARK                            x       y       z     vdW  Elec       q    Type
REMARK                         _______ _______ _______ _____ _____    ______ ____
ROOT
ATOM      1  C   UNL     1       2.947   5.819  -7.189  0.00  0.00    +0.141 C 
ATOM      2  C   UNL     1       2.359   4.738  -6.369  0.00  0.00    +0.257 C 
ATOM      3  O   UNL     1       3.016   4.255  -5.396  0.00  0.00    -0.272 OA
ATOM      4  N   UNL     1       0.943   4.537  -6.283  0.00  0.00    -0.125 NA
ATOM      5  C   UNL     1       0.034   5.514  -6.802  0.00  0.00    +0.352 C 
ATOM      6  O   UNL     1      -1.140   5.087  -7.027  0.00  0.00    -0.248 OA
ATOM      7  N   UNL     1       0.601   6.435  -7.744  0.00  0.00    -0.125 NA
ATOM      8  C   UNL     1       1.992   6.771  -7.728  0.00  0.00    +0.257 C 
ATOM      9  O   UNL     1       2.256   8.012  -7.747  0.00  0.00    -0.272 OA
ENDROOT
BRANCH   1  10
ATOM     10  C   UNL     1       3.628   5.026  -8.471  0.00  0.00    +0.017 C 
ATOM     11  C   UNL     1       5.160   5.205  -7.871  0.00  0.00    +0.001 C 
BRANCH  10  12
ATOM     12  C   UNL     1       3.757   6.416  -9.362  0.00  0.00    +0.001 C 
BRANCH  12  14
ATOM     13  C   UNL     1       5.393   7.536 -10.870  0.00  0.00    +0.000 C 
ATOM     14  C   UNL     1       5.057   6.268 -10.109  0.00  0.00    +0.000 C 
ENDBRANCH  12  14
ENDBRANCH  10  12
ENDBRANCH   1  10
BRANCH   1  15
ATOM     15  C   UNL     1       4.095   6.416  -6.436  0.00  0.00    +0.018 C 
ATOM     16  C   UNL     1       3.714   7.177  -5.206  0.00  0.00    +0.001 C 
ENDBRANCH   1  15
TORSDOF 4
ENDMDL
MODEL 5
REMARK VINA RESULT:      -5.7      2.405      4.018
REMARK  Name = 
REMARK  4 active torsions:
REMARK  status: ('A' for Active; 'I' for Inactive)
REMARK    1  A    between atoms: C_2  and  C_3
REMARK    2  A    between atoms: C_3  and  C_4
REMARK    3  A    between atoms: C_4  and  C_6
REMARK    4  A    between atoms: C_6  and  C_7
REMARK                            x       y       z     vdW  Elec       q    Type
REMARK                         _______ _______ _______ _____ _____    ______ ____
ROOT
ATOM      1  C   UNL     1       1.010   6.200  -6.368  0.00  0.00    +0.141 C 
ATOM      2  C   UNL     1       1.671   5.019  -5.772  0.00  0.00    +0.257 C 
ATOM      3  O   UNL     1       1.181   3.863  -5.954  0.00  0.00    -0.272 OA
ATOM      4  N   UNL     1       3.061   5.023  -5.424  0.00  0.00    -0.125 NA
ATOM      5  C   UNL     1       3.917   6.089  -5.851  0.00  0.00    +0.352 C 
ATOM      6  O   UNL     1       4.996   6.206  -5.194  0.00  0.00    -0.248 OA
ATOM      7  N   UNL     1       3.243   7.291  -6.247  0.00  0.00    -0.125 NA
ATOM      8  C   UNL     1       1.906   7.275  -6.756  0.00  0.00    +0.257 C 
ATOM      9  O   UNL     1       1.726   7.907  -7.842  0.00  0.00    -0.272 OA
ENDROOT
BRANCH   1  10
ATOM     10  C   UNL     1       0.047   6.777  -5.154  0.00  0.00    +0.017 C 
ATOM     11  C   UNL     1       0.249   5.415  -4.237  0.00  0.00    +0.001 C 
BRANCH  10  12
ATOM     12  C   UNL     1      -1.328   6.171  -5.849  0.00  0.00    +0.001 C 
BRANCH  12  14
ATOM     13  C   UNL     1      -1.932   8.219  -4.567  0.00  0.00    +0.000 C 
ATOM     14  C   UNL     1      -2.450   6.948  -5.212  0.00  0.00    +0.000 C 
ENDBRANCH  12  14
ENDBRANCH  10  12
ENDBRANCH   1  10
BRANCH   1  15
ATOM     15  C   UNL     1       0.069   5.731  -7.433  0.00  0.00    +0.018 C 
ATOM     16  C   UNL     1       0.722   5.315  -8.712  0.00  0.00    +0.001 C 
ENDBRANCH   1  15
TORSDOF 4
ENDMDL
MODEL 6
REMARK VINA RESULT:      -5.6      2.523      3.347
REMARK  Name = 
REMARK  4 active torsions:
REMARK  status: ('A' for Active; 'I' for Inactive)
REMARK    1  A    between atoms: C_2  and  C_3
REMARK    2  A    between atoms: C_3  and  C_4
REMARK    3  A    between atoms: C_4  and  C_6
REMARK    4  A    between atoms: C_6  and  C_7
REMARK                            x       y       z     vdW  Elec       q    Type
REMARK                         _______ _______ _______ _____ _____    ______ ____
ROOT
ATOM      1  C   UNL     1       1.378   5.811  -8.130  0.00  0.00    +0.141 C 
ATOM      2  C   UNL     1       2.018   4.656  -8.795  0.00  0.00    +0.257 C 
ATOM      3  O   UNL     1       1.408   4.046  -9.725  0.00  0.00    -0.272 OA
ATOM      4  N   UNL     1       3.441   4.482  -8.809  0.00  0.00    -0.125 NA
ATOM      5  C   UNL     1       4.309   5.536  -8.378  0.00  0.00    +0.352 C 
ATOM      6  O   UNL     1       5.483   5.168  -8.065  0.00  0.00    -0.248 OA
ATOM      7  N   UNL     1       3.689   6.547  -7.573  0.00  0.00    -0.125 NA
ATOM      8  C   UNL     1       2.293   6.844  -7.676  0.00  0.00    +0.257 C 
ATOM      9  O   UNL     1       2.003   8.072  -7.814  0.00  0.00    -0.272 OA
ENDROOT
BRANCH   1  10
ATOM     10  C   UNL     1       0.668   5.159  -6.787  0.00  0.00    +0.017 C 
ATOM     11  C   UNL     1      -0.840   5.201  -7.466  0.00  0.00    +0.001 C 
BRANCH  10  12
ATOM     12  C   UNL     1       0.452   6.643  -6.084  0.00  0.00    +0.001 C 
BRANCH  12  14
ATOM     13  C   UNL     1      -1.288   7.875  -4.795  0.00  0.00    +0.000 C 
ATOM     14  C   UNL     1      -0.864   6.532  -5.360  0.00  0.00    +0.000 C 
ENDBRANCH  12  14
ENDBRANCH  10  12
ENDBRANCH   1  10
BRANCH   1  15
ATOM     15  C   UNL     1       0.247   6.287  -8.988  0.00  0.00    +0.018 C 
ATOM     16  C   UNL     1       0.651   6.818 -10.326  0.00  0.00    +0.001 C 
ENDBRANCH   1  15
TORSDOF 4
ENDMDL
MODEL 7
REMARK VINA RESULT:      -5.5      1.878      4.078
REMARK  Name = 
REMARK  4 active torsions:
REMARK  status: ('A' for Active; 'I' for Inactive)
REMARK    1  A    between atoms: C_2  and  C_3
REMARK    2  A    between atoms: C_3  and  C_4
REMARK    3  A    between atoms: C_4  and  C_6
REMARK    4  A    between atoms: C_6  and  C_7
REMARK                            x       y       z     vdW  Elec       q    Type
REMARK                         _______ _______ _______ _____ _____    ______ ____
ROOT
ATOM      1  C   UNL     1       1.986   5.874  -5.620  0.00  0.00    +0.141 C 
ATOM      2  C   UNL     1       2.838   6.917  -6.229  0.00  0.00    +0.257 C 
ATOM      3  O   UNL     1       3.736   7.483  -5.533  0.00  0.00    -0.272 OA
ATOM      4  N   UNL     1       3.054   6.989  -7.644  0.00  0.00    -0.125 NA
ATOM      5  C   UNL     1       2.640   5.919  -8.501  0.00  0.00    +0.352 C 
ATOM      6  O   UNL     1       2.521   6.229  -9.725  0.00  0.00    -0.248 OA
ATOM      7  N   UNL     1       1.666   5.029  -7.939  0.00  0.00    -0.125 NA
ATOM      8  C   UNL     1       1.557   4.824  -6.527  0.00  0.00    +0.257 C 
ATOM      9  O   UNL     1       1.534   3.612  -6.150  0.00  0.00    -0.272 OA
ENDROOT
BRANCH   1  10
ATOM     10  C   UNL     1       0.631   6.691  -5.139  0.00  0.00    +0.017 C 
ATOM     11  C   UNL     1       0.977   6.482  -3.535  0.00  0.00    +0.001 C 
BRANCH  10  12
ATOM     12  C   UNL     1      -0.302   5.324  -5.171  0.00  0.00    +0.001 C 
BRANCH  12  14
ATOM     13  C   UNL     1      -2.423   5.750  -6.406  0.00  0.00    +0.000 C 
ATOM     14  C   UNL     1      -1.717   5.827  -5.066  0.00  0.00    +0.000 C 
ENDBRANCH  12  14
ENDBRANCH  10  12
ENDBRANCH   1  10
BRANCH   1  15
ATOM     15  C   UNL     1       2.637   5.405  -4.357  0.00  0.00    +0.018 C 
ATOM     16  C   UNL     1       3.920   4.660  -4.548  0.00  0.00    +0.001 C 
ENDBRANCH   1  15
TORSDOF 4
ENDMDL
MODEL 8
REMARK VINA RESULT:      -5.4      2.198      3.830
REMARK  Name = 
REMARK  4 active torsions:
REMARK  status: ('A' for Active; 'I' for Inactive)
REMARK    1  A    between atoms: C_2  and  C_3
REMARK    2  A    between atoms: C_3  and  C_4
REMARK    3  A    between atoms: C_4  and  C_6
REMARK    4  A    between atoms: C_6  and  C_7
REMARK                            x       y       z     vdW  Elec       q    Type
REMARK                         _______ _______ _______ _____ _____    ______ ____
ROOT
ATOM      1  C   UNL     1       2.803   5.824  -5.901  0.00  0.00    +0.141 C 
ATOM      2  C   UNL     1       2.039   6.946  -6.486  0.00  0.00    +0.257 C 
ATOM      3  O   UNL     1       2.638   7.823  -7.180  0.00  0.00    -0.272 OA
ATOM      4  N   UNL     1       0.631   6.855  -6.736  0.00  0.00    -0.125 NA
ATOM      5  C   UNL     1      -0.047   5.597  -6.644  0.00  0.00    +0.352 C 
ATOM      6  O   UNL     1      -1.305   5.675  -6.501  0.00  0.00    -0.248 OA
ATOM      7  N   UNL     1       0.647   4.583  -5.904  0.00  0.00    -0.125 NA
ATOM      8  C   UNL     1       2.073   4.574  -5.791  0.00  0.00    +0.257 C 
ATOM      9  O   UNL     1       2.637   3.469  -6.061  0.00  0.00    -0.272 OA
ENDROOT
BRANCH   1  10
ATOM     10  C   UNL     1       3.147   6.329  -4.364  0.00  0.00    +0.017 C 
ATOM     11  C   UNL     1       4.401   7.283  -4.873  0.00  0.00    +0.001 C 
BRANCH  10  12
ATOM     12  C   UNL     1       4.162   5.051  -4.086  0.00  0.00    +0.001 C 
BRANCH  12  14
ATOM     13  C   UNL     1       2.824   5.325  -2.004  0.00  0.00    +0.000 C 
ATOM     14  C   UNL     1       4.147   4.871  -2.591  0.00  0.00    +0.000 C 
ENDBRANCH  12  14
ENDBRANCH  10  12
ENDBRANCH   1  10
BRANCH   1  15
ATOM     15  C   UNL     1       4.126   5.736  -6.597  0.00  0.00    +0.018 C 
ATOM     16  C   UNL     1       4.065   5.247  -8.008  0.00  0.00    +0.001 C 
ENDBRANCH   1  15
TORSDOF 4
ENDMDL
MODEL 9
REMARK VINA RESULT:      -5.3      2.643      4.615
REMARK  Name = 
REMARK  4 active torsions:
REMARK  status: ('A' for Active; 'I' for Inactive)
REMARK    1  A    between atoms: C_2  and  C_3
REMARK    2  A    between atoms: C_3  and  C_4
REMARK    3  A    between atoms: C_4  and  C_6
REMARK    4  A    between atoms: C_6  and  C_7
REMARK                            x       y       z     vdW  Elec       q    Type
REMARK                         _______ _______ _______ _____ _____    ______ ____
ROOT
ATOM      1  C   UNL     1       1.904   5.684  -6.751  0.00  0.00    +0.141 C 
ATOM      2  C   UNL     1       1.698   6.772  -5.772  0.00  0.00    +0.257 C 
ATOM      3  O   UNL     1       0.706   7.553  -5.897  0.00  0.00    -0.272 OA
ATOM      4  N   UNL     1       2.238   6.711  -4.446  0.00  0.00    -0.125 NA
ATOM      5  C   UNL     1       2.804   5.495  -3.943  0.00  0.00    +0.352 C 
ATOM      6  O   UNL     1       3.580   5.636  -2.949  0.00  0.00    -0.248 OA
ATOM      7  N   UNL     1       3.167   4.533  -4.942  0.00  0.00    -0.125 NA
ATOM      8  C   UNL     1       2.511   4.480  -6.213  0.00  0.00    +0.257 C 
ATOM      9  O   UNL     1       2.101   3.333  -6.570  0.00  0.00    -0.272 OA
ENDROOT
BRANCH   1  10
ATOM     10  C   UNL     1       2.967   6.324  -7.845  0.00  0.00    +0.017 C 
ATOM     11  C   UNL     1       1.755   6.995  -8.750  0.00  0.00    +0.001 C 
BRANCH  10  12
ATOM     12  C   UNL     1       2.967   4.949  -8.768  0.00  0.00    +0.001 C 
BRANCH  12  14
ATOM     13  C   UNL     1       5.423   5.234  -8.463  0.00  0.00    +0.000 C 
ATOM     14  C   UNL     1       4.308   4.951  -9.452  0.00  0.00    +0.000 C 
ENDBRANCH  12  14
ENDBRANCH  10  12
ENDBRANCH   1  10
BRANCH   1  15
ATOM     15  C   UNL     1       0.629   5.478  -7.508  0.00  0.00    +0.018 C 
ATOM     16  C   UNL     1      -0.535   5.044  -6.676  0.00  0.00    +0.001 C 
ENDBRANCH   1  15
TORSDOF 4
ENDMDL
