MODEL 1
REMARK VINA RESULT:      -3.6      0.000      0.000
REMARK  Name = 
REMARK  6 active torsions:
REMARK  status: ('A' for Active; 'I' for Inactive)
REMARK    1  A    between atoms: C_2  and  C_3
REMARK    2  A    between atoms: C_3  and  N_4
REMARK    3  A    between atoms: N_4  and  C_5
REMARK    4  A    between atoms: N_4  and  C_8
REMARK    5  A    between atoms: C_5  and  C_6
REMARK    6  A    between atoms: C_8  and  C_9
REMARK                            x       y       z     vdW  Elec       q    Type
REMARK                         _______ _______ _______ _____ _____    ______ ____
ROOT
ATOM      1  N   UNL     1      -0.444   6.239  -4.172  0.00  0.00    -0.266 NA
ENDROOT
BRANCH   1   2
ATOM      2  C   UNL     1       0.487   5.287  -3.720  0.00  0.00    +0.108 C 
BRANCH   2   4
ATOM      3  O   UNL     1       0.435   4.480  -1.448  0.00  0.00    -0.219 OA
ATOM      4  C   UNL     1       0.782   5.545  -2.261  0.00  0.00    +0.199 C 
ENDBRANCH   2   4
ENDBRANCH   1   2
BRANCH   1   5
ATOM      5  C   UNL     1      -1.558   6.550  -3.377  0.00  0.00    +0.108 C 
BRANCH   5   6
ATOM      6  C   UNL     1      -2.644   5.507  -3.569  0.00  0.00    +0.199 C 
ATOM      7  O   UNL     1      -2.788   4.737  -2.426  0.00  0.00    -0.219 OA
ENDBRANCH   5   6
ENDBRANCH   1   5
BRANCH   1   8
ATOM      8  C   UNL     1      -0.411   6.649  -5.512  0.00  0.00    +0.108 C 
BRANCH   8   9
ATOM      9  C   UNL     1      -0.198   5.469  -6.442  0.00  0.00    +0.199 C 
ATOM     10  O   UNL     1      -1.473   5.104  -6.894  0.00  0.00    -0.219 OA
ENDBRANCH   8   9
ENDBRANCH   1   8
TORSDOF 6
ENDMDL
MODEL 2
REMARK VINA RESULT:      -3.6      0.777      2.810
REMARK  Name = 
REMARK  6 active torsions:
REMARK  status: ('A' for Active; 'I' for Inactive)
REMARK    1  A    between atoms: C_2  and  C_3
REMARK    2  A    between atoms: C_3  and  N_4
REMARK    3  A    between atoms: N_4  and  C_5
REMARK    4  A    between atoms: N_4  and  C_8
REMARK    5  A    between atoms: C_5  and  C_6
REMARK    6  A    between atoms: C_8  and  C_9
REMARK                            x       y       z     vdW  Elec       q    Type
REMARK                         _______ _______ _______ _____ _____    ______ ____
ROOT
ATOM      1  N   UNL     1      -0.981   6.289  -3.899  0.00  0.00    -0.266 NA
ENDROOT
BRANCH   1   2
ATOM      2  C   UNL     1       0.201   5.584  -3.615  0.00  0.00    +0.108 C 
BRANCH   2   4
ATOM      3  O   UNL     1       0.400   4.428  -1.508  0.00  0.00    -0.219 OA
ATOM      4  C   UNL     1       0.472   5.662  -2.130  0.00  0.00    +0.199 C 
ENDBRANCH   2   4
ENDBRANCH   1   2
BRANCH   1   5
ATOM      5  C   UNL     1      -1.181   6.818  -5.184  0.00  0.00    +0.108 C 
BRANCH   5   6
ATOM      6  C   UNL     1      -1.330   5.695  -6.193  0.00  0.00    +0.199 C 
ATOM      7  O   UNL     1      -2.666   5.371  -6.371  0.00  0.00    -0.219 OA
ENDBRANCH   5   6
ENDBRANCH   1   5
BRANCH   1   8
ATOM      8  C   UNL     1      -1.806   6.701  -2.843  0.00  0.00    +0.108 C 
BRANCH   8   9
ATOM      9  C   UNL     1      -3.165   6.029  -2.914  0.00  0.00    +0.199 C 
ATOM     10  O   UNL     1      -2.924   4.660  -2.742  0.00  0.00    -0.219 OA
ENDBRANCH   8   9
ENDBRANCH   1   8
TORSDOF 6
ENDMDL
MODEL 3
REMARK VINA RESULT:      -3.5      8.364     10.099
REMARK  Name = 
REMARK  6 active torsions:
REMARK  status: ('A' for Active; 'I' for Inactive)
REMARK    1  A    between atoms: C_2  and  C_3
REMARK    2  A    between atoms: C_3  and  N_4
REMARK    3  A    between atoms: N_4  and  C_5
REMARK    4  A    between atoms: N_4  and  C_8
REMARK    5  A    between atoms: C_5  and  C_6
REMARK    6  A    between atoms: C_8  and  C_9
REMARK                            x       y       z     vdW  Elec       q    Type
REMARK                         _______ _______ _______ _____ _____    ______ ____
ROOT
ATOM      1  N   UNL     1       5.954   5.783 -10.831  0.00  0.00    -0.266 NA
ENDROOT
BRANCH   1   2
ATOM      2  C   UNL     1       6.188   5.625  -9.454  0.00  0.00    +0.108 C 
BRANCH   2   4
ATOM      3  O   UNL     1       4.770   5.576  -7.504  0.00  0.00    -0.219 OA
ATOM      4  C   UNL     1       4.926   5.112  -8.798  0.00  0.00    +0.199 C 
ENDBRANCH   2   4
ENDBRANCH   1   2
BRANCH   1   5
ATOM      5  C   UNL     1       6.896   6.458 -11.622  0.00  0.00    +0.108 C 
BRANCH   5   6
ATOM      6  C   UNL     1       8.134   5.599 -11.804  0.00  0.00    +0.199 C 
ATOM      7  O   UNL     1       7.935   4.658 -12.802  0.00  0.00    -0.219 OA
ENDBRANCH   5   6
ENDBRANCH   1   5
BRANCH   1   8
ATOM      8  C   UNL     1       4.674   5.527 -11.344  0.00  0.00    +0.108 C 
BRANCH   8   9
ATOM      9  C   UNL     1       4.624   5.773 -12.841  0.00  0.00    +0.199 C 
ATOM     10  O   UNL     1       4.649   4.506 -13.438  0.00  0.00    -0.219 OA
ENDBRANCH   8   9
ENDBRANCH   1   8
TORSDOF 6
ENDMDL
MODEL 4
REMARK VINA RESULT:      -3.5      1.483      3.076
REMARK  Name = 
REMARK  6 active torsions:
REMARK  status: ('A' for Active; 'I' for Inactive)
REMARK    1  A    between atoms: C_2  and  C_3
REMARK    2  A    between atoms: C_3  and  N_4
REMARK    3  A    between atoms: N_4  and  C_5
REMARK    4  A    between atoms: N_4  and  C_8
REMARK    5  A    between atoms: C_5  and  C_6
REMARK    6  A    between atoms: C_8  and  C_9
REMARK                            x       y       z     vdW  Elec       q    Type
REMARK                         _______ _______ _______ _____ _____    ______ ____
ROOT
ATOM      1  N   UNL     1       0.075   5.623  -3.633  0.00  0.00    -0.266 NA
ENDROOT
BRANCH   1   2
ATOM      2  C   UNL     1      -1.072   6.249  -3.115  0.00  0.00    +0.108 C 
BRANCH   2   4
ATOM      3  O   UNL     1      -2.815   4.667  -2.590  0.00  0.00    -0.219 OA
ATOM      4  C   UNL     1      -2.295   5.488  -3.575  0.00  0.00    +0.199 C 
ENDBRANCH   2   4
ENDBRANCH   1   2
BRANCH   1   5
ATOM      5  C   UNL     1       1.185   5.410  -2.801  0.00  0.00    +0.108 C 
BRANCH   5   6
ATOM      6  C   UNL     1       0.727   4.956  -1.427  0.00  0.00    +0.199 C 
ATOM      7  O   UNL     1       1.808   4.550  -0.661  0.00  0.00    -0.219 OA
ENDBRANCH   5   6
ENDBRANCH   1   5
BRANCH   1   8
ATOM      8  C   UNL     1       0.212   5.479  -5.021  0.00  0.00    +0.108 C 
BRANCH   8   9
ATOM      9  C   UNL     1       1.572   4.912  -5.383  0.00  0.00    +0.199 C 
ATOM     10  O   UNL     1       1.320   3.687  -6.015  0.00  0.00    -0.219 OA
ENDBRANCH   8   9
ENDBRANCH   1   8
TORSDOF 6
ENDMDL
MODEL 5
REMARK VINA RESULT:      -3.5      1.130      3.356
REMARK  Name = 
REMARK  6 active torsions:
REMARK  status: ('A' for Active; 'I' for Inactive)
REMARK    1  A    between atoms: C_2  and  C_3
REMARK    2  A    between atoms: C_3  and  N_4
REMARK    3  A    between atoms: N_4  and  C_5
REMARK    4  A    between atoms: N_4  and  C_8
REMARK    5  A    between atoms: C_5  and  C_6
REMARK    6  A    between atoms: C_8  and  C_9
REMARK                            x       y       z     vdW  Elec       q    Type
REMARK                         _______ _______ _______ _____ _____    ______ ____
ROOT
ATOM      1  N   UNL     1      -0.392   5.664  -4.329  0.00  0.00    -0.266 NA
ENDROOT
BRANCH   1   2
ATOM      2  C   UNL     1      -0.343   5.347  -5.697  0.00  0.00    +0.108 C 
BRANCH   2   4
ATOM      3  O   UNL     1       1.429   4.720  -7.208  0.00  0.00    -0.219 OA
ATOM      4  C   UNL     1       0.878   4.495  -5.959  0.00  0.00    +0.199 C 
ENDBRANCH   2   4
ENDBRANCH   1   2
BRANCH   1   5
ATOM      5  C   UNL     1      -1.507   6.344  -3.814  0.00  0.00    +0.108 C 
BRANCH   5   6
ATOM      6  C   UNL     1      -2.734   5.453  -3.871  0.00  0.00    +0.199 C 
ATOM      7  O   UNL     1      -2.828   4.679  -2.726  0.00  0.00    -0.219 OA
ENDBRANCH   5   6
ENDBRANCH   1   5
BRANCH   1   8
ATOM      8  C   UNL     1       0.774   5.560  -3.557  0.00  0.00    +0.108 C 
BRANCH   8   9
ATOM      9  C   UNL     1       0.473   5.743  -2.081  0.00  0.00    +0.199 C 
ATOM     10  O   UNL     1       0.347   4.452  -1.553  0.00  0.00    -0.219 OA
ENDBRANCH   8   9
ENDBRANCH   1   8
TORSDOF 6
ENDMDL
MODEL 6
REMARK VINA RESULT:      -3.5      1.469      4.169
REMARK  Name = 
REMARK  6 active torsions:
REMARK  status: ('A' for Active; 'I' for Inactive)
REMARK    1  A    between atoms: C_2  and  C_3
REMARK    2  A    between atoms: C_3  and  N_4
REMARK    3  A    between atoms: N_4  and  C_5
REMARK    4  A    between atoms: N_4  and  C_8
REMARK    5  A    between atoms: C_5  and  C_6
REMARK    6  A    between atoms: C_8  and  C_9
REMARK                            x       y       z     vdW  Elec       q    Type
REMARK                         _______ _______ _______ _____ _____    ______ ____
ROOT
ATOM      1  N   UNL     1       0.054   5.897  -3.513  0.00  0.00    -0.266 NA
ENDROOT
BRANCH   1   2
ATOM      2  C   UNL     1      -1.143   6.374  -2.951  0.00  0.00    +0.108 C 
BRANCH   2   4
ATOM      3  O   UNL     1      -2.798   4.654  -2.609  0.00  0.00    -0.219 OA
ATOM      4  C   UNL     1      -2.298   5.576  -3.511  0.00  0.00    +0.199 C 
ENDBRANCH   2   4
ENDBRANCH   1   2
BRANCH   1   5
ATOM      5  C   UNL     1       0.055   5.401  -4.826  0.00  0.00    +0.108 C 
BRANCH   5   6
ATOM      6  C   UNL     1       1.430   4.864  -5.179  0.00  0.00    +0.199 C 
ATOM      7  O   UNL     1       1.325   3.764  -6.014  0.00  0.00    -0.219 OA
ENDBRANCH   5   6
ENDBRANCH   1   5
BRANCH   1   8
ATOM      8  C   UNL     1       1.155   5.655  -2.679  0.00  0.00    +0.108 C 
BRANCH   8   9
ATOM      9  C   UNL     1       0.740   4.904  -1.427  0.00  0.00    +0.199 C 
ATOM     10  O   UNL     1       1.674   5.254  -0.444  0.00  0.00    -0.219 OA
ENDBRANCH   8   9
ENDBRANCH   1   8
TORSDOF 6
ENDMDL
MODEL 7
REMARK VINA RESULT:      -3.5      8.727     10.711
REMARK  Name = 
REMARK  6 active torsions:
REMARK  status: ('A' for Active; 'I' for Inactive)
REMARK    1  A    between atoms: C_2  and  C_3
REMARK    2  A    between atoms: C_3  and  N_4
REMARK    3  A    between atoms: N_4  and  C_5
REMARK    4  A    between atoms: N_4  and  C_8
REMARK    5  A    between atoms: C_5  and  C_6
REMARK    6  A    between atoms: C_8  and  C_9
REMARK                            x       y       z     vdW  Elec       q    Type
REMARK                         _______ _______ _______ _____ _____    ______ ____
ROOT
ATOM      1  N   UNL     1       5.996   6.276 -11.467  0.00  0.00    -0.266 NA
ENDROOT
BRANCH   1   2
ATOM      2  C   UNL     1       7.003   6.827 -12.279  0.00  0.00    +0.108 C 
BRANCH   2   4
ATOM      3  O   UNL     1       7.925   4.669 -12.831  0.00  0.00    -0.219 OA
ATOM      4  C   UNL     1       8.199   5.904 -12.270  0.00  0.00    +0.199 C 
ENDBRANCH   2   4
ENDBRANCH   1   2
BRANCH   1   5
ATOM      5  C   UNL     1       4.674   6.229 -11.937  0.00  0.00    +0.108 C 
BRANCH   5   6
ATOM      6  C   UNL     1       4.654   5.815 -13.396  0.00  0.00    +0.199 C 
ATOM      7  O   UNL     1       4.676   4.435 -13.513  0.00  0.00    -0.219 OA
ENDBRANCH   5   6
ENDBRANCH   1   5
BRANCH   1   8
ATOM      8  C   UNL     1       6.258   6.046 -10.109  0.00  0.00    +0.108 C 
BRANCH   8   9
ATOM      9  C   UNL     1       5.031   5.506  -9.398  0.00  0.00    +0.199 C 
ATOM     10  O   UNL     1       5.501   4.924  -8.213  0.00  0.00    -0.219 OA
ENDBRANCH   8   9
ENDBRANCH   1   8
TORSDOF 6
ENDMDL
MODEL 8
REMARK VINA RESULT:      -3.4      8.709     10.351
REMARK  Name = 
REMARK  6 active torsions:
REMARK  status: ('A' for Active; 'I' for Inactive)
REMARK    1  A    between atoms: C_2  and  C_3
REMARK    2  A    between atoms: C_3  and  N_4
REMARK    3  A    between atoms: N_4  and  C_5
REMARK    4  A    between atoms: N_4  and  C_8
REMARK    5  A    between atoms: C_5  and  C_6
REMARK    6  A    between atoms: C_8  and  C_9
REMARK                            x       y       z     vdW  Elec       q    Type
REMARK                         _______ _______ _______ _____ _____    ______ ____
ROOT
ATOM      1  N   UNL     1       5.985   6.474 -11.421  0.00  0.00    -0.266 NA
ENDROOT
BRANCH   1   2
ATOM      2  C   UNL     1       7.032   6.822 -12.292  0.00  0.00    +0.108 C 
BRANCH   2   4
ATOM      3  O   UNL     1       7.949   4.637 -12.742  0.00  0.00    -0.219 OA
ATOM      4  C   UNL     1       8.170   5.845 -12.104  0.00  0.00    +0.199 C 
ENDBRANCH   2   4
ENDBRANCH   1   2
BRANCH   1   5
ATOM      5  C   UNL     1       6.278   6.078 -10.107  0.00  0.00    +0.108 C 
BRANCH   5   6
ATOM      6  C   UNL     1       5.078   5.382  -9.492  0.00  0.00    +0.199 C 
ATOM      7  O   UNL     1       5.324   5.060  -8.167  0.00  0.00    -0.219 OA
ENDBRANCH   5   6
ENDBRANCH   1   5
BRANCH   1   8
ATOM      8  C   UNL     1       4.703   6.251 -11.943  0.00  0.00    +0.108 C 
BRANCH   8   9
ATOM      9  C   UNL     1       4.768   5.876 -13.413  0.00  0.00    +0.199 C 
ATOM     10  O   UNL     1       4.708   4.477 -13.453  0.00  0.00    -0.219 OA
ENDBRANCH   8   9
ENDBRANCH   1   8
TORSDOF 6
ENDMDL
MODEL 9
REMARK VINA RESULT:      -3.4      8.114     10.241
REMARK  Name = 
REMARK  6 active torsions:
REMARK  status: ('A' for Active; 'I' for Inactive)
REMARK    1  A    between atoms: C_2  and  C_3
REMARK    2  A    between atoms: C_3  and  N_4
REMARK    3  A    between atoms: N_4  and  C_5
REMARK    4  A    between atoms: N_4  and  C_8
REMARK    5  A    between atoms: C_5  and  C_6
REMARK    6  A    between atoms: C_8  and  C_9
REMARK                            x       y       z     vdW  Elec       q    Type
REMARK                         _______ _______ _______ _____ _____    ______ ____
ROOT
ATOM      1  N   UNL     1       4.803   5.359 -11.803  0.00  0.00    -0.266 NA
ENDROOT
BRANCH   1   2
ATOM      2  C   UNL     1       6.127   5.673 -11.448  0.00  0.00    +0.108 C 
BRANCH   2   4
ATOM      3  O   UNL     1       7.913   4.567 -12.631  0.00  0.00    -0.219 OA
ATOM      4  C   UNL     1       6.995   5.601 -12.683  0.00  0.00    +0.199 C 
ENDBRANCH   2   4
ENDBRANCH   1   2
BRANCH   1   5
ATOM      5  C   UNL     1       4.455   5.252 -13.158  0.00  0.00    +0.108 C 
BRANCH   5   6
ATOM      6  C   UNL     1       2.975   5.534 -13.340  0.00  0.00    +0.199 C 
ATOM      7  O   UNL     1       2.472   4.826 -14.420  0.00  0.00    -0.219 OA
ENDBRANCH   5   6
ENDBRANCH   1   5
BRANCH   1   8
ATOM      8  C   UNL     1       3.795   5.439 -10.832  0.00  0.00    +0.108 C 
BRANCH   8   9
ATOM      9  C   UNL     1       4.348   5.169  -9.444  0.00  0.00    +0.199 C 
ATOM     10  O   UNL     1       3.744   3.979  -9.017  0.00  0.00    -0.219 OA
ENDBRANCH   8   9
ENDBRANCH   1   8
TORSDOF 6
ENDMDL
