MODEL 1
REMARK VINA RESULT:      -2.9      0.000      0.000
REMARK  Name = 
REMARK  1 active torsions:
REMARK  status: ('A' for Active; 'I' for Inactive)
REMARK    1  A    between atoms: CA_2  and  C_3
REMARK                            x       y       z     vdW  Elec       q    Type
REMARK                         _______ _______ _______ _____ _____    ______ ____
ROOT
ATOM      1  C   GLY A   1       8.182   5.381 -11.890  0.00  0.00    +0.384 C 
ATOM      2  OXT GLY A   1       7.639   4.619 -12.928  0.00  0.00    -0.244 OA
ATOM      3  O   GLY A   1       9.333   5.858 -12.127  0.00  0.00    -0.244 OA
ENDROOT
BRANCH   1   5
ATOM      4  N   GLY A   1       7.529   5.632  -9.583  0.00  0.00    -0.119 NA
ATOM      5  CA  GLY A   1       7.278   6.099 -10.937  0.00  0.00    +0.223 C 
ENDBRANCH   1   5
TORSDOF 1
ENDMDL
MODEL 2
REMARK VINA RESULT:      -2.9      2.496      2.665
REMARK  Name = 
REMARK  1 active torsions:
REMARK  status: ('A' for Active; 'I' for Inactive)
REMARK    1  A    between atoms: CA_2  and  C_3
REMARK                            x       y       z     vdW  Elec       q    Type
REMARK                         _______ _______ _______ _____ _____    ______ ____
ROOT
ATOM      1  C   GLY A   1       7.685   6.134 -10.804  0.00  0.00    +0.384 C 
ATOM      2  OXT GLY A   1       7.705   5.423  -9.600  0.00  0.00    -0.244 OA
ATOM      3  O   GLY A   1       7.405   7.365 -10.689  0.00  0.00    -0.244 OA
ENDROOT
BRANCH   1   5
ATOM      4  N   GLY A   1       7.790   4.723 -12.755  0.00  0.00    -0.119 NA
ATOM      5  CA  GLY A   1       8.531   5.682 -11.953  0.00  0.00    +0.223 C 
ENDBRANCH   1   5
TORSDOF 1
ENDMDL
MODEL 3
REMARK VINA RESULT:      -2.9      2.458      2.672
REMARK  Name = 
REMARK  1 active torsions:
REMARK  status: ('A' for Active; 'I' for Inactive)
REMARK    1  A    between atoms: CA_2  and  C_3
REMARK                            x       y       z     vdW  Elec       q    Type
REMARK                         _______ _______ _______ _____ _____    ______ ____
ROOT
ATOM      1  C   GLY A   1       7.172   5.309 -12.124  0.00  0.00    +0.384 C 
ATOM      2  OXT GLY A   1       7.845   5.369 -10.900  0.00  0.00    -0.244 OA
ATOM      3  O   GLY A   1       7.762   4.636 -13.022  0.00  0.00    -0.244 OA
ENDROOT
BRANCH   1   5
ATOM      4  N   GLY A   1       5.176   4.817 -13.382  0.00  0.00    -0.119 NA
ATOM      5  CA  GLY A   1       5.680   5.429 -12.163  0.00  0.00    +0.223 C 
ENDBRANCH   1   5
TORSDOF 1
ENDMDL
MODEL 4
REMARK VINA RESULT:      -2.8      0.387      1.464
REMARK  Name = 
REMARK  1 active torsions:
REMARK  status: ('A' for Active; 'I' for Inactive)
REMARK    1  A    between atoms: CA_2  and  C_3
REMARK                            x       y       z     vdW  Elec       q    Type
REMARK                         _______ _______ _______ _____ _____    ______ ____
ROOT
ATOM      1  C   GLY A   1       7.935   5.525 -12.285  0.00  0.00    +0.384 C 
ATOM      2  OXT GLY A   1       9.286   5.803 -12.059  0.00  0.00    -0.244 OA
ATOM      3  O   GLY A   1       7.715   4.649 -13.175  0.00  0.00    -0.244 OA
ENDROOT
BRANCH   1   5
ATOM      4  N   GLY A   1       7.614   5.637  -9.899  0.00  0.00    -0.119 NA
ATOM      5  CA  GLY A   1       6.938   5.712 -11.184  0.00  0.00    +0.223 C 
ENDBRANCH   1   5
TORSDOF 1
ENDMDL
MODEL 5
REMARK VINA RESULT:      -2.8     12.545     12.983
REMARK  Name = 
REMARK  1 active torsions:
REMARK  status: ('A' for Active; 'I' for Inactive)
REMARK    1  A    between atoms: CA_2  and  C_3
REMARK                            x       y       z     vdW  Elec       q    Type
REMARK                         _______ _______ _______ _____ _____    ______ ____
ROOT
ATOM      1  C   GLY A   1      -2.019   5.416  -3.209  0.00  0.00    +0.384 C 
ATOM      2  OXT GLY A   1      -2.529   5.543  -4.505  0.00  0.00    -0.244 OA
ATOM      3  O   GLY A   1      -2.731   4.718  -2.425  0.00  0.00    -0.244 OA
ENDROOT
BRANCH   1   5
ATOM      4  N   GLY A   1      -0.211   4.832  -1.726  0.00  0.00    -0.119 NA
ATOM      5  CA  GLY A   1      -0.543   5.499  -2.975  0.00  0.00    +0.223 C 
ENDBRANCH   1   5
TORSDOF 1
ENDMDL
MODEL 6
REMARK VINA RESULT:      -2.8     13.503     13.772
REMARK  Name = 
REMARK  1 active torsions:
REMARK  status: ('A' for Active; 'I' for Inactive)
REMARK    1  A    between atoms: CA_2  and  C_3
REMARK                            x       y       z     vdW  Elec       q    Type
REMARK                         _______ _______ _______ _____ _____    ______ ____
ROOT
ATOM      1  C   GLY A   1      -2.001   5.527  -2.314  0.00  0.00    +0.384 C 
ATOM      2  OXT GLY A   1      -0.902   5.012  -1.622  0.00  0.00    -0.244 OA
ATOM      3  O   GLY A   1      -2.847   4.660  -2.689  0.00  0.00    -0.244 OA
ENDROOT
BRANCH   1   5
ATOM      4  N   GLY A   1      -2.133   7.768  -3.193  0.00  0.00    -0.119 NA
ATOM      5  CA  GLY A   1      -2.461   6.928  -2.052  0.00  0.00    +0.223 C 
ENDBRANCH   1   5
TORSDOF 1
ENDMDL
MODEL 7
REMARK VINA RESULT:      -2.6     12.965     13.373
REMARK  Name = 
REMARK  1 active torsions:
REMARK  status: ('A' for Active; 'I' for Inactive)
REMARK    1  A    between atoms: CA_2  and  C_3
REMARK                            x       y       z     vdW  Elec       q    Type
REMARK                         _______ _______ _______ _____ _____    ______ ____
ROOT
ATOM      1  C   GLY A   1      -2.686   6.774  -3.937  0.00  0.00    +0.384 C 
ATOM      2  OXT GLY A   1      -2.005   7.987  -3.803  0.00  0.00    -0.244 OA
ATOM      3  O   GLY A   1      -2.265   6.030  -4.874  0.00  0.00    -0.244 OA
ENDROOT
BRANCH   1   5
ATOM      4  N   GLY A   1      -2.727   4.856  -2.478  0.00  0.00    -0.119 NA
ATOM      5  CA  GLY A   1      -3.340   6.147  -2.745  0.00  0.00    +0.223 C 
ENDBRANCH   1   5
TORSDOF 1
ENDMDL
MODEL 8
REMARK VINA RESULT:      -2.6     12.878     13.255
REMARK  Name = 
REMARK  1 active torsions:
REMARK  status: ('A' for Active; 'I' for Inactive)
REMARK    1  A    between atoms: CA_2  and  C_3
REMARK                            x       y       z     vdW  Elec       q    Type
REMARK                         _______ _______ _______ _____ _____    ______ ____
ROOT
ATOM      1  C   GLY A   1      -2.334   5.387  -2.761  0.00  0.00    +0.384 C 
ATOM      2  OXT GLY A   1      -3.423   4.916  -3.501  0.00  0.00    -0.244 OA
ATOM      3  O   GLY A   1      -2.358   5.083  -1.531  0.00  0.00    -0.244 OA
ENDROOT
BRANCH   1   5
ATOM      4  N   GLY A   1      -1.203   5.651  -4.873  0.00  0.00    -0.119 NA
ATOM      5  CA  GLY A   1      -1.015   5.612  -3.432  0.00  0.00    +0.223 C 
ENDBRANCH   1   5
TORSDOF 1
ENDMDL
MODEL 9
REMARK VINA RESULT:      -2.4      7.201      7.353
REMARK  Name = 
REMARK  1 active torsions:
REMARK  status: ('A' for Active; 'I' for Inactive)
REMARK    1  A    between atoms: CA_2  and  C_3
REMARK                            x       y       z     vdW  Elec       q    Type
REMARK                         _______ _______ _______ _____ _____    ______ ____
ROOT
ATOM      1  C   GLY A   1       2.319   7.322  -7.249  0.00  0.00    +0.384 C 
ATOM      2  OXT GLY A   1       3.244   7.441  -6.208  0.00  0.00    -0.244 OA
ATOM      3  O   GLY A   1       2.116   8.390  -7.902  0.00  0.00    -0.244 OA
ENDROOT
BRANCH   1   5
ATOM      4  N   GLY A   1       2.984   5.007  -7.313  0.00  0.00    -0.119 NA
ATOM      5  CA  GLY A   1       2.121   6.003  -7.927  0.00  0.00    +0.223 C 
ENDBRANCH   1   5
TORSDOF 1
ENDMDL
