MODEL 1
REMARK VINA RESULT:      -6.7      0.000      0.000
REMARK  Name = 
REMARK  0 active torsions:
REMARK  status: ('A' for Active; 'I' for Inactive)
REMARK                            x       y       z     vdW  Elec       q    Type
REMARK                         _______ _______ _______ _____ _____    ______ ____
ROOT
ATOM      1  C   UNL     1       0.363   6.798 -10.949  0.00  0.00    +0.137 C 
ATOM      2  C   UNL     1       0.691   6.409  -9.542  0.00  0.00    +0.368 C 
ATOM      3  N   UNL     1      -0.105   5.472  -8.809  0.00  0.00    -0.007 NA
ATOM      4  C   UNL     1      -0.289   5.527  -7.412  0.00  0.00    +0.204 A 
ATOM      5  C   UNL     1       0.614   6.243  -6.631  0.00  0.00    +0.193 A 
ATOM      6  C   UNL     1       0.198   7.007  -5.548  0.00  0.00    +0.038 A 
ATOM      7  C   UNL     1      -1.121   6.931  -5.118  0.00  0.00    +0.059 A 
ATOM      8  C   UNL     1      -1.857   5.857  -5.607  0.00  0.00    +0.015 A 
ATOM      9 CL   UNL     1      -1.888   8.367  -4.459  0.00  0.00    -0.082 Cl
ATOM     10  S   UNL     1       2.165   6.510  -7.419  0.00  0.00    +0.183 S 
ATOM     11  O   UNL     1       2.881   5.180  -7.491  0.00  0.00    -0.125 OA
ATOM     12  O   UNL     1       2.972   7.560  -6.744  0.00  0.00    -0.125 OA
ATOM     13  C   UNL     1      -1.474   5.195  -6.769  0.00  0.00    +0.047 A 
ATOM     14  N   UNL     1       1.778   6.927  -9.060  0.00  0.00    +0.095 NA
ENDROOT
TORSDOF 0
ENDMDL
MODEL 2
REMARK VINA RESULT:      -6.4      4.641      6.155
REMARK  Name = 
REMARK  0 active torsions:
REMARK  status: ('A' for Active; 'I' for Inactive)
REMARK                            x       y       z     vdW  Elec       q    Type
REMARK                         _______ _______ _______ _____ _____    ______ ____
ROOT
ATOM      1  C   UNL     1       3.923   7.233  -4.824  0.00  0.00    +0.137 C 
ATOM      2  C   UNL     1       3.663   6.670  -6.186  0.00  0.00    +0.368 C 
ATOM      3  N   UNL     1       4.528   5.699  -6.783  0.00  0.00    -0.007 NA
ATOM      4  C   UNL     1       4.758   5.605  -8.172  0.00  0.00    +0.204 A 
ATOM      5  C   UNL     1       3.849   6.180  -9.055  0.00  0.00    +0.193 A 
ATOM      6  C   UNL     1       4.264   6.837 -10.207  0.00  0.00    +0.038 A 
ATOM      7  C   UNL     1       5.599   6.782 -10.587  0.00  0.00    +0.059 A 
ATOM      8  C   UNL     1       6.369   5.811  -9.957  0.00  0.00    +0.015 A 
ATOM      9 CL   UNL     1       6.318   8.173 -11.384  0.00  0.00    -0.082 Cl
ATOM     10  S   UNL     1       2.260   6.453  -8.349  0.00  0.00    +0.183 S 
ATOM     11  O   UNL     1       1.607   5.104  -8.145  0.00  0.00    -0.125 OA
ATOM     12  O   UNL     1       1.426   7.376  -9.162  0.00  0.00    -0.125 OA
ATOM     13  C   UNL     1       5.979   5.265  -8.739  0.00  0.00    +0.047 A 
ATOM     14  N   UNL     1       2.570   7.073  -6.756  0.00  0.00    +0.095 NA
ENDROOT
TORSDOF 0
ENDMDL
MODEL 3
REMARK VINA RESULT:      -6.2      2.076      2.183
REMARK  Name = 
REMARK  0 active torsions:
REMARK  status: ('A' for Active; 'I' for Inactive)
REMARK                            x       y       z     vdW  Elec       q    Type
REMARK                         _______ _______ _______ _____ _____    ______ ____
ROOT
ATOM      1  C   UNL     1       2.455   7.616  -8.304  0.00  0.00    +0.137 C 
ATOM      2  C   UNL     1       1.887   6.554  -7.416  0.00  0.00    +0.368 C 
ATOM      3  N   UNL     1       0.643   5.909  -7.705  0.00  0.00    -0.007 NA
ATOM      4  C   UNL     1      -0.243   5.437  -6.713  0.00  0.00    +0.204 A 
ATOM      5  C   UNL     1       0.233   5.209  -5.426  0.00  0.00    +0.193 A 
ATOM      6  C   UNL     1      -0.521   5.525  -4.302  0.00  0.00    +0.038 A 
ATOM      7  C   UNL     1      -1.845   5.920  -4.450  0.00  0.00    +0.059 A 
ATOM      8  C   UNL     1      -2.417   5.668  -5.691  0.00  0.00    +0.015 A 
ATOM      9 CL   UNL     1      -2.514   7.101  -3.334  0.00  0.00    -0.082 Cl
ATOM     10  S   UNL     1       1.979   5.003  -5.348  0.00  0.00    +0.183 S 
ATOM     11  O   UNL     1       2.315   3.674  -5.988  0.00  0.00    -0.125 OA
ATOM     12  O   UNL     1       2.505   5.121  -3.963  0.00  0.00    -0.125 OA
ATOM     13  C   UNL     1      -1.626   5.480  -6.820  0.00  0.00    +0.047 A 
ATOM     14  N   UNL     1       2.629   6.215  -6.408  0.00  0.00    +0.095 NA
ENDROOT
TORSDOF 0
ENDMDL
MODEL 4
REMARK VINA RESULT:      -6.0      3.421      4.258
REMARK  Name = 
REMARK  0 active torsions:
REMARK  status: ('A' for Active; 'I' for Inactive)
REMARK                            x       y       z     vdW  Elec       q    Type
REMARK                         _______ _______ _______ _____ _____    ______ ____
ROOT
ATOM      1  C   UNL     1      -0.878   5.331  -6.804  0.00  0.00    +0.137 C 
ATOM      2  C   UNL     1       0.586   5.046  -6.927  0.00  0.00    +0.368 C 
ATOM      3  N   UNL     1       1.311   4.347  -5.909  0.00  0.00    -0.007 NA
ATOM      4  C   UNL     1       2.669   4.584  -5.613  0.00  0.00    +0.204 A 
ATOM      5  C   UNL     1       3.475   5.213  -6.558  0.00  0.00    +0.193 A 
ATOM      6  C   UNL     1       4.433   6.151  -6.194  0.00  0.00    +0.038 A 
ATOM      7  C   UNL     1       4.722   6.353  -4.850  0.00  0.00    +0.059 A 
ATOM      8  C   UNL     1       4.256   5.376  -3.977  0.00  0.00    +0.015 A 
ATOM      9 CL   UNL     1       5.161   7.963  -4.304  0.00  0.00    -0.082 Cl
ATOM     10  S   UNL     1       2.839   5.120  -8.197  0.00  0.00    +0.183 S 
ATOM     11  O   UNL     1       2.966   3.685  -8.660  0.00  0.00    -0.125 OA
ATOM     12  O   UNL     1       3.498   6.080  -9.119  0.00  0.00    -0.125 OA
ATOM     13  C   UNL     1       3.208   4.535  -4.335  0.00  0.00    +0.047 A 
ATOM     14  N   UNL     1       1.134   5.417  -8.042  0.00  0.00    +0.095 NA
ENDROOT
TORSDOF 0
ENDMDL
MODEL 5
REMARK VINA RESULT:      -5.8      2.225      2.440
REMARK  Name = 
REMARK  0 active torsions:
REMARK  status: ('A' for Active; 'I' for Inactive)
REMARK                            x       y       z     vdW  Elec       q    Type
REMARK                         _______ _______ _______ _____ _____    ______ ____
ROOT
ATOM      1  C   UNL     1       2.597   3.542  -8.513  0.00  0.00    +0.137 C 
ATOM      2  C   UNL     1       2.442   4.680  -7.554  0.00  0.00    +0.368 C 
ATOM      3  N   UNL     1       2.167   4.469  -6.165  0.00  0.00    -0.007 NA
ATOM      4  C   UNL     1       1.405   5.356  -5.375  0.00  0.00    +0.204 A 
ATOM      5  C   UNL     1       1.230   6.669  -5.798  0.00  0.00    +0.193 A 
ATOM      6  C   UNL     1       0.019   7.332  -5.643  0.00  0.00    +0.038 A 
ATOM      7  C   UNL     1      -0.997   6.744  -4.901  0.00  0.00    +0.059 A 
ATOM      8  C   UNL     1      -0.620   5.672  -4.101  0.00  0.00    +0.015 A 
ATOM      9 CL   UNL     1      -2.667   7.017  -5.372  0.00  0.00    -0.082 Cl
ATOM     10  S   UNL     1       2.439   7.199  -6.963  0.00  0.00    +0.183 S 
ATOM     11  O   UNL     1       3.756   7.334  -6.232  0.00  0.00    -0.125 OA
ATOM     12  O   UNL     1       2.043   8.446  -7.668  0.00  0.00    -0.125 OA
ATOM     13  C   UNL     1       0.542   4.953  -4.365  0.00  0.00    +0.047 A 
ATOM     14  N   UNL     1       2.639   5.861  -8.053  0.00  0.00    +0.095 NA
ENDROOT
TORSDOF 0
ENDMDL
MODEL 6
REMARK VINA RESULT:      -5.7      4.207      5.372
REMARK  Name = 
REMARK  0 active torsions:
REMARK  status: ('A' for Active; 'I' for Inactive)
REMARK                            x       y       z     vdW  Elec       q    Type
REMARK                         _______ _______ _______ _____ _____    ______ ____
ROOT
ATOM      1  C   UNL     1       6.179   7.859 -11.298  0.00  0.00    +0.137 C 
ATOM      2  C   UNL     1       5.059   6.916 -10.992  0.00  0.00    +0.368 C 
ATOM      3  N   UNL     1       4.387   6.178 -12.017  0.00  0.00    -0.007 NA
ATOM      4  C   UNL     1       3.024   5.819 -11.957  0.00  0.00    +0.204 A 
ATOM      5  C   UNL     1       2.374   5.808 -10.727  0.00  0.00    +0.193 A 
ATOM      6  C   UNL     1       1.065   6.252 -10.588  0.00  0.00    +0.038 A 
ATOM      7  C   UNL     1       0.318   6.559 -11.719  0.00  0.00    +0.059 A 
ATOM      8  C   UNL     1       0.831   6.099 -12.926  0.00  0.00    +0.015 A 
ATOM      9 CL   UNL     1      -0.859   7.861 -11.638  0.00  0.00    -0.082 Cl
ATOM     10  S   UNL     1       3.470   5.696  -9.354  0.00  0.00    +0.183 S 
ATOM     11  O   UNL     1       4.061   4.304  -9.349  0.00  0.00    -0.125 OA
ATOM     12  O   UNL     1       2.810   6.044  -8.069  0.00  0.00    -0.125 OA
ATOM     13  C   UNL     1       2.179   5.781 -13.058  0.00  0.00    +0.047 A 
ATOM     14  N   UNL     1       4.785   6.766  -9.733  0.00  0.00    +0.095 NA
ENDROOT
TORSDOF 0
ENDMDL
MODEL 7
REMARK VINA RESULT:      -5.6      4.447      5.313
REMARK  Name = 
REMARK  0 active torsions:
REMARK  status: ('A' for Active; 'I' for Inactive)
REMARK                            x       y       z     vdW  Elec       q    Type
REMARK                         _______ _______ _______ _____ _____    ______ ____
ROOT
ATOM      1  C   UNL     1       3.652   7.477  -2.640  0.00  0.00    +0.137 C 
ATOM      2  C   UNL     1       2.470   6.560  -2.664  0.00  0.00    +0.368 C 
ATOM      3  N   UNL     1       2.179   5.728  -3.792  0.00  0.00    -0.007 NA
ATOM      4  C   UNL     1       0.871   5.368  -4.181  0.00  0.00    +0.204 A 
ATOM      5  C   UNL     1      -0.167   5.466  -3.260  0.00  0.00    +0.193 A 
ATOM      6  C   UNL     1      -1.430   5.914  -3.627  0.00  0.00    +0.038 A 
ATOM      7  C   UNL     1      -1.726   6.113  -4.970  0.00  0.00    +0.059 A 
ATOM      8  C   UNL     1      -0.837   5.547  -5.877  0.00  0.00    +0.015 A 
ATOM      9 CL   UNL     1      -2.822   7.410  -5.421  0.00  0.00    -0.082 Cl
ATOM     10  S   UNL     1       0.377   5.486  -1.587  0.00  0.00    +0.183 S 
ATOM     11  O   UNL     1       0.892   4.103  -1.253  0.00  0.00    -0.125 OA
ATOM     12  O   UNL     1      -0.680   5.946  -0.649  0.00  0.00    -0.125 OA
ATOM     13  C   UNL     1       0.463   5.226  -5.501  0.00  0.00    +0.047 A 
ATOM     14  N   UNL     1       1.770   6.524  -1.573  0.00  0.00    +0.095 NA
ENDROOT
TORSDOF 0
ENDMDL
MODEL 8
REMARK VINA RESULT:      -5.6      4.525      5.725
REMARK  Name = 
REMARK  0 active torsions:
REMARK  status: ('A' for Active; 'I' for Inactive)
REMARK                            x       y       z     vdW  Elec       q    Type
REMARK                         _______ _______ _______ _____ _____    ______ ____
ROOT
ATOM      1  C   UNL     1      -3.679   5.752  -3.000  0.00  0.00    +0.137 C 
ATOM      2  C   UNL     1      -2.197   5.944  -2.915  0.00  0.00    +0.368 C 
ATOM      3  N   UNL     1      -1.503   6.868  -3.759  0.00  0.00    -0.007 NA
ATOM      4  C   UNL     1      -0.180   6.675  -4.209  0.00  0.00    +0.204 A 
ATOM      5  C   UNL     1       0.650   5.788  -3.529  0.00  0.00    +0.193 A 
ATOM      6  C   UNL     1       1.533   4.952  -4.201  0.00  0.00    +0.038 A 
ATOM      7  C   UNL     1       1.727   5.112  -5.568  0.00  0.00    +0.059 A 
ATOM      8  C   UNL     1       1.258   6.303  -6.111  0.00  0.00    +0.015 A 
ATOM      9 CL   UNL     1       2.046   3.696  -6.557  0.00  0.00    -0.082 Cl
ATOM     10  S   UNL     1       0.124   5.455  -1.883  0.00  0.00    +0.183 S 
ATOM     11  O   UNL     1       0.354   6.706  -1.064  0.00  0.00    -0.125 OA
ATOM     12  O   UNL     1       0.789   4.260  -1.303  0.00  0.00    -0.125 OA
ATOM     13  C   UNL     1       0.279   7.050  -5.464  0.00  0.00    +0.047 A 
ATOM     14  N   UNL     1      -1.600   5.268  -1.984  0.00  0.00    +0.095 NA
ENDROOT
TORSDOF 0
ENDMDL
MODEL 9
REMARK VINA RESULT:      -5.6      4.111      5.566
REMARK  Name = 
REMARK  0 active torsions:
REMARK  status: ('A' for Active; 'I' for Inactive)
REMARK                            x       y       z     vdW  Elec       q    Type
REMARK                         _______ _______ _______ _____ _____    ______ ____
ROOT
ATOM      1  C   UNL     1       0.095   5.934  -6.751  0.00  0.00    +0.137 C 
ATOM      2  C   UNL     1       0.673   5.515  -8.065  0.00  0.00    +0.368 C 
ATOM      3  N   UNL     1       1.837   4.687  -8.153  0.00  0.00    -0.007 NA
ATOM      4  C   UNL     1       2.780   4.772  -9.199  0.00  0.00    +0.204 A 
ATOM      5  C   UNL     1       2.417   5.375 -10.399  0.00  0.00    +0.193 A 
ATOM      6  C   UNL     1       3.295   6.191 -11.102  0.00  0.00    +0.038 A 
ATOM      7  C   UNL     1       4.622   6.281 -10.700  0.00  0.00    +0.059 A 
ATOM      8  C   UNL     1       5.054   5.303  -9.811  0.00  0.00    +0.015 A 
ATOM      9 CL   UNL     1       5.474   7.804 -10.901  0.00  0.00    -0.082 Cl
ATOM     10  S   UNL     1       0.677   5.445 -10.652  0.00  0.00    +0.183 S 
ATOM     11  O   UNL     1       0.192   4.037 -10.911  0.00  0.00    -0.125 OA
ATOM     12  O   UNL     1       0.296   6.391 -11.733  0.00  0.00    -0.125 OA
ATOM     13  C   UNL     1       4.147   4.592  -9.031  0.00  0.00    +0.047 A 
ATOM     14  N   UNL     1       0.010   5.898  -9.113  0.00  0.00    +0.095 NA
ENDROOT
TORSDOF 0
ENDMDL
