MODEL 1
REMARK VINA RESULT:      -7.3      0.000      0.000
REMARK  Name = 
REMARK  9 active torsions:
REMARK  status: ('A' for Active; 'I' for Inactive)
REMARK    1  A    between atoms: C_2  and  N_3
REMARK    2  A    between atoms: N_3  and  C_4
REMARK    3  A    between atoms: N_3  and  C_7
REMARK    4  A    between atoms: C_4  and  C_5
REMARK    5  A    between atoms: C_7  and  C_8
REMARK    6  A    between atoms: C_8  and  C_9
REMARK    7  A    between atoms: C_9  and  C_10
REMARK    8  A    between atoms: C_10  and  N_12
REMARK    9  A    between atoms: N_12  and  C_13
REMARK                            x       y       z     vdW  Elec       q    Type
REMARK                         _______ _______ _______ _____ _____    ______ ____
ROOT
ATOM      1  N   UNL     1       4.100   5.232  -7.665  0.00  0.00    -0.239 NA
ENDROOT
BRANCH   1   2
ATOM      2  C   UNL     1       4.136   5.856  -8.939  0.00  0.00    +0.068 A 
ATOM      3  C   UNL     1       5.256   5.749  -9.755  0.00  0.00    +0.033 A 
ATOM      4  C   UNL     1       5.123   5.602 -11.119  0.00  0.00    +0.083 A 
ATOM      5  C   UNL     1       6.266   5.362 -11.857  0.00  0.00    +0.031 A 
ATOM      6  C   UNL     1       7.530   5.568 -11.323  0.00  0.00    +0.059 A 
ATOM      7  C   UNL     1       7.604   5.740  -9.952  0.00  0.00    +0.012 A 
ATOM      8 CL   UNL     1       8.886   5.965 -12.373  0.00  0.00    -0.082 Cl
ATOM      9  N   UNL     1       3.917   5.708 -11.681  0.00  0.00    -0.244 NA
ATOM     10  C   UNL     1       2.944   6.322 -10.962  0.00  0.00    +0.100 A 
ATOM     11  C   UNL     1       6.487   5.623  -9.155  0.00  0.00    +0.004 A 
ATOM     12  C   UNL     1       2.948   6.191  -9.577  0.00  0.00    +0.037 A 
ENDBRANCH   1   2
BRANCH   1  13
ATOM     13  C   UNL     1       3.194   6.026  -6.612  0.00  0.00    +0.093 C 
ATOM     14  C   UNL     1       4.502   6.283  -5.607  0.00  0.00    +0.023 C 
BRANCH  13  15
ATOM     15  C   UNL     1       2.781   4.629  -5.798  0.00  0.00    +0.023 C 
BRANCH  15  16
ATOM     16  C   UNL     1       1.306   4.573  -5.775  0.00  0.00    +0.019 C 
BRANCH  16  17
ATOM     17  C   UNL     1       0.613   5.360  -4.723  0.00  0.00    +0.072 C 
BRANCH  17  18
ATOM     18  N   UNL     1      -0.831   5.363  -4.840  0.00  0.00    -0.270 NA
BRANCH  18  20
ATOM     19  C   UNL     1      -2.407   5.680  -6.331  0.00  0.00    +0.019 C 
ATOM     20  C   UNL     1      -1.259   5.768  -6.154  0.00  0.00    +0.072 C 
ENDBRANCH  18  20
BRANCH  18  21
ATOM     21  C   UNL     1      -1.333   6.322  -3.858  0.00  0.00    +0.108 C 
BRANCH  21  22
ATOM     22  C   UNL     1      -1.591   5.519  -2.595  0.00  0.00    +0.199 C 
ATOM     23  O   UNL     1      -2.727   4.737  -2.676  0.00  0.00    -0.219 OA
ENDBRANCH  21  22
ENDBRANCH  18  21
ENDBRANCH  17  18
ENDBRANCH  16  17
ENDBRANCH  15  16
ENDBRANCH  13  15
ENDBRANCH   1  13
TORSDOF 9
ENDMDL
MODEL 2
REMARK VINA RESULT:      -6.9      4.616      8.904
REMARK  Name = 
REMARK  9 active torsions:
REMARK  status: ('A' for Active; 'I' for Inactive)
REMARK    1  A    between atoms: C_2  and  N_3
REMARK    2  A    between atoms: N_3  and  C_4
REMARK    3  A    between atoms: N_3  and  C_7
REMARK    4  A    between atoms: C_4  and  C_5
REMARK    5  A    between atoms: C_7  and  C_8
REMARK    6  A    between atoms: C_8  and  C_9
REMARK    7  A    between atoms: C_9  and  C_10
REMARK    8  A    between atoms: C_10  and  N_12
REMARK    9  A    between atoms: N_12  and  C_13
REMARK                            x       y       z     vdW  Elec       q    Type
REMARK                         _______ _______ _______ _____ _____    ______ ____
ROOT
ATOM      1  N   UNL     1       1.276   5.357  -8.518  0.00  0.00    -0.239 NA
ENDROOT
BRANCH   1   2
ATOM      2  C   UNL     1       1.230   6.107  -7.314  0.00  0.00    +0.068 A 
ATOM      3  C   UNL     1       0.193   5.935  -6.405  0.00  0.00    +0.033 A 
ATOM      4  C   UNL     1       0.435   5.963  -5.048  0.00  0.00    +0.083 A 
ATOM      5  C   UNL     1      -0.609   5.647  -4.199  0.00  0.00    +0.031 A 
ATOM      6  C   UNL     1      -1.922   5.612  -4.648  0.00  0.00    +0.059 A 
ATOM      7  C   UNL     1      -2.109   5.617  -6.020  0.00  0.00    +0.012 A 
ATOM      8 CL   UNL     1      -3.252   5.928  -3.539  0.00  0.00    -0.082 Cl
ATOM      9  N   UNL     1       1.645   6.299  -4.598  0.00  0.00    -0.244 NA
ATOM     10  C   UNL     1       2.467   6.960  -5.451  0.00  0.00    +0.100 A 
ATOM     11  C   UNL     1      -1.042   5.571  -6.888  0.00  0.00    +0.004 A 
ATOM     12  C   UNL     1       2.393   6.677  -6.810  0.00  0.00    +0.037 A 
ENDBRANCH   1   2
BRANCH   1  13
ATOM     13  C   UNL     1       1.350   6.281  -9.821  0.00  0.00    +0.093 C 
ATOM     14  C   UNL     1       0.325   5.263 -10.659  0.00  0.00    +0.023 C 
BRANCH  13  15
ATOM     15  C   UNL     1       2.696   5.484 -10.404  0.00  0.00    +0.023 C 
BRANCH  15  16
ATOM     16  C   UNL     1       3.832   6.416 -10.262  0.00  0.00    +0.019 C 
BRANCH  16  17
ATOM     17  C   UNL     1       4.771   6.521 -11.408  0.00  0.00    +0.072 C 
BRANCH  17  18
ATOM     18  N   UNL     1       6.055   5.888 -11.182  0.00  0.00    -0.270 NA
BRANCH  18  20
ATOM     19  C   UNL     1       7.470   5.974  -9.509  0.00  0.00    +0.019 C 
ATOM     20  C   UNL     1       6.354   5.775  -9.777  0.00  0.00    +0.072 C 
ENDBRANCH  18  20
BRANCH  18  21
ATOM     21  C   UNL     1       7.062   6.736 -11.817  0.00  0.00    +0.108 C 
BRANCH  21  22
ATOM     22  C   UNL     1       7.510   5.981 -13.056  0.00  0.00    +0.199 C 
ATOM     23  O   UNL     1       7.577   4.616 -12.861  0.00  0.00    -0.219 OA
ENDBRANCH  21  22
ENDBRANCH  18  21
ENDBRANCH  17  18
ENDBRANCH  16  17
ENDBRANCH  15  16
ENDBRANCH  13  15
ENDBRANCH   1  13
TORSDOF 9
ENDMDL
MODEL 3
REMARK VINA RESULT:      -6.8      2.163      3.222
REMARK  Name = 
REMARK  9 active torsions:
REMARK  status: ('A' for Active; 'I' for Inactive)
REMARK    1  A    between atoms: C_2  and  N_3
REMARK    2  A    between atoms: N_3  and  C_4
REMARK    3  A    between atoms: N_3  and  C_7
REMARK    4  A    between atoms: C_4  and  C_5
REMARK    5  A    between atoms: C_7  and  C_8
REMARK    6  A    between atoms: C_8  and  C_9
REMARK    7  A    between atoms: C_9  and  C_10
REMARK    8  A    between atoms: C_10  and  N_12
REMARK    9  A    between atoms: N_12  and  C_13
REMARK                            x       y       z     vdW  Elec       q    Type
REMARK                         _______ _______ _______ _____ _____    ______ ____
ROOT
ATOM      1  N   UNL     1       3.558   4.955  -6.933  0.00  0.00    -0.239 NA
ENDROOT
BRANCH   1   2
ATOM      2  C   UNL     1       4.038   4.964  -8.269  0.00  0.00    +0.068 A 
ATOM      3  C   UNL     1       3.171   5.158  -9.338  0.00  0.00    +0.033 A 
ATOM      4  C   UNL     1       3.552   5.914 -10.425  0.00  0.00    +0.083 A 
ATOM      5  C   UNL     1       2.600   6.185 -11.389  0.00  0.00    +0.031 A 
ATOM      6  C   UNL     1       1.404   5.482 -11.445  0.00  0.00    +0.059 A 
ATOM      7  C   UNL     1       1.085   4.714 -10.338  0.00  0.00    +0.012 A 
ATOM      8 CL   UNL     1       0.556   5.286 -12.974  0.00  0.00    -0.082 Cl
ATOM      9  N   UNL     1       4.811   6.346 -10.523  0.00  0.00    -0.244 NA
ATOM     10  C   UNL     1       5.747   5.720  -9.765  0.00  0.00    +0.100 A 
ATOM     11  C   UNL     1       1.874   4.721  -9.209  0.00  0.00    +0.004 A 
ATOM     12  C   UNL     1       5.380   5.225  -8.519  0.00  0.00    +0.037 A 
ENDBRANCH   1   2
BRANCH   1  13
ATOM     13  C   UNL     1       4.319   6.001  -5.994  0.00  0.00    +0.093 C 
ATOM     14  C   UNL     1       3.865   5.171  -4.619  0.00  0.00    +0.023 C 
BRANCH  13  15
ATOM     15  C   UNL     1       2.984   6.998  -5.892  0.00  0.00    +0.023 C 
BRANCH  15  16
ATOM     16  C   UNL     1       1.954   6.248  -5.147  0.00  0.00    +0.019 C 
BRANCH  16  17
ATOM     17  C   UNL     1       0.536   6.616  -5.392  0.00  0.00    +0.072 C 
BRANCH  17  18
ATOM     18  N   UNL     1      -0.416   5.588  -5.021  0.00  0.00    -0.270 NA
BRANCH  18  20
ATOM     19  C   UNL     1      -1.120   5.350  -7.085  0.00  0.00    +0.019 C 
ATOM     20  C   UNL     1      -1.482   5.477  -5.984  0.00  0.00    +0.072 C 
ENDBRANCH  18  20
BRANCH  18  21
ATOM     21  C   UNL     1      -0.978   5.978  -3.730  0.00  0.00    +0.108 C 
BRANCH  21  22
ATOM     22  C   UNL     1      -2.404   5.456  -3.730  0.00  0.00    +0.199 C 
ATOM     23  O   UNL     1      -2.713   4.731  -2.595  0.00  0.00    -0.219 OA
ENDBRANCH  21  22
ENDBRANCH  18  21
ENDBRANCH  17  18
ENDBRANCH  16  17
ENDBRANCH  15  16
ENDBRANCH  13  15
ENDBRANCH   1  13
TORSDOF 9
ENDMDL
MODEL 4
REMARK VINA RESULT:      -6.8      2.336      3.516
REMARK  Name = 
REMARK  9 active torsions:
REMARK  status: ('A' for Active; 'I' for Inactive)
REMARK    1  A    between atoms: C_2  and  N_3
REMARK    2  A    between atoms: N_3  and  C_4
REMARK    3  A    between atoms: N_3  and  C_7
REMARK    4  A    between atoms: C_4  and  C_5
REMARK    5  A    between atoms: C_7  and  C_8
REMARK    6  A    between atoms: C_8  and  C_9
REMARK    7  A    between atoms: C_9  and  C_10
REMARK    8  A    between atoms: C_10  and  N_12
REMARK    9  A    between atoms: N_12  and  C_13
REMARK                            x       y       z     vdW  Elec       q    Type
REMARK                         _______ _______ _______ _____ _____    ______ ____
ROOT
ATOM      1  N   UNL     1       3.497   6.377  -9.906  0.00  0.00    -0.239 NA
ENDROOT
BRANCH   1   2
ATOM      2  C   UNL     1       4.058   6.324 -11.208  0.00  0.00    +0.068 A 
ATOM      3  C   UNL     1       5.423   6.135 -11.391  0.00  0.00    +0.033 A 
ATOM      4  C   UNL     1       5.894   5.344 -12.416  0.00  0.00    +0.083 A 
ATOM      5  C   UNL     1       7.250   5.083 -12.461  0.00  0.00    +0.031 A 
ATOM      6  C   UNL     1       8.155   5.822 -11.712  0.00  0.00    +0.059 A 
ATOM      7  C   UNL     1       7.626   6.624 -10.715  0.00  0.00    +0.012 A 
ATOM      8 CL   UNL     1       9.818   6.012 -12.258  0.00  0.00    -0.082 Cl
ATOM      9  N   UNL     1       5.044   4.870 -13.331  0.00  0.00    -0.244 NA
ATOM     10  C   UNL     1       3.838   5.482 -13.438  0.00  0.00    +0.100 A 
ATOM     11  C   UNL     1       6.280   6.615 -10.428  0.00  0.00    +0.004 A 
ATOM     12  C   UNL     1       3.250   6.015 -12.296  0.00  0.00    +0.037 A 
ENDBRANCH   1   2
BRANCH   1  13
ATOM     13  C   UNL     1       2.519   5.149  -9.602  0.00  0.00    +0.093 C 
ATOM     14  C   UNL     1       1.469   6.132  -8.754  0.00  0.00    +0.023 C 
BRANCH  13  15
ATOM     15  C   UNL     1       3.340   4.740  -8.207  0.00  0.00    +0.023 C 
BRANCH  15  16
ATOM     16  C   UNL     1       3.693   6.008  -7.538  0.00  0.00    +0.019 C 
BRANCH  16  17
ATOM     17  C   UNL     1       4.338   5.915  -6.204  0.00  0.00    +0.072 C 
BRANCH  17  18
ATOM     18  N   UNL     1       3.626   6.612  -5.151  0.00  0.00    -0.270 NA
BRANCH  18  20
ATOM     19  C   UNL     1       5.277   7.699  -4.200  0.00  0.00    +0.019 C 
ATOM     20  C   UNL     1       4.475   6.873  -4.017  0.00  0.00    +0.072 C 
ENDBRANCH  18  20
BRANCH  18  21
ATOM     21  C   UNL     1       2.528   5.741  -4.736  0.00  0.00    +0.108 C 
BRANCH  21  22
ATOM     22  C   UNL     1       1.336   6.658  -4.527  0.00  0.00    +0.199 C 
ATOM     23  O   UNL     1       0.339   6.467  -5.464  0.00  0.00    -0.219 OA
ENDBRANCH  21  22
ENDBRANCH  18  21
ENDBRANCH  17  18
ENDBRANCH  16  17
ENDBRANCH  15  16
ENDBRANCH  13  15
ENDBRANCH   1  13
TORSDOF 9
ENDMDL
MODEL 5
REMARK VINA RESULT:      -6.6      1.779      2.747
REMARK  Name = 
REMARK  9 active torsions:
REMARK  status: ('A' for Active; 'I' for Inactive)
REMARK    1  A    between atoms: C_2  and  N_3
REMARK    2  A    between atoms: N_3  and  C_4
REMARK    3  A    between atoms: N_3  and  C_7
REMARK    4  A    between atoms: C_4  and  C_5
REMARK    5  A    between atoms: C_7  and  C_8
REMARK    6  A    between atoms: C_8  and  C_9
REMARK    7  A    between atoms: C_9  and  C_10
REMARK    8  A    between atoms: C_10  and  N_12
REMARK    9  A    between atoms: N_12  and  C_13
REMARK                            x       y       z     vdW  Elec       q    Type
REMARK                         _______ _______ _______ _____ _____    ______ ____
ROOT
ATOM      1  N   UNL     1       1.064   4.965  -7.723  0.00  0.00    -0.239 NA
ENDROOT
BRANCH   1   2
ATOM      2  C   UNL     1       1.658   5.754  -8.743  0.00  0.00    +0.068 A 
ATOM      3  C   UNL     1       3.017   5.662  -9.017  0.00  0.00    +0.033 A 
ATOM      4  C   UNL     1       3.479   5.720 -10.314  0.00  0.00    +0.083 A 
ATOM      5  C   UNL     1       4.823   5.484 -10.533  0.00  0.00    +0.031 A 
ATOM      6  C   UNL     1       5.740   5.498  -9.491  0.00  0.00    +0.059 A 
ATOM      7  C   UNL     1       5.221   5.469  -8.208  0.00  0.00    +0.012 A 
ATOM      8 CL   UNL     1       7.423   5.915  -9.792  0.00  0.00    -0.082 Cl
ATOM      9  N   UNL     1       2.634   6.011 -11.306  0.00  0.00    -0.244 NA
ATOM     10  C   UNL     1       1.460   6.604 -10.972  0.00  0.00    +0.100 A 
ATOM     11  C   UNL     1       3.868   5.344  -7.985  0.00  0.00    +0.004 A 
ATOM     12  C   UNL     1       0.866   6.281  -9.756  0.00  0.00    +0.037 A 
ENDBRANCH   1   2
BRANCH   1  13
ATOM     13  C   UNL     1       0.531   5.838  -6.495  0.00  0.00    +0.093 C 
ATOM     14  C   UNL     1       1.182   4.770  -5.389  0.00  0.00    +0.023 C 
BRANCH  13  15
ATOM     15  C   UNL     1      -0.938   5.044  -6.469  0.00  0.00    +0.023 C 
BRANCH  15  16
ATOM     16  C   UNL     1      -1.961   6.060  -6.153  0.00  0.00    +0.019 C 
BRANCH  16  17
ATOM     17  C   UNL     1      -1.904   6.685  -4.806  0.00  0.00    +0.072 C 
BRANCH  17  18
ATOM     18  N   UNL     1      -1.795   5.736  -3.717  0.00  0.00    -0.270 NA
BRANCH  18  20
ATOM     19  C   UNL     1      -3.657   6.352  -2.736  0.00  0.00    +0.019 C 
ATOM     20  C   UNL     1      -3.082   5.426  -3.148  0.00  0.00    +0.072 C 
ENDBRANCH  18  20
BRANCH  18  21
ATOM     21  C   UNL     1      -0.959   6.360  -2.693  0.00  0.00    +0.108 C 
BRANCH  21  22
ATOM     22  C   UNL     1      -0.233   5.219  -2.005  0.00  0.00    +0.199 C 
ATOM     23  O   UNL     1       0.590   5.643  -0.980  0.00  0.00    -0.219 OA
ENDBRANCH  21  22
ENDBRANCH  18  21
ENDBRANCH  17  18
ENDBRANCH  16  17
ENDBRANCH  15  16
ENDBRANCH  13  15
ENDBRANCH   1  13
TORSDOF 9
ENDMDL
MODEL 6
REMARK VINA RESULT:      -6.4      4.029      5.903
REMARK  Name = 
REMARK  9 active torsions:
REMARK  status: ('A' for Active; 'I' for Inactive)
REMARK    1  A    between atoms: C_2  and  N_3
REMARK    2  A    between atoms: N_3  and  C_4
REMARK    3  A    between atoms: N_3  and  C_7
REMARK    4  A    between atoms: C_4  and  C_5
REMARK    5  A    between atoms: C_7  and  C_8
REMARK    6  A    between atoms: C_8  and  C_9
REMARK    7  A    between atoms: C_9  and  C_10
REMARK    8  A    between atoms: C_10  and  N_12
REMARK    9  A    between atoms: N_12  and  C_13
REMARK                            x       y       z     vdW  Elec       q    Type
REMARK                         _______ _______ _______ _____ _____    ______ ____
ROOT
ATOM      1  N   UNL     1      -0.760   5.557  -4.708  0.00  0.00    -0.239 NA
ENDROOT
BRANCH   1   2
ATOM      2  C   UNL     1       0.247   5.820  -5.673  0.00  0.00    +0.068 A 
ATOM      3  C   UNL     1       1.552   6.097  -5.286  0.00  0.00    +0.033 A 
ATOM      4  C   UNL     1       2.620   5.607  -6.007  0.00  0.00    +0.083 A 
ATOM      5  C   UNL     1       3.888   5.800  -5.494  0.00  0.00    +0.031 A 
ATOM      6  C   UNL     1       4.127   6.709  -4.473  0.00  0.00    +0.059 A 
ATOM      7  C   UNL     1       3.017   7.193  -3.801  0.00  0.00    +0.012 A 
ATOM      8 CL   UNL     1       5.703   7.476  -4.313  0.00  0.00    -0.082 Cl
ATOM      9  N   UNL     1       2.404   4.983  -7.167  0.00  0.00    -0.244 NA
ATOM     10  C   UNL     1       1.207   5.184  -7.771  0.00  0.00    +0.100 A 
ATOM     11  C   UNL     1       1.752   6.725  -4.078  0.00  0.00    +0.004 A 
ATOM     12  C   UNL     1       0.079   5.382  -6.981  0.00  0.00    +0.037 A 
ENDBRANCH   1   2
BRANCH   1  13
ATOM     13  C   UNL     1      -2.227   5.932  -5.224  0.00  0.00    +0.093 C 
ATOM     14  C   UNL     1      -2.009   7.539  -4.827  0.00  0.00    +0.023 C 
BRANCH  13  15
ATOM     15  C   UNL     1      -2.916   5.609  -3.739  0.00  0.00    +0.023 C 
BRANCH  15  16
ATOM     16  C   UNL     1      -2.580   6.746  -2.860  0.00  0.00    +0.019 C 
BRANCH  16  17
ATOM     17  C   UNL     1      -2.620   6.508  -1.395  0.00  0.00    +0.072 C 
BRANCH  17  18
ATOM     18  N   UNL     1      -1.381   6.817  -0.710  0.00  0.00    -0.270 NA
BRANCH  18  20
ATOM     19  C   UNL     1       0.688   6.108  -0.558  0.00  0.00    +0.019 C 
ATOM     20  C   UNL     1      -0.363   5.835  -0.981  0.00  0.00    +0.072 C 
ENDBRANCH  18  20
BRANCH  18  21
ATOM     21  C   UNL     1      -1.677   6.814   0.722  0.00  0.00    +0.108 C 
BRANCH  21  22
ATOM     22  C   UNL     1      -1.926   8.266   1.091  0.00  0.00    +0.199 C 
ATOM     23  O   UNL     1      -1.031   9.134   0.497  0.00  0.00    -0.219 OA
ENDBRANCH  21  22
ENDBRANCH  18  21
ENDBRANCH  17  18
ENDBRANCH  16  17
ENDBRANCH  15  16
ENDBRANCH  13  15
ENDBRANCH   1  13
TORSDOF 9
ENDMDL
MODEL 7
REMARK VINA RESULT:      -6.4      3.307      5.007
REMARK  Name = 
REMARK  9 active torsions:
REMARK  status: ('A' for Active; 'I' for Inactive)
REMARK    1  A    between atoms: C_2  and  N_3
REMARK    2  A    between atoms: N_3  and  C_4
REMARK    3  A    between atoms: N_3  and  C_7
REMARK    4  A    between atoms: C_4  and  C_5
REMARK    5  A    between atoms: C_7  and  C_8
REMARK    6  A    between atoms: C_8  and  C_9
REMARK    7  A    between atoms: C_9  and  C_10
REMARK    8  A    between atoms: C_10  and  N_12
REMARK    9  A    between atoms: N_12  and  C_13
REMARK                            x       y       z     vdW  Elec       q    Type
REMARK                         _______ _______ _______ _____ _____    ______ ____
ROOT
ATOM      1  N   UNL     1       0.730   5.944  -7.376  0.00  0.00    -0.239 NA
ENDROOT
BRANCH   1   2
ATOM      2  C   UNL     1       1.468   5.256  -8.374  0.00  0.00    +0.068 A 
ATOM      3  C   UNL     1       1.452   5.683  -9.696  0.00  0.00    +0.033 A 
ATOM      4  C   UNL     1       2.595   5.636 -10.465  0.00  0.00    +0.083 A 
ATOM      5  C   UNL     1       2.549   6.203 -11.724  0.00  0.00    +0.031 A 
ATOM      6  C   UNL     1       1.343   6.525 -12.331  0.00  0.00    +0.059 A 
ATOM      7  C   UNL     1       0.222   6.527 -11.519  0.00  0.00    +0.012 A 
ATOM      8 CL   UNL     1       1.207   6.548 -14.086  0.00  0.00    -0.082 Cl
ATOM      9  N   UNL     1       3.691   5.045  -9.986  0.00  0.00    -0.244 NA
ATOM     10  C   UNL     1       3.535   4.192  -8.942  0.00  0.00    +0.100 A 
ATOM     11  C   UNL     1       0.319   6.306 -10.164  0.00  0.00    +0.004 A 
ATOM     12  C   UNL     1       2.539   4.450  -8.007  0.00  0.00    +0.037 A 
ENDBRANCH   1   2
BRANCH   1  13
ATOM     13  C   UNL     1       0.170   4.971  -6.237  0.00  0.00    +0.093 C 
ATOM     14  C   UNL     1      -1.410   5.352  -6.622  0.00  0.00    +0.023 C 
BRANCH  13  15
ATOM     15  C   UNL     1       0.227   6.170  -5.077  0.00  0.00    +0.023 C 
BRANCH  15  16
ATOM     16  C   UNL     1       1.097   5.669  -3.995  0.00  0.00    +0.019 C 
BRANCH  16  17
ATOM     17  C   UNL     1       2.506   5.361  -4.345  0.00  0.00    +0.072 C 
BRANCH  17  18
ATOM     18  N   UNL     1       3.485   6.096  -3.568  0.00  0.00    -0.270 NA
BRANCH  18  20
ATOM     19  C   UNL     1       4.909   7.587  -4.315  0.00  0.00    +0.019 C 
ATOM     20  C   UNL     1       4.633   6.456  -4.361  0.00  0.00    +0.072 C 
ENDBRANCH  18  20
BRANCH  18  21
ATOM     21  C   UNL     1       3.911   5.215  -2.482  0.00  0.00    +0.108 C 
BRANCH  21  22
ATOM     22  C   UNL     1       3.656   5.991  -1.202  0.00  0.00    +0.199 C 
ATOM     23  O   UNL     1       4.400   5.529  -0.134  0.00  0.00    -0.219 OA
ENDBRANCH  21  22
ENDBRANCH  18  21
ENDBRANCH  17  18
ENDBRANCH  16  17
ENDBRANCH  15  16
ENDBRANCH  13  15
ENDBRANCH   1  13
TORSDOF 9
ENDMDL
MODEL 8
REMARK VINA RESULT:      -6.4      4.451      7.402
REMARK  Name = 
REMARK  9 active torsions:
REMARK  status: ('A' for Active; 'I' for Inactive)
REMARK    1  A    between atoms: C_2  and  N_3
REMARK    2  A    between atoms: N_3  and  C_4
REMARK    3  A    between atoms: N_3  and  C_7
REMARK    4  A    between atoms: C_4  and  C_5
REMARK    5  A    between atoms: C_7  and  C_8
REMARK    6  A    between atoms: C_8  and  C_9
REMARK    7  A    between atoms: C_9  and  C_10
REMARK    8  A    between atoms: C_10  and  N_12
REMARK    9  A    between atoms: N_12  and  C_13
REMARK                            x       y       z     vdW  Elec       q    Type
REMARK                         _______ _______ _______ _____ _____    ______ ____
ROOT
ATOM      1  N   UNL     1       3.409   6.280  -8.531  0.00  0.00    -0.239 NA
ENDROOT
BRANCH   1   2
ATOM      2  C   UNL     1       2.074   6.269  -9.013  0.00  0.00    +0.068 A 
ATOM      3  C   UNL     1       1.795   5.957 -10.338  0.00  0.00    +0.033 A 
ATOM      4  C   UNL     1       0.689   5.202 -10.666  0.00  0.00    +0.083 A 
ATOM      5  C   UNL     1       0.543   4.809 -11.983  0.00  0.00    +0.031 A 
ATOM      6  C   UNL     1       1.284   5.394 -13.000  0.00  0.00    +0.059 A 
ATOM      7  C   UNL     1       2.366   6.167 -12.614  0.00  0.00    +0.012 A 
ATOM      8 CL   UNL     1       0.651   5.455 -14.641  0.00  0.00    -0.082 Cl
ATOM      9  N   UNL     1      -0.202   4.887  -9.723  0.00  0.00    -0.244 NA
ATOM     10  C   UNL     1      -0.192   5.625  -8.584  0.00  0.00    +0.100 A 
ATOM     11  C   UNL     1       2.734   6.273 -11.291  0.00  0.00    +0.004 A 
ATOM     12  C   UNL     1       1.019   6.127  -8.119  0.00  0.00    +0.037 A 
ENDBRANCH   1   2
BRANCH   1  13
ATOM     13  C   UNL     1       3.758   4.998  -7.642  0.00  0.00    +0.093 C 
ATOM     14  C   UNL     1       4.654   5.920  -6.577  0.00  0.00    +0.023 C 
BRANCH  13  15
ATOM     15  C   UNL     1       5.113   4.641  -8.549  0.00  0.00    +0.023 C 
BRANCH  15  16
ATOM     16  C   UNL     1       5.695   5.932  -8.964  0.00  0.00    +0.019 C 
BRANCH  16  17
ATOM     17  C   UNL     1       7.143   5.950  -9.293  0.00  0.00    +0.072 C 
BRANCH  17  18
ATOM     18  N   UNL     1       7.437   6.365 -10.650  0.00  0.00    -0.270 NA
BRANCH  18  20
ATOM     19  C   UNL     1       6.447   8.177 -11.388  0.00  0.00    +0.019 C 
ATOM     20  C   UNL     1       6.313   7.027 -11.261  0.00  0.00    +0.072 C 
ENDBRANCH  18  20
BRANCH  18  21
ATOM     21  C   UNL     1       7.747   5.153 -11.406  0.00  0.00    +0.108 C 
BRANCH  21  22
ATOM     22  C   UNL     1       8.113   5.624 -12.802  0.00  0.00    +0.199 C 
ATOM     23  O   UNL     1       7.426   4.952 -13.794  0.00  0.00    -0.219 OA
ENDBRANCH  21  22
ENDBRANCH  18  21
ENDBRANCH  17  18
ENDBRANCH  16  17
ENDBRANCH  15  16
ENDBRANCH  13  15
ENDBRANCH   1  13
TORSDOF 9
ENDMDL
MODEL 9
REMARK VINA RESULT:      -6.3      2.761      4.439
REMARK  Name = 
REMARK  9 active torsions:
REMARK  status: ('A' for Active; 'I' for Inactive)
REMARK    1  A    between atoms: C_2  and  N_3
REMARK    2  A    between atoms: N_3  and  C_4
REMARK    3  A    between atoms: N_3  and  C_7
REMARK    4  A    between atoms: C_4  and  C_5
REMARK    5  A    between atoms: C_7  and  C_8
REMARK    6  A    between atoms: C_8  and  C_9
REMARK    7  A    between atoms: C_9  and  C_10
REMARK    8  A    between atoms: C_10  and  N_12
REMARK    9  A    between atoms: N_12  and  C_13
REMARK                            x       y       z     vdW  Elec       q    Type
REMARK                         _______ _______ _______ _____ _____    ______ ____
ROOT
ATOM      1  N   UNL     1       0.456   6.338  -6.585  0.00  0.00    -0.239 NA
ENDROOT
BRANCH   1   2
ATOM      2  C   UNL     1       0.957   6.071  -7.886  0.00  0.00    +0.068 A 
ATOM      3  C   UNL     1       2.296   5.760  -8.086  0.00  0.00    +0.033 A 
ATOM      4  C   UNL     1       2.668   4.808  -9.010  0.00  0.00    +0.083 A 
ATOM      5  C   UNL     1       4.000   4.444  -9.064  0.00  0.00    +0.031 A 
ATOM      6  C   UNL     1       4.984   5.208  -8.453  0.00  0.00    +0.059 A 
ATOM      7  C   UNL     1       4.555   6.172  -7.556  0.00  0.00    +0.012 A 
ATOM      8 CL   UNL     1       6.631   5.201  -9.074  0.00  0.00    -0.082 Cl
ATOM      9  N   UNL     1       1.749   4.280  -9.823  0.00  0.00    -0.244 NA
ATOM     10  C   UNL     1       0.584   4.959  -9.973  0.00  0.00    +0.100 A 
ATOM     11  C   UNL     1       3.224   6.300  -7.226  0.00  0.00    +0.004 A 
ATOM     12  C   UNL     1       0.084   5.681  -8.895  0.00  0.00    +0.037 A 
ENDBRANCH   1   2
BRANCH   1  13
ATOM     13  C   UNL     1      -0.036   5.019  -5.827  0.00  0.00    +0.093 C 
ATOM     14  C   UNL     1      -1.621   5.543  -5.844  0.00  0.00    +0.023 C 
BRANCH  13  15
ATOM     15  C   UNL     1       0.221   5.694  -4.323  0.00  0.00    +0.023 C 
BRANCH  15  16
ATOM     16  C   UNL     1       1.674   5.620  -4.070  0.00  0.00    +0.019 C 
BRANCH  16  17
ATOM     17  C   UNL     1       2.347   6.862  -3.610  0.00  0.00    +0.072 C 
BRANCH  17  18
ATOM     18  N   UNL     1       3.471   6.634  -2.725  0.00  0.00    -0.270 NA
BRANCH  18  20
ATOM     19  C   UNL     1       5.280   6.905  -3.935  0.00  0.00    +0.019 C 
ATOM     20  C   UNL     1       4.622   7.408  -3.115  0.00  0.00    +0.072 C 
ENDBRANCH  18  20
BRANCH  18  21
ATOM     21  C   UNL     1       3.799   5.212  -2.815  0.00  0.00    +0.108 C 
BRANCH  21  22
ATOM     22  C   UNL     1       3.857   4.714  -1.383  0.00  0.00    +0.199 C 
ATOM     23  O   UNL     1       2.630   4.750  -0.750  0.00  0.00    -0.219 OA
ENDBRANCH  21  22
ENDBRANCH  18  21
ENDBRANCH  17  18
ENDBRANCH  16  17
ENDBRANCH  15  16
ENDBRANCH  13  15
ENDBRANCH   1  13
TORSDOF 9
ENDMDL
