MODEL 1
REMARK VINA RESULT:      -6.5      0.000      0.000
REMARK  Name = 
REMARK  11 active torsions:
REMARK  status: ('A' for Active; 'I' for Inactive)
REMARK    1  A    between atoms: N_4  and  C_5
REMARK    2  A    between atoms: N_4  and  C_10
REMARK    3  A    between atoms: C_5  and  C_6
REMARK    4  A    between atoms: C_6  and  C_8
REMARK    5  A    between atoms: C_13  and  C_14
REMARK    6  A    between atoms: N_16  and  C_17
REMARK    7  A    between atoms: C_17  and  C_18
REMARK    8  A    between atoms: C_22  and  C_23
REMARK    9  A    between atoms: N_25  and  C_26
REMARK   10  A    between atoms: C_26  and  C_27
REMARK   11  A    between atoms: C_27  and  C_29
REMARK                            x       y       z     vdW  Elec       q    Type
REMARK                         _______ _______ _______ _____ _____    ______ ____
ROOT
ATOM      1  C   UNL     1       2.147   6.161 -12.424  0.00  0.00    +0.065 A 
ATOM      2  C   UNL     1       1.657   5.853 -11.169  0.00  0.00    +0.049 A 
ATOM      3  I   UNL     1      -0.411   5.893 -10.854  0.00  0.00    -0.041 I 
ATOM      4  C   UNL     1       2.462   5.367 -10.148  0.00  0.00    +0.067 A 
ATOM      5  C   UNL     1       3.835   5.542 -10.257  0.00  0.00    +0.040 A 
ATOM      6  I   UNL     1       5.042   5.327  -8.547  0.00  0.00    -0.042 I 
ATOM      7  C   UNL     1       4.352   5.905 -11.481  0.00  0.00    +0.067 A 
ATOM      8  C   UNL     1       3.522   6.013 -12.571  0.00  0.00    +0.049 A 
ATOM      9  I   UNL     1       4.391   5.867 -14.482  0.00  0.00    -0.041 I 
ENDROOT
BRANCH   1  12
ATOM     10  C   UNL     1       1.024   4.564 -14.265  0.00  0.00    +0.095 C 
ATOM     11  C   UNL     1       0.967   4.602 -13.975  0.00  0.00    +0.230 C 
ATOM     12  N   UNL     1       1.389   5.868 -13.581  0.00  0.00    -0.255 N 
ATOM     13  O   UNL     1       1.295   3.451 -13.838  0.00  0.00    -0.275 OA
BRANCH  12  14
ATOM     14  C   UNL     1       1.482   6.784 -14.730  0.00  0.00    +0.134 C 
BRANCH  14  15
ATOM     15  C   UNL     1       0.156   7.761 -14.585  0.00  0.00    +0.205 C 
ATOM     16  O   UNL     1       0.954   8.972 -15.045  0.00  0.00    -0.218 OA
BRANCH  15  17
ATOM     17  C   UNL     1      -0.343   7.450 -16.129  0.00  0.00    +0.217 C 
ATOM     18  O   UNL     1       0.846   7.025 -16.700  0.00  0.00    -0.218 OA
ENDBRANCH  15  17
ENDBRANCH  14  15
ENDBRANCH  12  14
ENDBRANCH   1  12
BRANCH   4  19
ATOM     19  C   UNL     1       1.900   4.691  -8.970  0.00  0.00    +0.266 C 
ATOM     20  N   UNL     1       1.433   5.445  -7.863  0.00  0.00    -0.199 NA
ATOM     21  O   UNL     1       2.321   3.514  -8.759  0.00  0.00    -0.268 OA
BRANCH  20  22
ATOM     22  C   UNL     1       1.538   4.841  -6.539  0.00  0.00    +0.151 C 
BRANCH  22  23
ATOM     23  C   UNL     1       0.356   5.594  -5.662  0.00  0.00    +0.206 C 
ATOM     24  O   UNL     1       0.748   6.969  -6.187  0.00  0.00    -0.218 OA
BRANCH  23  25
ATOM     25  C   UNL     1      -0.785   5.325  -6.821  0.00  0.00    +0.217 C 
ATOM     26  O   UNL     1      -1.997   5.331  -6.281  0.00  0.00    -0.218 OA
ENDBRANCH  23  25
ENDBRANCH  22  23
ENDBRANCH  20  22
ENDBRANCH   4  19
BRANCH   7  27
ATOM     27  C   UNL     1       5.745   6.364 -11.552  0.00  0.00    +0.266 C 
ATOM     28  N   UNL     1       6.834   5.490 -11.786  0.00  0.00    -0.199 NA
ATOM     29  O   UNL     1       6.003   7.424 -10.906  0.00  0.00    -0.268 OA
BRANCH  28  30
ATOM     30  C   UNL     1       7.992   5.392 -10.911  0.00  0.00    +0.151 C 
BRANCH  30  31
ATOM     31  C   UNL     1       9.273   5.751 -11.609  0.00  0.00    +0.205 C 
ATOM     32  O   UNL     1       9.066   6.136 -12.937  0.00  0.00    -0.218 OA
ENDBRANCH  30  31
ENDBRANCH  28  30
ENDBRANCH   7  27
TORSDOF 11
ENDMDL
MODEL 2
REMARK VINA RESULT:      -6.4      4.543     10.621
REMARK  Name = 
REMARK  11 active torsions:
REMARK  status: ('A' for Active; 'I' for Inactive)
REMARK    1  A    between atoms: N_4  and  C_5
REMARK    2  A    between atoms: N_4  and  C_10
REMARK    3  A    between atoms: C_5  and  C_6
REMARK    4  A    between atoms: C_6  and  C_8
REMARK    5  A    between atoms: C_13  and  C_14
REMARK    6  A    between atoms: N_16  and  C_17
REMARK    7  A    between atoms: C_17  and  C_18
REMARK    8  A    between atoms: C_22  and  C_23
REMARK    9  A    between atoms: N_25  and  C_26
REMARK   10  A    between atoms: C_26  and  C_27
REMARK   11  A    between atoms: C_27  and  C_29
REMARK                            x       y       z     vdW  Elec       q    Type
REMARK                         _______ _______ _______ _____ _____    ______ ____
ROOT
ATOM      1  C   UNL     1       2.160   6.298  -3.652  0.00  0.00    +0.065 A 
ATOM      2  C   UNL     1       2.143   6.317  -5.033  0.00  0.00    +0.049 A 
ATOM      3  I   UNL     1       3.887   6.847  -6.060  0.00  0.00    -0.041 I 
ATOM      4  C   UNL     1       1.067   5.851  -5.776  0.00  0.00    +0.067 A 
ATOM      5  C   UNL     1      -0.157   5.709  -5.137  0.00  0.00    +0.040 A 
ATOM      6  I   UNL     1      -1.910   5.535  -6.289  0.00  0.00    -0.042 I 
ATOM      7  C   UNL     1      -0.183   5.743  -3.760  0.00  0.00    +0.067 A 
ATOM      8  C   UNL     1       0.992   5.839  -3.055  0.00  0.00    +0.049 A 
ATOM      9  I   UNL     1       0.988   5.192  -1.052  0.00  0.00    -0.041 I 
ENDROOT
BRANCH   1  12
ATOM     10  C   UNL     1       4.291   4.794  -3.019  0.00  0.00    +0.095 C 
ATOM     11  C   UNL     1       4.221   4.942  -3.267  0.00  0.00    +0.230 C 
ATOM     12  N   UNL     1       3.350   5.982  -2.956  0.00  0.00    -0.255 N 
ATOM     13  O   UNL     1       4.196   3.868  -3.813  0.00  0.00    -0.275 OA
BRANCH  12  14
ATOM     14  C   UNL     1       3.451   6.358  -1.535  0.00  0.00    +0.134 C 
BRANCH  14  15
ATOM     15  C   UNL     1       4.522   7.618  -1.519  0.00  0.00    +0.205 C 
ATOM     16  O   UNL     1       3.416   8.602  -1.169  0.00  0.00    -0.218 OA
BRANCH  15  17
ATOM     17  C   UNL     1       4.888   7.393   0.076  0.00  0.00    +0.217 C 
ATOM     18  O   UNL     1       4.448   6.092   0.257  0.00  0.00    -0.218 OA
ENDBRANCH  15  17
ENDBRANCH  14  15
ENDBRANCH  12  14
ENDBRANCH   1  12
BRANCH   4  19
ATOM     19  C   UNL     1       1.192   5.518  -7.201  0.00  0.00    +0.266 C 
ATOM     20  N   UNL     1       0.664   6.385  -8.191  0.00  0.00    -0.199 NA
ATOM     21  O   UNL     1       1.280   4.282  -7.472  0.00  0.00    -0.268 OA
BRANCH  20  22
ATOM     22  C   UNL     1       0.185   5.785  -9.433  0.00  0.00    +0.151 C 
BRANCH  22  23
ATOM     23  C   UNL     1       1.060   6.548 -10.609  0.00  0.00    +0.206 C 
ATOM     24  O   UNL     1       2.216   5.564 -10.481  0.00  0.00    -0.218 OA
BRANCH  23  25
ATOM     25  C   UNL     1       0.308   5.717 -11.818  0.00  0.00    +0.217 C 
ATOM     26  O   UNL     1      -0.311   4.651 -11.327  0.00  0.00    -0.218 OA
ENDBRANCH  23  25
ENDBRANCH  22  23
ENDBRANCH  20  22
ENDBRANCH   4  19
BRANCH   7  27
ATOM     27  C   UNL     1      -1.478   5.878  -3.081  0.00  0.00    +0.266 C 
ATOM     28  N   UNL     1      -1.923   7.091  -2.502  0.00  0.00    -0.199 NA
ATOM     29  O   UNL     1      -1.943   4.811  -2.577  0.00  0.00    -0.268 OA
BRANCH  28  30
ATOM     30  C   UNL     1      -2.347   7.217  -1.116  0.00  0.00    +0.151 C 
BRANCH  30  31
ATOM     31  C   UNL     1      -1.349   7.961  -0.275  0.00  0.00    +0.205 C 
ATOM     32  O   UNL     1      -1.961   8.757   0.698  0.00  0.00    -0.218 OA
ENDBRANCH  30  31
ENDBRANCH  28  30
ENDBRANCH   7  27
TORSDOF 11
ENDMDL
MODEL 3
REMARK VINA RESULT:      -6.3      4.951     11.226
REMARK  Name = 
REMARK  11 active torsions:
REMARK  status: ('A' for Active; 'I' for Inactive)
REMARK    1  A    between atoms: N_4  and  C_5
REMARK    2  A    between atoms: N_4  and  C_10
REMARK    3  A    between atoms: C_5  and  C_6
REMARK    4  A    between atoms: C_6  and  C_8
REMARK    5  A    between atoms: C_13  and  C_14
REMARK    6  A    between atoms: N_16  and  C_17
REMARK    7  A    between atoms: C_17  and  C_18
REMARK    8  A    between atoms: C_22  and  C_23
REMARK    9  A    between atoms: N_25  and  C_26
REMARK   10  A    between atoms: C_26  and  C_27
REMARK   11  A    between atoms: C_27  and  C_29
REMARK                            x       y       z     vdW  Elec       q    Type
REMARK                         _______ _______ _______ _____ _____    ______ ____
ROOT
ATOM      1  C   UNL     1       2.535   6.607  -2.716  0.00  0.00    +0.065 A 
ATOM      2  C   UNL     1       3.010   6.627  -4.013  0.00  0.00    +0.049 A 
ATOM      3  I   UNL     1       4.974   7.258  -4.361  0.00  0.00    -0.041 I 
ATOM      4  C   UNL     1       2.296   6.101  -5.081  0.00  0.00    +0.067 A 
ATOM      5  C   UNL     1       0.934   5.888  -4.917  0.00  0.00    +0.040 A 
ATOM      6  I   UNL     1      -0.281   5.615  -6.614  0.00  0.00    -0.042 I 
ATOM      7  C   UNL     1       0.418   5.919  -3.640  0.00  0.00    +0.067 A 
ATOM      8  C   UNL     1       1.257   6.080  -2.565  0.00  0.00    +0.049 A 
ATOM      9  I   UNL     1       0.575   5.431  -0.683  0.00  0.00    -0.041 I 
ENDROOT
BRANCH   1  12
ATOM     10  C   UNL     1       4.093   5.098  -1.135  0.00  0.00    +0.095 C 
ATOM     11  C   UNL     1       4.121   5.180  -1.420  0.00  0.00    +0.230 C 
ATOM     12  N   UNL     1       3.413   6.358  -1.636  0.00  0.00    -0.255 N 
ATOM     13  O   UNL     1       4.037   4.008  -1.687  0.00  0.00    -0.275 OA
BRANCH  12  14
ATOM     14  C   UNL     1       3.204   7.095  -0.378  0.00  0.00    +0.134 C 
BRANCH  14  15
ATOM     15  C   UNL     1       4.394   8.243  -0.371  0.00  0.00    +0.205 C 
ATOM     16  O   UNL     1       3.372   9.356  -0.546  0.00  0.00    -0.218 OA
BRANCH  15  17
ATOM     17  C   UNL     1       4.346   8.399   1.273  0.00  0.00    +0.217 C 
ATOM     18  O   UNL     1       4.207   7.073   1.651  0.00  0.00    -0.218 OA
ENDBRANCH  15  17
ENDBRANCH  14  15
ENDBRANCH  12  14
ENDBRANCH   1  12
BRANCH   4  19
ATOM     19  C   UNL     1       2.939   5.778  -6.362  0.00  0.00    +0.266 C 
ATOM     20  N   UNL     1       2.976   6.734  -7.409  0.00  0.00    -0.199 NA
ATOM     21  O   UNL     1       2.961   4.549  -6.672  0.00  0.00    -0.268 OA
BRANCH  20  22
ATOM     22  C   UNL     1       2.961   6.238  -8.782  0.00  0.00    +0.151 C 
BRANCH  22  23
ATOM     23  C   UNL     1       4.561   6.093  -9.171  0.00  0.00    +0.206 C 
ATOM     24  O   UNL     1       4.368   4.689  -9.728  0.00  0.00    -0.218 OA
BRANCH  23  25
ATOM     25  C   UNL     1       4.357   6.845 -10.624  0.00  0.00    +0.217 C 
ATOM     26  O   UNL     1       5.343   7.708 -10.836  0.00  0.00    -0.218 OA
ENDBRANCH  23  25
ENDBRANCH  22  23
ENDBRANCH  20  22
ENDBRANCH   4  19
BRANCH   7  27
ATOM     27  C   UNL     1      -1.040   5.977  -3.468  0.00  0.00    +0.266 C 
ATOM     28  N   UNL     1      -1.729   7.167  -3.129  0.00  0.00    -0.199 NA
ATOM     29  O   UNL     1      -1.593   4.889  -3.126  0.00  0.00    -0.268 OA
BRANCH  28  30
ATOM     30  C   UNL     1      -2.624   7.283  -1.988  0.00  0.00    +0.151 C 
BRANCH  30  31
ATOM     31  C   UNL     1      -1.954   7.894  -0.790  0.00  0.00    +0.205 C 
ATOM     32  O   UNL     1      -2.495   7.435   0.415  0.00  0.00    -0.218 OA
ENDBRANCH  30  31
ENDBRANCH  28  30
ENDBRANCH   7  27
TORSDOF 11
ENDMDL
MODEL 4
REMARK VINA RESULT:      -6.1      4.953      9.451
REMARK  Name = 
REMARK  11 active torsions:
REMARK  status: ('A' for Active; 'I' for Inactive)
REMARK    1  A    between atoms: N_4  and  C_5
REMARK    2  A    between atoms: N_4  and  C_10
REMARK    3  A    between atoms: C_5  and  C_6
REMARK    4  A    between atoms: C_6  and  C_8
REMARK    5  A    between atoms: C_13  and  C_14
REMARK    6  A    between atoms: N_16  and  C_17
REMARK    7  A    between atoms: C_17  and  C_18
REMARK    8  A    between atoms: C_22  and  C_23
REMARK    9  A    between atoms: N_25  and  C_26
REMARK   10  A    between atoms: C_26  and  C_27
REMARK   11  A    between atoms: C_27  and  C_29
REMARK                            x       y       z     vdW  Elec       q    Type
REMARK                         _______ _______ _______ _____ _____    ______ ____
ROOT
ATOM      1  C   UNL     1       2.071   5.518  -3.933  0.00  0.00    +0.065 A 
ATOM      2  C   UNL     1       0.889   5.354  -3.237  0.00  0.00    +0.049 A 
ATOM      3  I   UNL     1       0.969   4.724  -1.244  0.00  0.00    -0.041 I 
ATOM      4  C   UNL     1      -0.342   5.736  -3.751  0.00  0.00    +0.067 A 
ATOM      5  C   UNL     1      -0.446   5.940  -5.120  0.00  0.00    +0.040 A 
ATOM      6  I   UNL     1      -2.350   5.987  -6.016  0.00  0.00    -0.042 I 
ATOM      7  C   UNL     1       0.715   6.051  -5.854  0.00  0.00    +0.067 A 
ATOM      8  C   UNL     1       1.932   6.034  -5.217  0.00  0.00    +0.049 A 
ATOM      9  I   UNL     1       3.574   6.888  -6.218  0.00  0.00    -0.041 I 
ENDROOT
BRANCH   1  12
ATOM     10  C   UNL     1       4.609   5.253  -3.100  0.00  0.00    +0.095 C 
ATOM     11  C   UNL     1       4.493   5.294  -3.371  0.00  0.00    +0.230 C 
ATOM     12  N   UNL     1       3.251   5.910  -3.259  0.00  0.00    -0.255 N 
ATOM     13  O   UNL     1       4.951   4.214  -3.647  0.00  0.00    -0.275 OA
BRANCH  12  14
ATOM     14  C   UNL     1       3.120   6.622  -1.976  0.00  0.00    +0.134 C 
BRANCH  14  15
ATOM     15  C   UNL     1       4.525   7.481  -1.838  0.00  0.00    +0.205 C 
ATOM     16  O   UNL     1       3.784   8.795  -2.037  0.00  0.00    -0.218 OA
BRANCH  15  17
ATOM     17  C   UNL     1       4.387   7.601  -0.196  0.00  0.00    +0.217 C 
ATOM     18  O   UNL     1       4.216   6.268   0.142  0.00  0.00    -0.218 OA
ENDBRANCH  15  17
ENDBRANCH  14  15
ENDBRANCH  12  14
ENDBRANCH   1  12
BRANCH   4  19
ATOM     19  C   UNL     1      -1.521   5.917  -2.892  0.00  0.00    +0.266 C 
ATOM     20  N   UNL     1      -1.648   7.074  -2.081  0.00  0.00    -0.199 NA
ATOM     21  O   UNL     1      -2.092   4.852  -2.510  0.00  0.00    -0.268 OA
BRANCH  20  22
ATOM     22  C   UNL     1      -2.369   6.942  -0.819  0.00  0.00    +0.151 C 
BRANCH  22  23
ATOM     23  C   UNL     1      -1.253   7.365   0.324  0.00  0.00    +0.206 C 
ATOM     24  O   UNL     1      -1.308   8.835  -0.068  0.00  0.00    -0.218 OA
BRANCH  23  25
ATOM     25  C   UNL     1      -2.396   7.495   1.506  0.00  0.00    +0.217 C 
ATOM     26  O   UNL     1      -2.619   8.773   1.788  0.00  0.00    -0.218 OA
ENDBRANCH  23  25
ENDBRANCH  22  23
ENDBRANCH  20  22
ENDBRANCH   4  19
BRANCH   7  27
ATOM     27  C   UNL     1       0.634   5.985  -7.318  0.00  0.00    +0.266 C 
ATOM     28  N   UNL     1       0.829   4.788  -8.048  0.00  0.00    -0.199 NA
ATOM     29  O   UNL     1       0.897   7.065  -7.928  0.00  0.00    -0.268 OA
BRANCH  28  30
ATOM     30  C   UNL     1       1.798   4.648  -9.124  0.00  0.00    +0.151 C 
BRANCH  30  31
ATOM     31  C   UNL     1       3.020   3.883  -8.703  0.00  0.00    +0.205 C 
ATOM     32  O   UNL     1       4.197   4.427  -9.225  0.00  0.00    -0.218 OA
ENDBRANCH  30  31
ENDBRANCH  28  30
ENDBRANCH   7  27
TORSDOF 11
ENDMDL
MODEL 5
REMARK VINA RESULT:      -6.1      1.571      2.725
REMARK  Name = 
REMARK  11 active torsions:
REMARK  status: ('A' for Active; 'I' for Inactive)
REMARK    1  A    between atoms: N_4  and  C_5
REMARK    2  A    between atoms: N_4  and  C_10
REMARK    3  A    between atoms: C_5  and  C_6
REMARK    4  A    between atoms: C_6  and  C_8
REMARK    5  A    between atoms: C_13  and  C_14
REMARK    6  A    between atoms: N_16  and  C_17
REMARK    7  A    between atoms: C_17  and  C_18
REMARK    8  A    between atoms: C_22  and  C_23
REMARK    9  A    between atoms: N_25  and  C_26
REMARK   10  A    between atoms: C_26  and  C_27
REMARK   11  A    between atoms: C_27  and  C_29
REMARK                            x       y       z     vdW  Elec       q    Type
REMARK                         _______ _______ _______ _____ _____    ______ ____
ROOT
ATOM      1  C   UNL     1       2.282   6.250 -11.911  0.00  0.00    +0.065 A 
ATOM      2  C   UNL     1       1.919   5.890 -10.627  0.00  0.00    +0.049 A 
ATOM      3  I   UNL     1      -0.099   5.980 -10.083  0.00  0.00    -0.041 I 
ATOM      4  C   UNL     1       2.811   5.322  -9.728  0.00  0.00    +0.067 A 
ATOM      5  C   UNL     1       4.170   5.458  -9.979  0.00  0.00    +0.040 A 
ATOM      6  I   UNL     1       5.548   5.110  -8.426  0.00  0.00    -0.042 I 
ATOM      7  C   UNL     1       4.564   5.871 -11.233  0.00  0.00    +0.067 A 
ATOM      8  C   UNL     1       3.625   6.065 -12.217  0.00  0.00    +0.049 A 
ATOM      9  I   UNL     1       4.274   5.996 -14.218  0.00  0.00    -0.041 I 
ENDROOT
BRANCH   1  12
ATOM     10  C   UNL     1       0.468   6.980 -13.750  0.00  0.00    +0.095 C 
ATOM     11  C   UNL     1       0.757   7.046 -13.720  0.00  0.00    +0.230 C 
ATOM     12  N   UNL     1       1.391   6.046 -12.990  0.00  0.00    -0.255 N 
ATOM     13  O   UNL     1       0.400   8.188 -13.577  0.00  0.00    -0.275 OA
BRANCH  12  14
ATOM     14  C   UNL     1       0.637   4.782 -13.046  0.00  0.00    +0.134 C 
BRANCH  14  15
ATOM     15  C   UNL     1       0.729   4.318 -14.630  0.00  0.00    +0.205 C 
ATOM     16  O   UNL     1       1.813   3.301 -14.306  0.00  0.00    -0.218 OA
BRANCH  15  17
ATOM     17  C   UNL     1      -0.454   3.179 -14.450  0.00  0.00    +0.217 C 
ATOM     18  O   UNL     1      -0.926   3.096 -15.751  0.00  0.00    -0.218 OA
ENDBRANCH  15  17
ENDBRANCH  14  15
ENDBRANCH  12  14
ENDBRANCH   1  12
BRANCH   4  19
ATOM     19  C   UNL     1       2.356   4.602  -8.531  0.00  0.00    +0.266 C 
ATOM     20  N   UNL     1       2.174   5.289  -7.304  0.00  0.00    -0.199 NA
ATOM     21  O   UNL     1       2.642   3.367  -8.490  0.00  0.00    -0.268 OA
BRANCH  20  22
ATOM     22  C   UNL     1       2.403   4.544  -6.069  0.00  0.00    +0.151 C 
BRANCH  22  23
ATOM     23  C   UNL     1       3.047   5.666  -5.040  0.00  0.00    +0.206 C 
ATOM     24  O   UNL     1       1.898   5.519  -4.052  0.00  0.00    -0.218 OA
BRANCH  23  25
ATOM     25  C   UNL     1       4.008   4.550  -4.299  0.00  0.00    +0.217 C 
ATOM     26  O   UNL     1       5.166   5.099  -3.954  0.00  0.00    -0.218 OA
ENDBRANCH  23  25
ENDBRANCH  22  23
ENDBRANCH  20  22
ENDBRANCH   4  19
BRANCH   7  27
ATOM     27  C   UNL     1       5.958   6.287 -11.434  0.00  0.00    +0.266 C 
ATOM     28  N   UNL     1       6.994   5.380 -11.762  0.00  0.00    -0.199 NA
ATOM     29  O   UNL     1       6.306   7.341 -10.821  0.00  0.00    -0.268 OA
BRANCH  28  30
ATOM     30  C   UNL     1       8.224   5.249 -10.998  0.00  0.00    +0.151 C 
BRANCH  30  31
ATOM     31  C   UNL     1       9.425   5.748 -11.750  0.00  0.00    +0.205 C 
ATOM     32  O   UNL     1       9.102   6.196 -13.033  0.00  0.00    -0.218 OA
ENDBRANCH  30  31
ENDBRANCH  28  30
ENDBRANCH   7  27
TORSDOF 11
ENDMDL
MODEL 6
REMARK VINA RESULT:      -5.8      4.826      9.557
REMARK  Name = 
REMARK  11 active torsions:
REMARK  status: ('A' for Active; 'I' for Inactive)
REMARK    1  A    between atoms: N_4  and  C_5
REMARK    2  A    between atoms: N_4  and  C_10
REMARK    3  A    between atoms: C_5  and  C_6
REMARK    4  A    between atoms: C_6  and  C_8
REMARK    5  A    between atoms: C_13  and  C_14
REMARK    6  A    between atoms: N_16  and  C_17
REMARK    7  A    between atoms: C_17  and  C_18
REMARK    8  A    between atoms: C_22  and  C_23
REMARK    9  A    between atoms: N_25  and  C_26
REMARK   10  A    between atoms: C_26  and  C_27
REMARK   11  A    between atoms: C_27  and  C_29
REMARK                            x       y       z     vdW  Elec       q    Type
REMARK                         _______ _______ _______ _____ _____    ______ ____
ROOT
ATOM      1  C   UNL     1       2.971   6.128  -2.816  0.00  0.00    +0.065 A 
ATOM      2  C   UNL     1       1.596   6.011  -2.890  0.00  0.00    +0.049 A 
ATOM      3  I   UNL     1       0.517   5.649  -1.134  0.00  0.00    -0.041 I 
ATOM      4  C   UNL     1       0.882   6.276  -4.050  0.00  0.00    +0.067 A 
ATOM      5  C   UNL     1       1.573   6.296  -5.254  0.00  0.00    +0.040 A 
ATOM      6  I   UNL     1       0.504   6.154  -7.061  0.00  0.00    -0.042 I 
ATOM      7  C   UNL     1       2.949   6.355  -5.216  0.00  0.00    +0.067 A 
ATOM      8  C   UNL     1       3.597   6.467  -4.010  0.00  0.00    +0.049 A 
ATOM      9  I   UNL     1       5.552   7.246  -4.017  0.00  0.00    -0.041 I 
ENDROOT
BRANCH   1  12
ATOM     10  C   UNL     1       4.335   5.996  -0.509  0.00  0.00    +0.095 C 
ATOM     11  C   UNL     1       4.418   5.945  -0.790  0.00  0.00    +0.230 C 
ATOM     12  N   UNL     1       3.584   6.649  -1.653  0.00  0.00    -0.255 N 
ATOM     13  O   UNL     1       4.619   4.808  -0.446  0.00  0.00    -0.275 OA
BRANCH  12  14
ATOM     14  C   UNL     1       2.937   7.781  -0.968  0.00  0.00    +0.134 C 
BRANCH  14  15
ATOM     15  C   UNL     1       4.192   8.747  -0.494  0.00  0.00    +0.205 C 
ATOM     16  O   UNL     1       3.689   9.890  -1.362  0.00  0.00    -0.218 OA
BRANCH  15  17
ATOM     17  C   UNL     1       3.366   9.319   0.816  0.00  0.00    +0.217 C 
ATOM     18  O   UNL     1       2.174   8.622   0.690  0.00  0.00    -0.218 OA
ENDBRANCH  15  17
ENDBRANCH  14  15
ENDBRANCH  12  14
ENDBRANCH   1  12
BRANCH   4  19
ATOM     19  C   UNL     1      -0.566   6.522  -4.032  0.00  0.00    +0.266 C 
ATOM     20  N   UNL     1      -1.480   5.439  -4.085  0.00  0.00    -0.199 NA
ATOM     21  O   UNL     1      -0.939   7.644  -4.491  0.00  0.00    -0.268 OA
BRANCH  20  22
ATOM     22  C   UNL     1      -2.767   5.669  -4.734  0.00  0.00    +0.151 C 
BRANCH  22  23
ATOM     23  C   UNL     1      -3.875   5.328  -3.556  0.00  0.00    +0.206 C 
ATOM     24  O   UNL     1      -2.841   4.615  -2.695  0.00  0.00    -0.218 OA
BRANCH  23  25
ATOM     25  C   UNL     1      -3.670   6.794  -2.829  0.00  0.00    +0.217 C 
ATOM     26  O   UNL     1      -3.224   6.633  -1.589  0.00  0.00    -0.218 OA
ENDBRANCH  23  25
ENDBRANCH  22  23
ENDBRANCH  20  22
ENDBRANCH   4  19
BRANCH   7  27
ATOM     27  C   UNL     1       3.702   6.097  -6.450  0.00  0.00    +0.266 C 
ATOM     28  N   UNL     1       3.716   6.992  -7.547  0.00  0.00    -0.199 NA
ATOM     29  O   UNL     1       3.904   4.874  -6.720  0.00  0.00    -0.268 OA
BRANCH  28  30
ATOM     30  C   UNL     1       3.360   6.610  -8.905  0.00  0.00    +0.151 C 
BRANCH  30  31
ATOM     31  C   UNL     1       4.553   6.544  -9.816  0.00  0.00    +0.205 C 
ATOM     32  O   UNL     1       4.214   6.759 -11.154  0.00  0.00    -0.218 OA
ENDBRANCH  30  31
ENDBRANCH  28  30
ENDBRANCH   7  27
TORSDOF 11
ENDMDL
MODEL 7
REMARK VINA RESULT:      -5.8      1.359      5.858
REMARK  Name = 
REMARK  11 active torsions:
REMARK  status: ('A' for Active; 'I' for Inactive)
REMARK    1  A    between atoms: N_4  and  C_5
REMARK    2  A    between atoms: N_4  and  C_10
REMARK    3  A    between atoms: C_5  and  C_6
REMARK    4  A    between atoms: C_6  and  C_8
REMARK    5  A    between atoms: C_13  and  C_14
REMARK    6  A    between atoms: N_16  and  C_17
REMARK    7  A    between atoms: C_17  and  C_18
REMARK    8  A    between atoms: C_22  and  C_23
REMARK    9  A    between atoms: N_25  and  C_26
REMARK   10  A    between atoms: C_26  and  C_27
REMARK   11  A    between atoms: C_27  and  C_29
REMARK                            x       y       z     vdW  Elec       q    Type
REMARK                         _______ _______ _______ _____ _____    ______ ____
ROOT
ATOM      1  C   UNL     1       4.670   5.675 -11.266  0.00  0.00    +0.065 A 
ATOM      2  C   UNL     1       3.829   5.642 -10.170  0.00  0.00    +0.049 A 
ATOM      3  I   UNL     1       4.662   5.451  -8.261  0.00  0.00    -0.041 I 
ATOM      4  C   UNL     1       2.465   5.884 -10.264  0.00  0.00    +0.067 A 
ATOM      5  C   UNL     1       1.868   5.791 -11.514  0.00  0.00    +0.040 A 
ATOM      6  I   UNL     1      -0.225   5.613 -11.649  0.00  0.00    -0.042 I 
ATOM      7  C   UNL     1       2.682   5.765 -12.626  0.00  0.00    +0.067 A 
ATOM      8  C   UNL     1       4.040   5.905 -12.484  0.00  0.00    +0.049 A 
ATOM      9  I   UNL     1       5.138   6.556 -14.158  0.00  0.00    -0.041 I 
ENDROOT
BRANCH   1  12
ATOM     10  C   UNL     1       6.487   7.648 -11.173  0.00  0.00    +0.095 C 
ATOM     11  C   UNL     1       6.271   7.570 -10.985  0.00  0.00    +0.230 C 
ATOM     12  N   UNL     1       5.969   6.223 -11.154  0.00  0.00    -0.255 N 
ATOM     13  O   UNL     1       5.784   8.647 -11.220  0.00  0.00    -0.275 OA
BRANCH  12  14
ATOM     14  C   UNL     1       7.091   5.497 -11.774  0.00  0.00    +0.134 C 
BRANCH  14  15
ATOM     15  C   UNL     1       8.426   6.028 -10.958  0.00  0.00    +0.205 C 
ATOM     16  O   UNL     1       8.684   4.637 -10.400  0.00  0.00    -0.218 OA
BRANCH  15  17
ATOM     17  C   UNL     1       9.425   5.746 -12.243  0.00  0.00    +0.217 C 
ATOM     18  O   UNL     1       8.515   5.265 -13.171  0.00  0.00    -0.218 OA
ENDBRANCH  15  17
ENDBRANCH  14  15
ENDBRANCH  12  14
ENDBRANCH   1  12
BRANCH   4  19
ATOM     19  C   UNL     1       1.653   6.223  -9.088  0.00  0.00    +0.266 C 
ATOM     20  N   UNL     1       0.970   5.209  -8.369  0.00  0.00    -0.199 NA
ATOM     21  O   UNL     1       1.173   7.397  -9.069  0.00  0.00    -0.268 OA
BRANCH  20  22
ATOM     22  C   UNL     1      -0.285   5.567  -7.716  0.00  0.00    +0.151 C 
BRANCH  22  23
ATOM     23  C   UNL     1      -0.085   5.054  -6.158  0.00  0.00    +0.206 C 
ATOM     24  O   UNL     1       0.785   6.252  -5.803  0.00  0.00    -0.218 OA
BRANCH  23  25
ATOM     25  C   UNL     1      -1.493   5.756  -5.663  0.00  0.00    +0.217 C 
ATOM     26  O   UNL     1      -2.497   5.363  -6.436  0.00  0.00    -0.218 OA
ENDBRANCH  23  25
ENDBRANCH  22  23
ENDBRANCH  20  22
ENDBRANCH   4  19
BRANCH   7  27
ATOM     27  C   UNL     1       2.097   5.388 -13.920  0.00  0.00    +0.266 C 
ATOM     28  N   UNL     1       1.606   6.336 -14.849  0.00  0.00    -0.199 NA
ATOM     29  O   UNL     1       1.579   4.232 -13.968  0.00  0.00    -0.268 OA
BRANCH  28  30
ATOM     30  C   UNL     1       0.258   6.305 -15.397  0.00  0.00    +0.151 C 
BRANCH  30  31
ATOM     31  C   UNL     1       0.028   7.383 -16.419  0.00  0.00    +0.205 C 
ATOM     32  O   UNL     1       0.544   7.047 -17.673  0.00  0.00    -0.218 OA
ENDBRANCH  30  31
ENDBRANCH  28  30
ENDBRANCH   7  27
TORSDOF 11
ENDMDL
MODEL 8
REMARK VINA RESULT:      -5.7      4.564      9.502
REMARK  Name = 
REMARK  11 active torsions:
REMARK  status: ('A' for Active; 'I' for Inactive)
REMARK    1  A    between atoms: N_4  and  C_5
REMARK    2  A    between atoms: N_4  and  C_10
REMARK    3  A    between atoms: C_5  and  C_6
REMARK    4  A    between atoms: C_6  and  C_8
REMARK    5  A    between atoms: C_13  and  C_14
REMARK    6  A    between atoms: N_16  and  C_17
REMARK    7  A    between atoms: C_17  and  C_18
REMARK    8  A    between atoms: C_22  and  C_23
REMARK    9  A    between atoms: N_25  and  C_26
REMARK   10  A    between atoms: C_26  and  C_27
REMARK   11  A    between atoms: C_27  and  C_29
REMARK                            x       y       z     vdW  Elec       q    Type
REMARK                         _______ _______ _______ _____ _____    ______ ____
ROOT
ATOM      1  C   UNL     1      -0.216   5.494  -3.595  0.00  0.00    +0.065 A 
ATOM      2  C   UNL     1       0.497   5.458  -4.778  0.00  0.00    +0.049 A 
ATOM      3  I   UNL     1      -0.535   5.159  -6.573  0.00  0.00    -0.041 I 
ATOM      4  C   UNL     1       1.849   5.766  -4.847  0.00  0.00    +0.067 A 
ATOM      5  C   UNL     1       2.586   5.746  -3.671  0.00  0.00    +0.040 A 
ATOM      6  I   UNL     1       4.687   5.668  -3.770  0.00  0.00    -0.042 I 
ATOM      7  C   UNL     1       1.905   5.724  -2.473  0.00  0.00    +0.067 A 
ATOM      8  C   UNL     1       0.534   5.797  -2.464  0.00  0.00    +0.049 A 
ATOM      9  I   UNL     1      -0.401   6.459  -0.698  0.00  0.00    -0.041 I 
ENDROOT
BRANCH   1  12
ATOM     10  C   UNL     1      -2.859   5.350  -3.150  0.00  0.00    +0.095 C 
ATOM     11  C   UNL     1      -2.628   5.353  -2.963  0.00  0.00    +0.230 C 
ATOM     12  N   UNL     1      -1.545   5.977  -3.576  0.00  0.00    -0.255 N 
ATOM     13  O   UNL     1      -2.973   4.245  -2.639  0.00  0.00    -0.275 OA
BRANCH  12  14
ATOM     14  C   UNL     1      -1.985   6.862  -4.668  0.00  0.00    +0.134 C 
BRANCH  14  15
ATOM     15  C   UNL     1      -1.831   8.387  -4.051  0.00  0.00    +0.205 C 
ATOM     16  O   UNL     1      -0.693   8.700  -5.011  0.00  0.00    -0.218 OA
BRANCH  15  17
ATOM     17  C   UNL     1      -2.945   9.013  -5.097  0.00  0.00    +0.217 C 
ATOM     18  O   UNL     1      -3.335   7.865  -5.769  0.00  0.00    -0.218 OA
ENDBRANCH  15  17
ENDBRANCH  14  15
ENDBRANCH  12  14
ENDBRANCH   1  12
BRANCH   4  19
ATOM     19  C   UNL     1       2.507   6.097  -6.118  0.00  0.00    +0.266 C 
ATOM     20  N   UNL     1       3.096   5.078  -6.910  0.00  0.00    -0.199 NA
ATOM     21  O   UNL     1       2.978   7.271  -6.205  0.00  0.00    -0.268 OA
BRANCH  20  22
ATOM     22  C   UNL     1       4.259   5.434  -7.718  0.00  0.00    +0.151 C 
BRANCH  22  23
ATOM     23  C   UNL     1       4.099   4.507  -9.077  0.00  0.00    +0.206 C 
ATOM     24  O   UNL     1       2.922   3.735  -8.495  0.00  0.00    -0.218 OA
BRANCH  23  25
ATOM     25  C   UNL     1       3.164   5.635  -9.832  0.00  0.00    +0.217 C 
ATOM     26  O   UNL     1       3.570   5.803 -11.085  0.00  0.00    -0.218 OA
ENDBRANCH  23  25
ENDBRANCH  22  23
ENDBRANCH  20  22
ENDBRANCH   4  19
BRANCH   7  27
ATOM     27  C   UNL     1       2.648   5.422  -1.243  0.00  0.00    +0.266 C 
ATOM     28  N   UNL     1       3.247   6.422  -0.439  0.00  0.00    -0.199 NA
ATOM     29  O   UNL     1       3.175   4.270  -1.193  0.00  0.00    -0.268 OA
BRANCH  28  30
ATOM     30  C   UNL     1       4.653   6.421  -0.063  0.00  0.00    +0.151 C 
BRANCH  30  31
ATOM     31  C   UNL     1       4.950   7.380   1.054  0.00  0.00    +0.205 C 
ATOM     32  O   UNL     1       4.325   7.016   2.250  0.00  0.00    -0.218 OA
ENDBRANCH  30  31
ENDBRANCH  28  30
ENDBRANCH   7  27
TORSDOF 11
ENDMDL
MODEL 9
REMARK VINA RESULT:      -5.6      5.658     10.066
REMARK  Name = 
REMARK  11 active torsions:
REMARK  status: ('A' for Active; 'I' for Inactive)
REMARK    1  A    between atoms: N_4  and  C_5
REMARK    2  A    between atoms: N_4  and  C_10
REMARK    3  A    between atoms: C_5  and  C_6
REMARK    4  A    between atoms: C_6  and  C_8
REMARK    5  A    between atoms: C_13  and  C_14
REMARK    6  A    between atoms: N_16  and  C_17
REMARK    7  A    between atoms: C_17  and  C_18
REMARK    8  A    between atoms: C_22  and  C_23
REMARK    9  A    between atoms: N_25  and  C_26
REMARK   10  A    between atoms: C_26  and  C_27
REMARK   11  A    between atoms: C_27  and  C_29
REMARK                            x       y       z     vdW  Elec       q    Type
REMARK                         _______ _______ _______ _____ _____    ______ ____
ROOT
ATOM      1  C   UNL     1       1.761   5.420  -4.381  0.00  0.00    +0.065 A 
ATOM      2  C   UNL     1       2.849   5.687  -3.572  0.00  0.00    +0.049 A 
ATOM      3  I   UNL     1       4.761   5.168  -4.245  0.00  0.00    -0.041 I 
ATOM      4  C   UNL     1       2.749   6.425  -2.401  0.00  0.00    +0.067 A 
ATOM      5  C   UNL     1       1.493   6.582  -1.831  0.00  0.00    +0.040 A 
ATOM      6  I   UNL     1       1.339   7.205   0.174  0.00  0.00    -0.042 I 
ATOM      7  C   UNL     1       0.388   6.270  -2.592  0.00  0.00    +0.067 A 
ATOM      8  C   UNL     1       0.543   5.888  -3.901  0.00  0.00    +0.049 A 
ATOM      9  I   UNL     1      -1.109   6.105  -5.188  0.00  0.00    -0.041 I 
ENDROOT
BRANCH   1  12
ATOM     10  C   UNL     1       2.107   4.339  -6.813  0.00  0.00    +0.095 C 
ATOM     11  C   UNL     1       1.882   4.322  -6.620  0.00  0.00    +0.230 C 
ATOM     12  N   UNL     1       1.894   5.438  -5.789  0.00  0.00    -0.255 N 
ATOM     13  O   UNL     1       2.126   3.143  -6.562  0.00  0.00    -0.275 OA
BRANCH  12  14
ATOM     14  C   UNL     1       2.618   6.560  -6.410  0.00  0.00    +0.134 C 
BRANCH  14  15
ATOM     15  C   UNL     1       1.753   6.901  -7.776  0.00  0.00    +0.205 C 
ATOM     16  O   UNL     1       1.908   8.397  -7.546  0.00  0.00    -0.218 OA
BRANCH  15  17
ATOM     17  C   UNL     1       3.097   6.865  -8.736  0.00  0.00    +0.217 C 
ATOM     18  O   UNL     1       2.526   6.561  -9.962  0.00  0.00    -0.218 OA
ENDBRANCH  15  17
ENDBRANCH  14  15
ENDBRANCH  12  14
ENDBRANCH   1  12
BRANCH   4  19
ATOM     19  C   UNL     1       3.926   7.026  -1.758  0.00  0.00    +0.266 C 
ATOM     20  N   UNL     1       4.522   6.407  -0.629  0.00  0.00    -0.199 NA
ATOM     21  O   UNL     1       4.041   8.282  -1.883  0.00  0.00    -0.268 OA
BRANCH  20  22
ATOM     22  C   UNL     1       5.166   7.270   0.356  0.00  0.00    +0.151 C 
BRANCH  22  23
ATOM     23  C   UNL     1       4.017   7.466   1.527  0.00  0.00    +0.206 C 
ATOM     24  O   UNL     1       4.873   6.775   2.580  0.00  0.00    -0.218 OA
BRANCH  23  25
ATOM     25  C   UNL     1       4.541   8.984   1.900  0.00  0.00    +0.217 C 
ATOM     26  O   UNL     1       3.901   9.884   1.164  0.00  0.00    -0.218 OA
ENDBRANCH  23  25
ENDBRANCH  22  23
ENDBRANCH  20  22
ENDBRANCH   4  19
BRANCH   7  27
ATOM     27  C   UNL     1      -0.918   6.160  -1.928  0.00  0.00    +0.266 C 
ATOM     28  N   UNL     1      -1.550   7.251  -1.284  0.00  0.00    -0.199 NA
ATOM     29  O   UNL     1      -1.216   5.005  -1.499  0.00  0.00    -0.268 OA
BRANCH  28  30
ATOM     30  C   UNL     1      -1.999   7.222   0.100  0.00  0.00    +0.151 C 
BRANCH  30  31
ATOM     31  C   UNL     1      -1.962   8.578   0.745  0.00  0.00    +0.205 C 
ATOM     32  O   UNL     1      -2.757   8.644   1.892  0.00  0.00    -0.218 OA
ENDBRANCH  30  31
ENDBRANCH  28  30
ENDBRANCH   7  27
TORSDOF 11
ENDMDL
