MODEL 1
REMARK VINA RESULT:      -8.4      0.000      0.000
REMARK  Name = 
REMARK  0 active torsions:
REMARK  status: ('A' for Active; 'I' for Inactive)
REMARK                            x       y       z     vdW  Elec       q    Type
REMARK                         _______ _______ _______ _____ _____    ______ ____
ROOT
ATOM      1  C   UNL     1       4.356   5.912  -4.408  0.00  0.00    +0.090 C 
ATOM      2  N   UNL     1       3.181   5.388  -4.674  0.00  0.00    -0.271 NA
ATOM      3  C   UNL     1       3.214   4.382  -5.631  0.00  0.00    +0.077 C 
ATOM      4  C   UNL     1       1.701   4.356  -6.259  0.00  0.00    +0.047 C 
ATOM      5  C   UNL     1       1.024   5.057  -4.835  0.00  0.00    +0.047 C 
ATOM      6  C   UNL     1      -0.144   5.910  -5.523  0.00  0.00    +0.015 A 
ATOM      7  C   UNL     1      -0.962   5.432  -6.540  0.00  0.00    +0.141 A 
ATOM      8  O   UNL     1      -0.388   5.558  -7.821  0.00  0.00    -0.454 OA
ATOM      9  C   UNL     1       0.969   5.724  -8.166  0.00  0.00    +0.141 A 
ATOM     10  C   UNL     1       1.230   6.132  -9.426  0.00  0.00    +0.037 A 
ATOM     11  C   UNL     1       2.566   6.283  -9.775  0.00  0.00    +0.003 A 
ATOM     12  C   UNL     1       3.486   6.463  -8.749  0.00  0.00    -0.000 A 
ATOM     13  C   UNL     1       3.185   5.763  -7.585  0.00  0.00    -0.001 A 
ATOM     14  C   UNL     1      -2.297   5.813  -6.486  0.00  0.00    +0.038 A 
ATOM     15  C   UNL     1      -2.768   6.593  -5.431  0.00  0.00    +0.015 A 
ATOM     16  C   UNL     1      -1.885   7.223  -4.556  0.00  0.00    +0.058 A 
ATOM     17 CL   UNL     1      -2.050   8.941  -4.176  0.00  0.00    -0.082 Cl
ATOM     18  C   UNL     1      -0.668   6.561  -4.408  0.00  0.00    +0.010 A 
ATOM     19  C   UNL     1       1.883   5.728  -7.096  0.00  0.00    +0.014 A 
ATOM     20  C   UNL     1       2.102   6.301  -4.893  0.00  0.00    +0.077 C 
ENDROOT
TORSDOF 0
ENDMDL
MODEL 2
REMARK VINA RESULT:      -8.2      3.803      6.692
REMARK  Name = 
REMARK  0 active torsions:
REMARK  status: ('A' for Active; 'I' for Inactive)
REMARK                            x       y       z     vdW  Elec       q    Type
REMARK                         _______ _______ _______ _____ _____    ______ ____
ROOT
ATOM      1  C   UNL     1       0.153   6.038 -10.205  0.00  0.00    +0.090 C 
ATOM      2  N   UNL     1       1.321   5.454 -10.061  0.00  0.00    -0.271 NA
ATOM      3  C   UNL     1       1.364   4.526  -9.029  0.00  0.00    +0.077 C 
ATOM      4  C   UNL     1       2.947   4.439  -8.613  0.00  0.00    +0.047 C 
ATOM      5  C   UNL     1       3.455   4.985 -10.169  0.00  0.00    +0.047 C 
ATOM      6  C   UNL     1       4.758   5.802  -9.719  0.00  0.00    +0.015 A 
ATOM      7  C   UNL     1       5.682   5.344  -8.788  0.00  0.00    +0.141 A 
ATOM      8  O   UNL     1       5.303   5.603  -7.456  0.00  0.00    -0.454 OA
ATOM      9  C   UNL     1       4.021   5.888  -6.943  0.00  0.00    +0.141 A 
ATOM     10  C   UNL     1       3.966   6.404  -5.697  0.00  0.00    +0.037 A 
ATOM     11  C   UNL     1       2.704   6.673  -5.182  0.00  0.00    +0.003 A 
ATOM     12  C   UNL     1       1.660   6.841  -6.084  0.00  0.00    -0.000 A 
ATOM     13  C   UNL     1       1.751   6.040  -7.218  0.00  0.00    -0.001 A 
ATOM     14  C   UNL     1       7.016   5.625  -9.055  0.00  0.00    +0.038 A 
ATOM     15  C   UNL     1       7.378   6.292 -10.225  0.00  0.00    +0.015 A 
ATOM     16  C   UNL     1       6.419   6.916 -11.019  0.00  0.00    +0.058 A 
ATOM     17 CL   UNL     1       6.630   8.587 -11.559  0.00  0.00    -0.082 Cl
ATOM     18  C   UNL     1       5.156   6.332 -10.945  0.00  0.00    +0.010 A 
ATOM     19  C   UNL     1       2.967   5.878  -7.875  0.00  0.00    +0.014 A 
ATOM     20  C   UNL     1       2.472   6.303 -10.067  0.00  0.00    +0.077 C 
ENDROOT
TORSDOF 0
ENDMDL
MODEL 3
REMARK VINA RESULT:      -7.9      2.422      4.406
REMARK  Name = 
REMARK  0 active torsions:
REMARK  status: ('A' for Active; 'I' for Inactive)
REMARK                            x       y       z     vdW  Elec       q    Type
REMARK                         _______ _______ _______ _____ _____    ______ ____
ROOT
ATOM      1  C   UNL     1      -1.069   7.155  -3.756  0.00  0.00    +0.090 C 
ATOM      2  N   UNL     1      -0.594   6.188  -4.506  0.00  0.00    -0.271 NA
ATOM      3  C   UNL     1       0.296   5.348  -3.848  0.00  0.00    +0.077 C 
ATOM      4  C   UNL     1       1.214   4.699  -5.040  0.00  0.00    +0.047 C 
ATOM      5  C   UNL     1      -0.016   4.960  -6.222  0.00  0.00    +0.047 C 
ATOM      6  C   UNL     1       0.926   5.254  -7.484  0.00  0.00    +0.015 A 
ATOM      7  C   UNL     1       2.067   4.522  -7.792  0.00  0.00    +0.141 A 
ATOM      8  O   UNL     1       3.210   4.953  -7.090  0.00  0.00    -0.454 OA
ATOM      9  C   UNL     1       3.282   5.711  -5.903  0.00  0.00    +0.141 A 
ATOM     10  C   UNL     1       4.479   6.257  -5.603  0.00  0.00    +0.037 A 
ATOM     11  C   UNL     1       4.558   6.993  -4.426  0.00  0.00    +0.003 A 
ATOM     12  C   UNL     1       3.376   7.501  -3.901  0.00  0.00    -0.000 A 
ATOM     13  C   UNL     1       2.269   6.680  -4.090  0.00  0.00    -0.001 A 
ATOM     14  C   UNL     1       2.297   4.281  -9.141  0.00  0.00    +0.038 A 
ATOM     15  C   UNL     1       1.390   4.722 -10.103  0.00  0.00    +0.015 A 
ATOM     16  C   UNL     1       0.382   5.625  -9.776  0.00  0.00    +0.058 A 
ATOM     17 CL   UNL     1       0.111   7.078 -10.747  0.00  0.00    -0.082 Cl
ATOM     18  C   UNL     1      -0.034   5.552  -8.449  0.00  0.00    +0.010 A 
ATOM     19  C   UNL     1       2.051   6.055  -5.314  0.00  0.00    +0.014 A 
ATOM     20  C   UNL     1      -0.127   6.550  -5.808  0.00  0.00    +0.077 C 
ENDROOT
TORSDOF 0
ENDMDL
MODEL 4
REMARK VINA RESULT:      -7.9      4.026      6.350
REMARK  Name = 
REMARK  0 active torsions:
REMARK  status: ('A' for Active; 'I' for Inactive)
REMARK                            x       y       z     vdW  Elec       q    Type
REMARK                         _______ _______ _______ _____ _____    ______ ____
ROOT
ATOM      1  C   UNL     1       2.025   3.791  -6.619  0.00  0.00    +0.090 C 
ATOM      2  N   UNL     1       2.528   4.878  -7.157  0.00  0.00    -0.271 NA
ATOM      3  C   UNL     1       1.573   5.789  -7.587  0.00  0.00    +0.077 C 
ATOM      4  C   UNL     1       2.328   6.669  -8.745  0.00  0.00    +0.047 C 
ATOM      5  C   UNL     1       3.886   6.317  -8.092  0.00  0.00    +0.047 C 
ATOM      6  C   UNL     1       4.715   6.277  -9.462  0.00  0.00    +0.015 A 
ATOM      7  C   UNL     1       4.565   7.199 -10.490  0.00  0.00    +0.141 A 
ATOM      8  O   UNL     1       3.498   6.896 -11.358  0.00  0.00    -0.454 OA
ATOM      9  C   UNL     1       2.382   6.065 -11.128  0.00  0.00    +0.141 A 
ATOM     10  C   UNL     1       1.671   5.689 -12.211  0.00  0.00    +0.037 A 
ATOM     11  C   UNL     1       0.562   4.881 -11.987  0.00  0.00    +0.003 A 
ATOM     12  C   UNL     1       0.521   4.155 -10.803  0.00  0.00    -0.000 A 
ATOM     13  C   UNL     1       1.091   4.805  -9.714  0.00  0.00    -0.001 A 
ATOM     14  C   UNL     1       5.728   7.583 -11.147  0.00  0.00    +0.038 A 
ATOM     15  C   UNL     1       6.966   7.086 -10.741  0.00  0.00    +0.015 A 
ATOM     16  C   UNL     1       7.052   6.013  -9.857  0.00  0.00    +0.058 A 
ATOM     17 CL   UNL     1       8.081   4.619 -10.214  0.00  0.00    -0.082 Cl
ATOM     18  C   UNL     1       5.972   5.912  -8.984  0.00  0.00    +0.010 A 
ATOM     19  C   UNL     1       2.298   5.486  -9.848  0.00  0.00    +0.014 A 
ATOM     20  C   UNL     1       3.571   4.700  -8.118  0.00  0.00    +0.077 C 
ENDROOT
TORSDOF 0
ENDMDL
MODEL 5
REMARK VINA RESULT:      -7.7      1.968      3.679
REMARK  Name = 
REMARK  0 active torsions:
REMARK  status: ('A' for Active; 'I' for Inactive)
REMARK                            x       y       z     vdW  Elec       q    Type
REMARK                         _______ _______ _______ _____ _____    ______ ____
ROOT
ATOM      1  C   UNL     1       3.050   3.880  -8.626  0.00  0.00    +0.090 C 
ATOM      2  N   UNL     1       2.454   4.962  -8.182  0.00  0.00    -0.271 NA
ATOM      3  C   UNL     1       3.327   5.932  -7.705  0.00  0.00    +0.077 C 
ATOM      4  C   UNL     1       2.431   6.819  -6.658  0.00  0.00    +0.047 C 
ATOM      5  C   UNL     1       0.956   6.371  -7.435  0.00  0.00    +0.047 C 
ATOM      6  C   UNL     1       0.007   6.345  -6.145  0.00  0.00    +0.015 A 
ATOM      7  C   UNL     1       0.022   7.311  -5.146  0.00  0.00    +0.141 A 
ATOM      8  O   UNL     1       1.017   7.090  -4.173  0.00  0.00    -0.454 OA
ATOM      9  C   UNL     1       2.183   6.303  -4.267  0.00  0.00    +0.141 A 
ATOM     10  C   UNL     1       2.807   6.001  -3.109  0.00  0.00    +0.037 A 
ATOM     11  C   UNL     1       3.964   5.237  -3.199  0.00  0.00    +0.003 A 
ATOM     12  C   UNL     1       4.146   4.469  -4.342  0.00  0.00    -0.000 A 
ATOM     13  C   UNL     1       3.651   5.052  -5.505  0.00  0.00    -0.001 A 
ATOM     14  C   UNL     1      -1.211   7.666  -4.614  0.00  0.00    +0.038 A 
ATOM     15  C   UNL     1      -2.385   7.098  -5.109  0.00  0.00    +0.015 A 
ATOM     16  C   UNL     1      -2.343   5.989  -5.952  0.00  0.00    +0.058 A 
ATOM     17 CL   UNL     1      -3.341   4.564  -5.632  0.00  0.00    -0.082 Cl
ATOM     18  C   UNL     1      -1.184   5.905  -6.719  0.00  0.00    +0.010 A 
ATOM     19  C   UNL     1       2.410   5.681  -5.509  0.00  0.00    +0.014 A 
ATOM     20  C   UNL     1       1.335   4.773  -7.312  0.00  0.00    +0.077 C 
ENDROOT
TORSDOF 0
ENDMDL
MODEL 6
REMARK VINA RESULT:      -7.7      2.503      4.844
REMARK  Name = 
REMARK  0 active torsions:
REMARK  status: ('A' for Active; 'I' for Inactive)
REMARK                            x       y       z     vdW  Elec       q    Type
REMARK                         _______ _______ _______ _____ _____    ______ ____
ROOT
ATOM      1  C   UNL     1       2.854   6.412 -10.567  0.00  0.00    +0.090 C 
ATOM      2  N   UNL     1       3.160   5.652  -9.541  0.00  0.00    -0.271 NA
ATOM      3  C   UNL     1       2.426   4.475  -9.471  0.00  0.00    +0.077 C 
ATOM      4  C   UNL     1       2.468   4.052  -7.889  0.00  0.00    +0.047 C 
ATOM      5  C   UNL     1       3.926   4.935  -7.621  0.00  0.00    +0.047 C 
ATOM      6  C   UNL     1       3.649   5.400  -6.113  0.00  0.00    +0.015 A 
ATOM      7  C   UNL     1       3.126   4.573  -5.127  0.00  0.00    +0.141 A 
ATOM      8  O   UNL     1       1.719   4.498  -5.153  0.00  0.00    -0.454 OA
ATOM      9  C   UNL     1       0.838   4.807  -6.210  0.00  0.00    +0.141 A 
ATOM     10  C   UNL     1      -0.465   4.955  -5.892  0.00  0.00    +0.037 A 
ATOM     11  C   UNL     1      -1.338   5.245  -6.934  0.00  0.00    +0.003 A 
ATOM     12  C   UNL     1      -0.804   5.806  -8.087  0.00  0.00    -0.000 A 
ATOM     13  C   UNL     1       0.471   5.350  -8.406  0.00  0.00    -0.001 A 
ATOM     14  C   UNL     1       3.654   4.726  -3.851  0.00  0.00    +0.038 A 
ATOM     15  C   UNL     1       4.685   5.636  -3.617  0.00  0.00    +0.015 A 
ATOM     16  C   UNL     1       5.031   6.587  -4.574  0.00  0.00    +0.058 A 
ATOM     17 CL   UNL     1       5.193   8.294  -4.144  0.00  0.00    -0.082 Cl
ATOM     18  C   UNL     1       4.773   6.191  -5.884  0.00  0.00    +0.010 A 
ATOM     19  C   UNL     1       1.440   5.208  -7.417  0.00  0.00    +0.014 A 
ATOM     20  C   UNL     1       3.262   6.297  -8.269  0.00  0.00    +0.077 C 
ENDROOT
TORSDOF 0
ENDMDL
MODEL 7
REMARK VINA RESULT:      -7.6      2.523      3.944
REMARK  Name = 
REMARK  0 active torsions:
REMARK  status: ('A' for Active; 'I' for Inactive)
REMARK                            x       y       z     vdW  Elec       q    Type
REMARK                         _______ _______ _______ _____ _____    ______ ____
ROOT
ATOM      1  C   UNL     1       1.448   7.016   0.285  0.00  0.00    +0.090 C 
ATOM      2  N   UNL     1       1.302   6.180  -0.717  0.00  0.00    -0.271 NA
ATOM      3  C   UNL     1       2.448   5.457  -1.021  0.00  0.00    +0.077 C 
ATOM      4  C   UNL     1       2.266   5.029  -2.592  0.00  0.00    +0.047 C 
ATOM      5  C   UNL     1       0.547   5.157  -2.498  0.00  0.00    +0.047 C 
ATOM      6  C   UNL     1       0.266   5.668  -3.990  0.00  0.00    +0.015 A 
ATOM      7  C   UNL     1       0.880   5.145  -5.121  0.00  0.00    +0.141 A 
ATOM      8  O   UNL     1       2.144   5.711  -5.379  0.00  0.00    -0.454 OA
ATOM      9  C   UNL     1       2.998   6.403  -4.495  0.00  0.00    +0.141 A 
ATOM     10  C   UNL     1       4.000   7.115  -5.051  0.00  0.00    +0.037 A 
ATOM     11  C   UNL     1       4.852   7.787  -4.182  0.00  0.00    +0.003 A 
ATOM     12  C   UNL     1       4.382   8.070  -2.906  0.00  0.00    -0.000 A 
ATOM     13  C   UNL     1       3.540   7.096  -2.379  0.00  0.00    -0.001 A 
ATOM     14  C   UNL     1       0.083   5.019  -6.252  0.00  0.00    +0.038 A 
ATOM     15  C   UNL     1      -1.267   5.364  -6.208  0.00  0.00    +0.015 A 
ATOM     16  C   UNL     1      -1.789   6.076  -5.130  0.00  0.00    +0.058 A 
ATOM     17 CL   UNL     1      -2.778   7.520  -5.386  0.00  0.00    -0.082 Cl
ATOM     18  C   UNL     1      -1.113   5.864  -3.931  0.00  0.00    +0.010 A 
ATOM     19  C   UNL     1       2.550   6.514  -3.166  0.00  0.00    +0.014 A 
ATOM     20  C   UNL     1       0.659   6.684  -1.890  0.00  0.00    +0.077 C 
ENDROOT
TORSDOF 0
ENDMDL
MODEL 8
REMARK VINA RESULT:      -7.5      3.089      4.636
REMARK  Name = 
REMARK  0 active torsions:
REMARK  status: ('A' for Active; 'I' for Inactive)
REMARK                            x       y       z     vdW  Elec       q    Type
REMARK                         _______ _______ _______ _____ _____    ______ ____
ROOT
ATOM      1  C   UNL     1       5.343   7.169 -11.130  0.00  0.00    +0.090 C 
ATOM      2  N   UNL     1       5.047   6.223 -10.269  0.00  0.00    -0.271 NA
ATOM      3  C   UNL     1       4.312   5.176 -10.810  0.00  0.00    +0.077 C 
ATOM      4  C   UNL     1       3.527   4.514  -9.534  0.00  0.00    +0.047 C 
ATOM      5  C   UNL     1       4.699   5.111  -8.417  0.00  0.00    +0.047 C 
ATOM      6  C   UNL     1       3.727   5.377  -7.172  0.00  0.00    +0.015 A 
ATOM      7  C   UNL     1       2.732   4.499  -6.759  0.00  0.00    +0.141 A 
ATOM      8  O   UNL     1       1.528   4.647  -7.476  0.00  0.00    -0.454 OA
ATOM      9  C   UNL     1       1.319   5.245  -8.735  0.00  0.00    +0.141 A 
ATOM     10  C   UNL     1       0.044   5.542  -9.063  0.00  0.00    +0.037 A 
ATOM     11  C   UNL     1      -0.167   6.118 -10.310  0.00  0.00    +0.003 A 
ATOM     12  C   UNL     1       0.906   6.760 -10.916  0.00  0.00    -0.000 A 
ATOM     13  C   UNL     1       2.140   6.168 -10.666  0.00  0.00    -0.001 A 
ATOM     14  C   UNL     1       2.554   4.372  -5.387  0.00  0.00    +0.038 A 
ATOM     15  C   UNL     1       3.375   5.065  -4.499  0.00  0.00    +0.015 A 
ATOM     16  C   UNL     1       4.211   6.087  -4.947  0.00  0.00    +0.058 A 
ATOM     17 CL   UNL     1       4.231   7.663  -4.145  0.00  0.00    -0.082 Cl
ATOM     18  C   UNL     1       4.626   5.940  -6.268  0.00  0.00    +0.010 A 
ATOM     19  C   UNL     1       2.469   5.729  -9.387  0.00  0.00    +0.014 A 
ATOM     20  C   UNL     1       4.531   6.641  -9.003  0.00  0.00    +0.077 C 
ENDROOT
TORSDOF 0
ENDMDL
MODEL 9
REMARK VINA RESULT:      -7.5      2.782      4.629
REMARK  Name = 
REMARK  0 active torsions:
REMARK  status: ('A' for Active; 'I' for Inactive)
REMARK                            x       y       z     vdW  Elec       q    Type
REMARK                         _______ _______ _______ _____ _____    ______ ____
ROOT
ATOM      1  C   UNL     1      -0.942   4.870  -6.378  0.00  0.00    +0.090 C 
ATOM      2  N   UNL     1      -0.045   5.781  -6.079  0.00  0.00    -0.271 NA
ATOM      3  C   UNL     1       0.401   6.515  -7.170  0.00  0.00    +0.077 C 
ATOM      4  C   UNL     1       1.881   7.061  -6.727  0.00  0.00    +0.047 C 
ATOM      5  C   UNL     1       1.498   6.941  -5.049  0.00  0.00    +0.047 C 
ATOM      6  C   UNL     1       2.951   6.547  -4.501  0.00  0.00    +0.015 A 
ATOM      7  C   UNL     1       4.131   7.148  -4.921  0.00  0.00    +0.141 A 
ATOM      8  O   UNL     1       4.646   6.592  -6.109  0.00  0.00    -0.454 OA
ATOM      9  C   UNL     1       3.978   5.829  -7.088  0.00  0.00    +0.141 A 
ATOM     10  C   UNL     1       4.750   5.152  -7.963  0.00  0.00    +0.037 A 
ATOM     11  C   UNL     1       4.095   4.410  -8.938  0.00  0.00    +0.003 A 
ATOM     12  C   UNL     1       2.780   4.035  -8.690  0.00  0.00    -0.000 A 
ATOM     13  C   UNL     1       2.045   4.973  -7.974  0.00  0.00    -0.001 A 
ATOM     14  C   UNL     1       5.093   7.366  -3.943  0.00  0.00    +0.038 A 
ATOM     15  C   UNL     1       4.839   7.030  -2.614  0.00  0.00    +0.015 A 
ATOM     16  C   UNL     1       3.741   6.243  -2.272  0.00  0.00    +0.058 A 
ATOM     17 CL   UNL     1       3.925   4.831  -1.223  0.00  0.00    -0.082 Cl
ATOM     18  C   UNL     1       2.667   6.359  -3.150  0.00  0.00    +0.010 A 
ATOM     19  C   UNL     1       2.602   5.621  -6.875  0.00  0.00    +0.014 A 
ATOM     20  C   UNL     1       1.032   5.372  -5.231  0.00  0.00    +0.077 C 
ENDROOT
TORSDOF 0
ENDMDL
