MODEL 1
REMARK VINA RESULT:     -10.0      0.000      0.000
REMARK  Name = 
REMARK  6 active torsions:
REMARK  status: ('A' for Active; 'I' for Inactive)
REMARK    1  A    between atoms: C_4  and  C_5
REMARK    2  A    between atoms: C_15  and  C_16
REMARK    3  A    between atoms: C_16  and  C_18
REMARK    4  A    between atoms: C_18  and  C_19
REMARK    5  A    between atoms: C_19  and  C_20
REMARK    6  A    between atoms: C_20  and  C_21
REMARK                            x       y       z     vdW  Elec       q    Type
REMARK                         _______ _______ _______ _____ _____    ______ ____
ROOT
ATOM      1  C   UNL     1       3.275   5.955  -9.806  0.00  0.00    -0.009 C 
ATOM      2  C   UNL     1       2.967   5.443  -8.596  0.00  0.00    -0.045 C 
ATOM      3  C   UNL     1       2.076   6.531  -7.807  0.00  0.00    +0.018 C 
ATOM      4  C   UNL     1       2.814   6.368  -6.356  0.00  0.00    +0.004 C 
ATOM      5  C   UNL     1       1.653   6.590  -5.384  0.00  0.00    +0.000 C 
ATOM      6  C   UNL     1       0.402   6.773  -6.406  0.00  0.00    +0.000 C 
ATOM      7  C   UNL     1       0.905   5.503  -7.269  0.00  0.00    +0.003 C 
ATOM      8  C   UNL     1       1.463   4.459  -6.522  0.00  0.00    +0.000 C 
ATOM      9  C   UNL     1       0.174   5.388  -8.523  0.00  0.00    +0.001 C 
ATOM     10  C   UNL     1       0.907   4.354  -9.287  0.00  0.00    +0.004 C 
ATOM     11  C   UNL     1       2.332   4.124  -8.866  0.00  0.00    +0.022 C 
ENDROOT
BRANCH   1  21
ATOM     12  C   UNL     1       5.035   7.542 -10.236  0.00  0.00    -0.002 C 
ATOM     13  C   UNL     1       5.504   6.960 -10.980  0.00  0.00    +0.004 C 
ATOM     14  C   UNL     1       6.080   7.569 -12.375  0.00  0.00    +0.176 C 
ATOM     15  O   UNL     1       6.630   8.813 -11.687  0.00  0.00    -0.218 OA
ATOM     16  C   UNL     1       7.508   6.763 -12.225  0.00  0.00    +0.071 C 
ATOM     17  C   UNL     1       7.060   5.231 -11.811  0.00  0.00    +0.159 C 
ATOM     18  O   UNL     1       7.809   4.653 -13.002  0.00  0.00    -0.223 OA
ATOM     19  C   UNL     1       5.631   5.198 -12.650  0.00  0.00    +0.059 C 
ATOM     20  C   UNL     1       4.799   5.782 -11.544  0.00  0.00    -0.021 C 
ATOM     21  C   UNL     1       4.070   5.091 -10.702  0.00  0.00    -0.005 C 
ENDBRANCH   1  21
BRANCH   6  22
ATOM     22  C   UNL     1      -0.829   6.043  -5.475  0.00  0.00    +0.000 C 
ATOM     23  C   UNL     1      -2.031   6.010  -6.560  0.00  0.00    +0.000 C 
BRANCH  22  24
ATOM     24  C   UNL     1      -1.412   7.372  -4.740  0.00  0.00    +0.000 C 
BRANCH  24  25
ATOM     25  C   UNL     1      -2.406   6.805  -3.781  0.00  0.00    +0.003 C 
BRANCH  25  26
ATOM     26  C   UNL     1      -1.828   7.192  -2.423  0.00  0.00    +0.030 C 
BRANCH  26  27
ATOM     27  C   UNL     1      -1.582   5.911  -1.670  0.00  0.00    +0.127 C 
ATOM     28  O   UNL     1      -2.524   4.925  -1.952  0.00  0.00    -0.226 OA
ATOM     29  C   UNL     1      -0.191   5.380  -1.899  0.00  0.00    +0.033 C 
ATOM     30  C   UNL     1      -1.753   6.285  -0.200  0.00  0.00    +0.033 C 
ENDBRANCH  26  27
ENDBRANCH  25  26
ENDBRANCH  24  25
ENDBRANCH  22  24
ENDBRANCH   6  22
TORSDOF 6
ENDMDL
MODEL 2
REMARK VINA RESULT:      -9.8      1.448      2.559
REMARK  Name = 
REMARK  6 active torsions:
REMARK  status: ('A' for Active; 'I' for Inactive)
REMARK    1  A    between atoms: C_4  and  C_5
REMARK    2  A    between atoms: C_15  and  C_16
REMARK    3  A    between atoms: C_16  and  C_18
REMARK    4  A    between atoms: C_18  and  C_19
REMARK    5  A    between atoms: C_19  and  C_20
REMARK    6  A    between atoms: C_20  and  C_21
REMARK                            x       y       z     vdW  Elec       q    Type
REMARK                         _______ _______ _______ _____ _____    ______ ____
ROOT
ATOM      1  C   UNL     1       4.002   4.975  -9.169  0.00  0.00    -0.009 C 
ATOM      2  C   UNL     1       2.806   5.067  -8.550  0.00  0.00    -0.045 C 
ATOM      3  C   UNL     1       3.048   4.872  -6.968  0.00  0.00    +0.018 C 
ATOM      4  C   UNL     1       1.765   3.895  -6.698  0.00  0.00    +0.004 C 
ATOM      5  C   UNL     1       1.339   4.315  -5.289  0.00  0.00    +0.000 C 
ATOM      6  C   UNL     1       2.383   5.521  -4.979  0.00  0.00    +0.000 C 
ATOM      7  C   UNL     1       2.128   6.138  -6.450  0.00  0.00    +0.003 C 
ATOM      8  C   UNL     1       0.816   6.027  -6.923  0.00  0.00    +0.000 C 
ATOM      9  C   UNL     1       3.082   7.194  -6.758  0.00  0.00    +0.001 C 
ATOM     10  C   UNL     1       2.878   7.471  -8.197  0.00  0.00    +0.004 C 
ATOM     11  C   UNL     1       2.228   6.368  -8.985  0.00  0.00    +0.022 C 
ENDROOT
BRANCH   1  21
ATOM     12  C   UNL     1       6.297   5.682  -9.367  0.00  0.00    -0.002 C 
ATOM     13  C   UNL     1       6.225   5.941 -10.387  0.00  0.00    +0.004 C 
ATOM     14  C   UNL     1       6.880   7.287 -11.027  0.00  0.00    +0.176 C 
ATOM     15  O   UNL     1       8.147   7.153 -10.190  0.00  0.00    -0.218 OA
ATOM     16  C   UNL     1       7.537   6.458 -12.289  0.00  0.00    +0.071 C 
ATOM     17  C   UNL     1       6.308   5.493 -12.814  0.00  0.00    +0.159 C 
ATOM     18  O   UNL     1       6.406   6.071 -14.218  0.00  0.00    -0.223 OA
ATOM     19  C   UNL     1       5.062   6.520 -12.442  0.00  0.00    +0.059 C 
ATOM     20  C   UNL     1       4.891   6.034 -11.030  0.00  0.00    -0.021 C 
ATOM     21  C   UNL     1       4.000   5.159 -10.635  0.00  0.00    -0.005 C 
ENDBRANCH   1  21
BRANCH   6  22
ATOM     22  C   UNL     1       1.373   6.532  -4.043  0.00  0.00    +0.000 C 
ATOM     23  C   UNL     1       2.483   7.299  -3.147  0.00  0.00    +0.000 C 
BRANCH  22  24
ATOM     24  C   UNL     1       1.006   5.488  -2.851  0.00  0.00    +0.000 C 
BRANCH  24  25
ATOM     25  C   UNL     1      -0.187   6.124  -2.217  0.00  0.00    +0.003 C 
BRANCH  25  26
ATOM     26  C   UNL     1      -1.031   6.538  -3.419  0.00  0.00    +0.030 C 
BRANCH  26  27
ATOM     27  C   UNL     1      -2.358   5.837  -3.286  0.00  0.00    +0.127 C 
ATOM     28  O   UNL     1      -2.288   4.683  -2.508  0.00  0.00    -0.226 OA
ATOM     29  C   UNL     1      -3.430   6.755  -2.757  0.00  0.00    +0.033 C 
ATOM     30  C   UNL     1      -2.711   5.399  -4.704  0.00  0.00    +0.033 C 
ENDBRANCH  26  27
ENDBRANCH  25  26
ENDBRANCH  24  25
ENDBRANCH  22  24
ENDBRANCH   6  22
TORSDOF 6
ENDMDL
MODEL 3
REMARK VINA RESULT:      -9.5      1.551      9.822
REMARK  Name = 
REMARK  6 active torsions:
REMARK  status: ('A' for Active; 'I' for Inactive)
REMARK    1  A    between atoms: C_4  and  C_5
REMARK    2  A    between atoms: C_15  and  C_16
REMARK    3  A    between atoms: C_16  and  C_18
REMARK    4  A    between atoms: C_18  and  C_19
REMARK    5  A    between atoms: C_19  and  C_20
REMARK    6  A    between atoms: C_20  and  C_21
REMARK                            x       y       z     vdW  Elec       q    Type
REMARK                         _______ _______ _______ _____ _____    ______ ____
ROOT
ATOM      1  C   UNL     1       1.207   5.962  -5.911  0.00  0.00    -0.009 C 
ATOM      2  C   UNL     1       1.633   5.280  -6.995  0.00  0.00    -0.045 C 
ATOM      3  C   UNL     1       2.334   6.329  -7.999  0.00  0.00    +0.018 C 
ATOM      4  C   UNL     1       1.676   5.745  -9.377  0.00  0.00    +0.004 C 
ATOM      5  C   UNL     1       2.802   5.973 -10.388  0.00  0.00    +0.000 C 
ATOM      6  C   UNL     1       3.973   6.582  -9.438  0.00  0.00    +0.000 C 
ATOM      7  C   UNL     1       3.684   5.443  -8.329  0.00  0.00    +0.003 C 
ATOM      8  C   UNL     1       3.343   4.187  -8.841  0.00  0.00    +0.000 C 
ATOM      9  C   UNL     1       4.391   5.719  -7.086  0.00  0.00    +0.001 C 
ATOM     10  C   UNL     1       3.836   4.746  -6.120  0.00  0.00    +0.004 C 
ATOM     11  C   UNL     1       2.487   4.181  -6.468  0.00  0.00    +0.022 C 
ENDROOT
BRANCH   1  21
ATOM     12  C   UNL     1      -0.596   7.499  -5.474  0.00  0.00    -0.002 C 
ATOM     13  C   UNL     1      -0.953   6.984  -4.626  0.00  0.00    +0.004 C 
ATOM     14  C   UNL     1      -1.425   7.718  -3.253  0.00  0.00    +0.176 C 
ATOM     15  O   UNL     1      -2.114   8.847  -4.011  0.00  0.00    -0.218 OA
ATOM     16  C   UNL     1      -2.810   6.832  -3.166  0.00  0.00    +0.071 C 
ATOM     17  C   UNL     1      -2.312   5.286  -3.455  0.00  0.00    +0.159 C 
ATOM     18  O   UNL     1      -2.905   4.811  -2.137  0.00  0.00    -0.223 OA
ATOM     19  C   UNL     1      -0.809   5.419  -2.771  0.00  0.00    +0.059 C 
ATOM     20  C   UNL     1      -0.127   5.913  -4.015  0.00  0.00    -0.021 C 
ATOM     21  C   UNL     1       0.557   5.168  -4.848  0.00  0.00    -0.005 C 
ENDBRANCH   1  21
BRANCH   6  22
ATOM     22  C   UNL     1       5.339   5.915 -10.216  0.00  0.00    +0.000 C 
ATOM     23  C   UNL     1       6.418   5.980  -9.010  0.00  0.00    +0.000 C 
BRANCH  22  24
ATOM     24  C   UNL     1       5.914   7.263 -10.920  0.00  0.00    +0.000 C 
BRANCH  24  25
ATOM     25  C   UNL     1       7.062   6.748 -11.722  0.00  0.00    +0.003 C 
BRANCH  25  26
ATOM     26  C   UNL     1       6.679   7.128 -13.149  0.00  0.00    +0.030 C 
BRANCH  26  27
ATOM     27  C   UNL     1       6.499   5.842 -13.913  0.00  0.00    +0.127 C 
ATOM     28  O   UNL     1       7.375   4.840 -13.502  0.00  0.00    -0.226 OA
ATOM     29  C   UNL     1       5.078   5.345 -13.854  0.00  0.00    +0.033 C 
ATOM     30  C   UNL     1       6.863   6.191 -15.353  0.00  0.00    +0.033 C 
ENDBRANCH  26  27
ENDBRANCH  25  26
ENDBRANCH  24  25
ENDBRANCH  22  24
ENDBRANCH   6  22
TORSDOF 6
ENDMDL
MODEL 4
REMARK VINA RESULT:      -9.4      1.617      9.819
REMARK  Name = 
REMARK  6 active torsions:
REMARK  status: ('A' for Active; 'I' for Inactive)
REMARK    1  A    between atoms: C_4  and  C_5
REMARK    2  A    between atoms: C_15  and  C_16
REMARK    3  A    between atoms: C_16  and  C_18
REMARK    4  A    between atoms: C_18  and  C_19
REMARK    5  A    between atoms: C_19  and  C_20
REMARK    6  A    between atoms: C_20  and  C_21
REMARK                            x       y       z     vdW  Elec       q    Type
REMARK                         _______ _______ _______ _____ _____    ______ ____
ROOT
ATOM      1  C   UNL     1       0.746   6.883  -5.255  0.00  0.00    -0.009 C 
ATOM      2  C   UNL     1       0.843   6.424  -6.521  0.00  0.00    -0.045 C 
ATOM      3  C   UNL     1       2.286   6.857  -7.098  0.00  0.00    +0.018 C 
ATOM      4  C   UNL     1       1.768   7.319  -8.579  0.00  0.00    +0.004 C 
ATOM      5  C   UNL     1       2.950   6.920  -9.466  0.00  0.00    +0.000 C 
ATOM      6  C   UNL     1       3.944   6.218  -8.388  0.00  0.00    +0.000 C 
ATOM      7  C   UNL     1       2.701   5.403  -7.754  0.00  0.00    +0.003 C 
ATOM      8  C   UNL     1       1.738   4.977  -8.674  0.00  0.00    +0.000 C 
ATOM      9  C   UNL     1       3.075   4.743  -6.511  0.00  0.00    +0.001 C 
ATOM     10  C   UNL     1       1.795   4.263  -5.944  0.00  0.00    +0.004 C 
ATOM     11  C   UNL     1       0.562   4.964  -6.442  0.00  0.00    +0.022 C 
ENDROOT
BRANCH   1  21
ATOM     12  C   UNL     1       1.740   6.633  -3.075  0.00  0.00    -0.002 C 
ATOM     13  C   UNL     1       0.864   6.266  -2.617  0.00  0.00    +0.004 C 
ATOM     14  C   UNL     1       0.843   5.023  -1.567  0.00  0.00    +0.176 C 
ATOM     15  O   UNL     1       2.124   5.488  -0.883  0.00  0.00    -0.218 OA
ATOM     16  C   UNL     1      -0.110   5.840  -0.501  0.00  0.00    +0.071 C 
ATOM     17  C   UNL     1      -1.299   6.484  -1.444  0.00  0.00    +0.159 C 
ATOM     18  O   UNL     1      -2.376   5.804  -0.612  0.00  0.00    -0.223 OA
ATOM     19  C   UNL     1      -1.354   5.271  -2.571  0.00  0.00    +0.059 C 
ATOM     20  C   UNL     1      -0.286   5.847  -3.457  0.00  0.00    -0.021 C 
ATOM     21  C   UNL     1      -0.502   6.561  -4.534  0.00  0.00    -0.005 C 
ENDBRANCH   1  21
BRANCH   6  22
ATOM     22  C   UNL     1       4.628   5.010  -9.383  0.00  0.00    +0.000 C 
ATOM     23  C   UNL     1       6.032   4.765  -8.615  0.00  0.00    +0.000 C 
BRANCH  22  24
ATOM     24  C   UNL     1       5.310   5.966 -10.508  0.00  0.00    +0.000 C 
BRANCH  24  25
ATOM     25  C   UNL     1       6.770   5.744 -10.283  0.00  0.00    +0.003 C 
BRANCH  25  26
ATOM     26  C   UNL     1       7.417   6.690 -11.289  0.00  0.00    +0.030 C 
BRANCH  26  27
ATOM     27  C   UNL     1       7.937   5.840 -12.419  0.00  0.00    +0.127 C 
ATOM     28  O   UNL     1       7.646   4.487 -12.261  0.00  0.00    -0.226 OA
ATOM     29  C   UNL     1       7.446   6.322 -13.760  0.00  0.00    +0.033 C 
ATOM     30  C   UNL     1       9.454   5.982 -12.347  0.00  0.00    +0.033 C 
ENDBRANCH  26  27
ENDBRANCH  25  26
ENDBRANCH  24  25
ENDBRANCH  22  24
ENDBRANCH   6  22
TORSDOF 6
ENDMDL
MODEL 5
REMARK VINA RESULT:      -9.3      1.534      9.274
REMARK  Name = 
REMARK  6 active torsions:
REMARK  status: ('A' for Active; 'I' for Inactive)
REMARK    1  A    between atoms: C_4  and  C_5
REMARK    2  A    between atoms: C_15  and  C_16
REMARK    3  A    between atoms: C_16  and  C_18
REMARK    4  A    between atoms: C_18  and  C_19
REMARK    5  A    between atoms: C_19  and  C_20
REMARK    6  A    between atoms: C_20  and  C_21
REMARK                            x       y       z     vdW  Elec       q    Type
REMARK                         _______ _______ _______ _____ _____    ______ ____
ROOT
ATOM      1  C   UNL     1       0.964   4.751  -6.122  0.00  0.00    -0.009 C 
ATOM      2  C   UNL     1       2.134   5.097  -6.700  0.00  0.00    -0.045 C 
ATOM      3  C   UNL     1       2.056   4.698  -8.260  0.00  0.00    +0.018 C 
ATOM      4  C   UNL     1       3.563   4.074  -8.374  0.00  0.00    +0.004 C 
ATOM      5  C   UNL     1       3.958   4.459  -9.802  0.00  0.00    +0.000 C 
ATOM      6  C   UNL     1       2.660   5.313 -10.280  0.00  0.00    +0.000 C 
ATOM      7  C   UNL     1       2.649   6.108  -8.874  0.00  0.00    +0.003 C 
ATOM      8  C   UNL     1       3.911   6.392  -8.341  0.00  0.00    +0.000 C 
ATOM      9  C   UNL     1       1.436   6.899  -8.718  0.00  0.00    +0.001 C 
ATOM     10  C   UNL     1       1.466   7.353  -7.310  0.00  0.00    +0.004 C 
ATOM     11  C   UNL     1       2.326   6.539  -6.384  0.00  0.00    +0.022 C 
ENDROOT
BRANCH   1  21
ATOM     12  C   UNL     1      -1.321   5.505  -6.223  0.00  0.00    -0.002 C 
ATOM     13  C   UNL     1      -1.347   5.853  -5.228  0.00  0.00    +0.004 C 
ATOM     14  C   UNL     1      -2.032   7.259  -4.779  0.00  0.00    +0.176 C 
ATOM     15  O   UNL     1      -3.211   7.069  -5.727  0.00  0.00    -0.218 OA
ATOM     16  C   UNL     1      -2.833   6.556  -3.524  0.00  0.00    +0.071 C 
ATOM     17  C   UNL     1      -1.686   5.623  -2.792  0.00  0.00    +0.159 C 
ATOM     18  O   UNL     1      -1.913   6.326  -1.462  0.00  0.00    -0.223 OA
ATOM     19  C   UNL     1      -0.385   6.595  -3.123  0.00  0.00    +0.059 C 
ATOM     20  C   UNL     1      -0.083   5.983  -4.462  0.00  0.00    -0.021 C 
ATOM     21  C   UNL     1       0.823   5.064  -4.685  0.00  0.00    -0.005 C 
ENDBRANCH   1  21
BRANCH   6  22
ATOM     22  C   UNL     1       3.433   6.462 -11.278  0.00  0.00    +0.000 C 
ATOM     23  C   UNL     1       2.261   6.741 -12.359  0.00  0.00    +0.000 C 
BRANCH  22  24
ATOM     24  C   UNL     1       4.225   5.445 -12.269  0.00  0.00    +0.000 C 
BRANCH  24  25
ATOM     25  C   UNL     1       5.450   6.222 -12.624  0.00  0.00    +0.003 C 
BRANCH  25  26
ATOM     26  C   UNL     1       6.573   5.372 -12.040  0.00  0.00    +0.030 C 
BRANCH  26  27
ATOM     27  C   UNL     1       7.450   6.296 -11.235  0.00  0.00    +0.127 C 
ATOM     28  O   UNL     1       8.770   6.316 -11.678  0.00  0.00    -0.226 OA
ATOM     29  C   UNL     1       6.897   7.698 -11.187  0.00  0.00    +0.033 C 
ATOM     30  C   UNL     1       7.459   5.700  -9.831  0.00  0.00    +0.033 C 
ENDBRANCH  26  27
ENDBRANCH  25  26
ENDBRANCH  24  25
ENDBRANCH  22  24
ENDBRANCH   6  22
TORSDOF 6
ENDMDL
MODEL 6
REMARK VINA RESULT:      -9.1      2.692      9.849
REMARK  Name = 
REMARK  6 active torsions:
REMARK  status: ('A' for Active; 'I' for Inactive)
REMARK    1  A    between atoms: C_4  and  C_5
REMARK    2  A    between atoms: C_15  and  C_16
REMARK    3  A    between atoms: C_16  and  C_18
REMARK    4  A    between atoms: C_18  and  C_19
REMARK    5  A    between atoms: C_19  and  C_20
REMARK    6  A    between atoms: C_20  and  C_21
REMARK                            x       y       z     vdW  Elec       q    Type
REMARK                         _______ _______ _______ _____ _____    ______ ____
ROOT
ATOM      1  C   UNL     1       1.948   6.986  -4.345  0.00  0.00    -0.009 C 
ATOM      2  C   UNL     1       1.785   6.284  -5.486  0.00  0.00    -0.045 C 
ATOM      3  C   UNL     1       2.743   6.930  -6.610  0.00  0.00    +0.018 C 
ATOM      4  C   UNL     1       1.662   6.878  -7.836  0.00  0.00    +0.004 C 
ATOM      5  C   UNL     1       2.564   6.605  -9.042  0.00  0.00    +0.000 C 
ATOM      6  C   UNL     1       4.020   6.463  -8.334  0.00  0.00    +0.000 C 
ATOM      7  C   UNL     1       3.384   5.524  -7.184  0.00  0.00    +0.003 C 
ATOM      8  C   UNL     1       2.375   4.656  -7.615  0.00  0.00    +0.000 C 
ATOM      9  C   UNL     1       4.327   5.298  -6.098  0.00  0.00    +0.001 C 
ATOM     10  C   UNL     1       3.525   4.647  -5.038  0.00  0.00    +0.004 C 
ATOM     11  C   UNL     1       2.040   4.862  -5.123  0.00  0.00    +0.022 C 
ENDROOT
BRANCH   1  21
ATOM     12  C   UNL     1       3.458   7.820  -2.664  0.00  0.00    -0.002 C 
ATOM     13  C   UNL     1       2.961   7.359  -1.856  0.00  0.00    +0.004 C 
ATOM     14  C   UNL     1       3.726   6.604  -0.634  0.00  0.00    +0.176 C 
ATOM     15  O   UNL     1       4.816   7.667  -0.567  0.00  0.00    -0.218 OA
ATOM     16  C   UNL     1       2.813   7.363   0.506  0.00  0.00    +0.071 C 
ATOM     17  C   UNL     1       1.271   7.224  -0.061  0.00  0.00    +0.159 C 
ATOM     18  O   UNL     1       0.822   6.542   1.223  0.00  0.00    -0.223 OA
ATOM     19  C   UNL     1       1.456   5.759  -0.814  0.00  0.00    +0.059 C 
ATOM     20  C   UNL     1       1.927   6.328  -2.122  0.00  0.00    -0.021 C 
ATOM     21  C   UNL     1       1.173   6.528  -3.174  0.00  0.00    -0.005 C 
ENDBRANCH   1  21
BRANCH   6  22
ATOM     22  C   UNL     1       4.711   5.278  -9.351  0.00  0.00    +0.000 C 
ATOM     23  C   UNL     1       6.275   5.442  -8.965  0.00  0.00    +0.000 C 
BRANCH  22  24
ATOM     24  C   UNL     1       4.863   6.164 -10.706  0.00  0.00    +0.000 C 
BRANCH  24  25
ATOM     25  C   UNL     1       6.333   6.121 -10.961  0.00  0.00    +0.003 C 
BRANCH  25  26
ATOM     26  C   UNL     1       6.481   6.935 -12.242  0.00  0.00    +0.030 C 
BRANCH  26  27
ATOM     27  C   UNL     1       7.176   6.052 -13.246  0.00  0.00    +0.127 C 
ATOM     28  O   UNL     1       6.682   4.750 -13.259  0.00  0.00    -0.226 OA
ATOM     29  C   UNL     1       7.135   6.636 -14.635  0.00  0.00    +0.033 C 
ATOM     30  C   UNL     1       8.621   5.977 -12.763  0.00  0.00    +0.033 C 
ENDBRANCH  26  27
ENDBRANCH  25  26
ENDBRANCH  24  25
ENDBRANCH  22  24
ENDBRANCH   6  22
TORSDOF 6
ENDMDL
MODEL 7
REMARK VINA RESULT:      -8.9      1.833      9.372
REMARK  Name = 
REMARK  6 active torsions:
REMARK  status: ('A' for Active; 'I' for Inactive)
REMARK    1  A    between atoms: C_4  and  C_5
REMARK    2  A    between atoms: C_15  and  C_16
REMARK    3  A    between atoms: C_16  and  C_18
REMARK    4  A    between atoms: C_18  and  C_19
REMARK    5  A    between atoms: C_19  and  C_20
REMARK    6  A    between atoms: C_20  and  C_21
REMARK                            x       y       z     vdW  Elec       q    Type
REMARK                         _______ _______ _______ _____ _____    ______ ____
ROOT
ATOM      1  C   UNL     1       2.561   4.880  -5.664  0.00  0.00    -0.009 C 
ATOM      2  C   UNL     1       3.327   5.357  -6.667  0.00  0.00    -0.045 C 
ATOM      3  C   UNL     1       2.729   4.803  -8.059  0.00  0.00    +0.018 C 
ATOM      4  C   UNL     1       4.163   4.428  -8.748  0.00  0.00    +0.004 C 
ATOM      5  C   UNL     1       3.894   4.733 -10.224  0.00  0.00    +0.000 C 
ATOM      6  C   UNL     1       2.376   5.312 -10.165  0.00  0.00    +0.000 C 
ATOM      7  C   UNL     1       2.760   6.226  -8.890  0.00  0.00    +0.003 C 
ATOM      8  C   UNL     1       4.052   6.763  -8.910  0.00  0.00    +0.000 C 
ATOM      9  C   UNL     1       1.576   6.817  -8.282  0.00  0.00    +0.001 C 
ATOM     10  C   UNL     1       2.062   7.403  -7.013  0.00  0.00    +0.004 C 
ATOM     11  C   UNL     1       3.351   6.835  -6.487  0.00  0.00    +0.022 C 
ENDROOT
BRANCH   1  21
ATOM     12  C   UNL     1       0.341   4.789  -4.734  0.00  0.00    -0.002 C 
ATOM     13  C   UNL     1       0.609   5.228  -3.813  0.00  0.00    +0.004 C 
ATOM     14  C   UNL     1      -0.282   6.360  -3.057  0.00  0.00    +0.176 C 
ATOM     15  O   UNL     1      -1.592   5.663  -3.406  0.00  0.00    -0.218 OA
ATOM     16  C   UNL     1      -0.171   5.587  -1.607  0.00  0.00    +0.071 C 
ATOM     17  C   UNL     1       1.427   5.201  -1.483  0.00  0.00    +0.159 C 
ATOM     18  O   UNL     1       1.540   5.943  -0.160  0.00  0.00    -0.223 OA
ATOM     19  C   UNL     1       2.023   6.510  -2.307  0.00  0.00    +0.059 C 
ATOM     20  C   UNL     1       1.936   5.877  -3.667  0.00  0.00    -0.021 C 
ATOM     21  C   UNL     1       2.930   5.301  -4.297  0.00  0.00    -0.005 C 
ENDBRANCH   1  21
BRANCH   6  22
ATOM     22  C   UNL     1       2.471   6.472 -11.414  0.00  0.00    +0.000 C 
ATOM     23  C   UNL     1       0.897   6.693 -11.723  0.00  0.00    +0.000 C 
BRANCH  22  24
ATOM     24  C   UNL     1       2.666   5.467 -12.678  0.00  0.00    +0.000 C 
BRANCH  24  25
ATOM     25  C   UNL     1       3.779   6.111 -13.438  0.00  0.00    +0.003 C 
BRANCH  25  26
ATOM     26  C   UNL     1       4.836   5.012 -13.488  0.00  0.00    +0.030 C 
BRANCH  26  27
ATOM     27  C   UNL     1       6.175   5.696 -13.586  0.00  0.00    +0.127 C 
ATOM     28  O   UNL     1       7.246   4.815 -13.452  0.00  0.00    -0.226 OA
ATOM     29  C   UNL     1       6.312   6.490 -14.860  0.00  0.00    +0.033 C 
ATOM     30  C   UNL     1       6.220   6.638 -12.386  0.00  0.00    +0.033 C 
ENDBRANCH  26  27
ENDBRANCH  25  26
ENDBRANCH  24  25
ENDBRANCH  22  24
ENDBRANCH   6  22
TORSDOF 6
ENDMDL
MODEL 8
REMARK VINA RESULT:      -8.8      2.923      4.517
REMARK  Name = 
REMARK  6 active torsions:
REMARK  status: ('A' for Active; 'I' for Inactive)
REMARK    1  A    between atoms: C_4  and  C_5
REMARK    2  A    between atoms: C_15  and  C_16
REMARK    3  A    between atoms: C_16  and  C_18
REMARK    4  A    between atoms: C_18  and  C_19
REMARK    5  A    between atoms: C_19  and  C_20
REMARK    6  A    between atoms: C_20  and  C_21
REMARK                            x       y       z     vdW  Elec       q    Type
REMARK                         _______ _______ _______ _____ _____    ______ ____
ROOT
ATOM      1  C   UNL     1       4.014   6.655  -6.490  0.00  0.00    -0.009 C 
ATOM      2  C   UNL     1       4.414   6.292  -5.254  0.00  0.00    -0.045 C 
ATOM      3  C   UNL     1       3.604   7.188  -4.185  0.00  0.00    +0.018 C 
ATOM      4  C   UNL     1       4.871   7.502  -3.199  0.00  0.00    +0.004 C 
ATOM      5  C   UNL     1       4.200   7.536  -1.824  0.00  0.00    +0.000 C 
ATOM      6  C   UNL     1       2.664   7.163  -2.201  0.00  0.00    +0.000 C 
ATOM      7  C   UNL     1       3.176   5.969  -3.161  0.00  0.00    +0.003 C 
ATOM      8  C   UNL     1       4.306   5.281  -2.705  0.00  0.00    +0.000 C 
ATOM      9  C   UNL     1       2.090   5.429  -3.966  0.00  0.00    +0.001 C 
ATOM     10  C   UNL     1       2.757   4.542  -4.944  0.00  0.00    +0.004 C 
ATOM     11  C   UNL     1       4.215   4.819  -5.183  0.00  0.00    +0.022 C 
ENDROOT
BRANCH   1  21
ATOM     12  C   UNL     1       2.466   7.405  -8.177  0.00  0.00    -0.002 C 
ATOM     13  C   UNL     1       2.831   6.762  -8.929  0.00  0.00    +0.004 C 
ATOM     14  C   UNL     1       1.877   5.931  -9.952  0.00  0.00    +0.176 C 
ATOM     15  O   UNL     1       0.916   7.103 -10.119  0.00  0.00    -0.218 OA
ATOM     16  C   UNL     1       2.765   6.378 -11.264  0.00  0.00    +0.071 C 
ATOM     17  C   UNL     1       4.326   6.130 -10.791  0.00  0.00    +0.159 C 
ATOM     18  O   UNL     1       4.574   5.204 -11.972  0.00  0.00    -0.223 OA
ATOM     19  C   UNL     1       4.039   4.838  -9.794  0.00  0.00    +0.059 C 
ATOM     20  C   UNL     1       3.758   5.660  -8.568  0.00  0.00    -0.021 C 
ATOM     21  C   UNL     1       4.622   5.923  -7.620  0.00  0.00    -0.005 C 
ENDBRANCH   1  21
BRANCH   6  22
ATOM     22  C   UNL     1       2.242   6.274  -0.805  0.00  0.00    +0.000 C 
ATOM     23  C   UNL     1       0.706   5.899  -1.155  0.00  0.00    +0.000 C 
BRANCH  22  24
ATOM     24  C   UNL     1       1.811   7.510   0.161  0.00  0.00    +0.000 C 
BRANCH  24  25
ATOM     25  C   UNL     1       0.458   7.095   0.637  0.00  0.00    +0.003 C 
BRANCH  25  26
ATOM     26  C   UNL     1       0.183   8.073   1.775  0.00  0.00    +0.030 C 
BRANCH  26  27
ATOM     27  C   UNL     1      -1.168   8.685   1.511  0.00  0.00    +0.127 C 
ATOM     28  O   UNL     1      -1.474   8.761   0.154  0.00  0.00    -0.226 OA
ATOM     29  C   UNL     1      -2.267   7.967   2.251  0.00  0.00    +0.033 C 
ATOM     30  C   UNL     1      -1.053  10.117   2.024  0.00  0.00    +0.033 C 
ENDBRANCH  26  27
ENDBRANCH  25  26
ENDBRANCH  24  25
ENDBRANCH  22  24
ENDBRANCH   6  22
TORSDOF 6
ENDMDL
MODEL 9
REMARK VINA RESULT:      -8.7      1.530      2.132
REMARK  Name = 
REMARK  6 active torsions:
REMARK  status: ('A' for Active; 'I' for Inactive)
REMARK    1  A    between atoms: C_4  and  C_5
REMARK    2  A    between atoms: C_15  and  C_16
REMARK    3  A    between atoms: C_16  and  C_18
REMARK    4  A    between atoms: C_18  and  C_19
REMARK    5  A    between atoms: C_19  and  C_20
REMARK    6  A    between atoms: C_20  and  C_21
REMARK                            x       y       z     vdW  Elec       q    Type
REMARK                         _______ _______ _______ _____ _____    ______ ____
ROOT
ATOM      1  C   UNL     1       3.377   6.087  -7.559  0.00  0.00    -0.009 C 
ATOM      2  C   UNL     1       2.774   6.070  -6.351  0.00  0.00    -0.045 C 
ATOM      3  C   UNL     1       1.273   6.632  -6.537  0.00  0.00    +0.018 C 
ATOM      4  C   UNL     1       1.254   7.572  -5.199  0.00  0.00    +0.004 C 
ATOM      5  C   UNL     1      -0.206   7.458  -4.754  0.00  0.00    +0.000 C 
ATOM      6  C   UNL     1      -0.800   6.413  -5.848  0.00  0.00    +0.000 C 
ATOM      7  C   UNL     1       0.497   5.467  -5.668  0.00  0.00    +0.003 C 
ATOM      8  C   UNL     1       1.004   5.395  -4.366  0.00  0.00    +0.000 C 
ATOM      9  C   UNL     1       0.541   4.423  -6.682  0.00  0.00    +0.001 C 
ATOM     10  C   UNL     1       1.882   3.817  -6.534  0.00  0.00    +0.004 C 
ATOM     11  C   UNL     1       2.911   4.675  -5.852  0.00  0.00    +0.022 C 
ENDROOT
BRANCH   1  21
ATOM     12  C   UNL     1       3.853   6.784  -9.815  0.00  0.00    -0.002 C 
ATOM     13  C   UNL     1       4.781   6.286  -9.871  0.00  0.00    +0.004 C 
ATOM     14  C   UNL     1       5.278   5.443 -11.171  0.00  0.00    +0.176 C 
ATOM     15  O   UNL     1       4.718   6.475 -12.143  0.00  0.00    -0.218 OA
ATOM     16  C   UNL     1       6.764   6.152 -11.158  0.00  0.00    +0.071 C 
ATOM     17  C   UNL     1       7.224   6.082  -9.576  0.00  0.00    +0.159 C 
ATOM     18  O   UNL     1       8.498   5.334  -9.943  0.00  0.00    -0.223 OA
ATOM     19  C   UNL     1       6.459   4.661  -9.198  0.00  0.00    +0.059 C 
ATOM     20  C   UNL     1       5.149   5.297  -8.828  0.00  0.00    -0.021 C 
ATOM     21  C   UNL     1       4.763   5.577  -7.608  0.00  0.00    -0.005 C 
ENDBRANCH   1  21
BRANCH   6  22
ATOM     22  C   UNL     1      -1.923   5.586  -4.864  0.00  0.00    +0.000 C 
ATOM     23  C   UNL     1      -3.027   5.169  -5.974  0.00  0.00    +0.000 C 
BRANCH  22  24
ATOM     24  C   UNL     1      -2.795   6.859  -4.349  0.00  0.00    +0.000 C 
BRANCH  24  25
ATOM     25  C   UNL     1      -3.269   6.409  -3.007  0.00  0.00    +0.003 C 
BRANCH  25  26
ATOM     26  C   UNL     1      -2.427   7.246  -2.050  0.00  0.00    +0.030 C 
BRANCH  26  27
ATOM     27  C   UNL     1      -1.737   6.285  -1.117  0.00  0.00    +0.127 C 
ATOM     28  O   UNL     1      -2.194   4.976  -1.249  0.00  0.00    -0.226 OA
ATOM     29  C   UNL     1      -0.238   6.328  -1.271  0.00  0.00    +0.033 C 
ATOM     30  C   UNL     1      -2.123   6.755   0.282  0.00  0.00    +0.033 C 
ENDBRANCH  26  27
ENDBRANCH  25  26
ENDBRANCH  24  25
ENDBRANCH  22  24
ENDBRANCH   6  22
TORSDOF 6
ENDMDL
