MODEL 1
REMARK VINA RESULT:      -3.9      0.000      0.000
REMARK  Name = 
REMARK  0 active torsions:
REMARK  status: ('A' for Active; 'I' for Inactive)
REMARK                            x       y       z     vdW  Elec       q    Type
REMARK                         _______ _______ _______ _____ _____    ______ ____
ROOT
ATOM      1  F   UNL     1       7.321   4.659 -12.422  0.00  0.00    -0.072 F 
ATOM      2  S   UNL     1       7.327   5.878 -11.461  0.00  0.00    +0.433 S 
ATOM      3  F   UNL     1       8.090   7.598  -9.911  0.00  0.00    -0.072 F 
ATOM      4  F   UNL     1       5.812   5.488 -10.256  0.00  0.00    -0.072 F 
ATOM      5  F   UNL     1       9.416   5.999 -11.769  0.00  0.00    -0.072 F 
ATOM      6  F   UNL     1       6.674   7.387 -12.080  0.00  0.00    -0.072 F 
ATOM      7  F   UNL     1       8.226   4.881  -9.471  0.00  0.00    -0.072 F 
ENDROOT
TORSDOF 0
ENDMDL
MODEL 2
REMARK VINA RESULT:      -3.9     10.487     11.839
REMARK  Name = 
REMARK  0 active torsions:
REMARK  status: ('A' for Active; 'I' for Inactive)
REMARK                            x       y       z     vdW  Elec       q    Type
REMARK                         _______ _______ _______ _____ _____    ______ ____
ROOT
ATOM      1  F   UNL     1      -3.281   7.951  -5.648  0.00  0.00    -0.072 F 
ATOM      2  S   UNL     1      -2.156   7.152  -4.937  0.00  0.00    +0.433 S 
ATOM      3  F   UNL     1      -0.742   5.311  -4.195  0.00  0.00    -0.072 F 
ATOM      4  F   UNL     1      -2.289   7.782  -3.071  0.00  0.00    -0.072 F 
ATOM      5  F   UNL     1      -2.465   5.620  -6.363  0.00  0.00    -0.072 F 
ATOM      6  F   UNL     1      -0.505   7.700  -5.190  0.00  0.00    -0.072 F 
ATOM      7  F   UNL     1      -3.448   5.535  -3.722  0.00  0.00    -0.072 F 
ENDROOT
TORSDOF 0
ENDMDL
MODEL 3
REMARK VINA RESULT:      -3.9      0.458      2.563
REMARK  Name = 
REMARK  0 active torsions:
REMARK  status: ('A' for Active; 'I' for Inactive)
REMARK                            x       y       z     vdW  Elec       q    Type
REMARK                         _______ _______ _______ _____ _____    ______ ____
ROOT
ATOM      1  F   UNL     1       6.679   7.644 -11.886  0.00  0.00    -0.072 F 
ATOM      2  S   UNL     1       6.990   6.418 -10.986  0.00  0.00    +0.433 S 
ATOM      3  F   UNL     1       8.084   4.945  -9.381  0.00  0.00    -0.072 F 
ATOM      4  F   UNL     1       6.839   4.906 -12.246  0.00  0.00    -0.072 F 
ATOM      5  F   UNL     1       8.209   7.694  -9.820  0.00  0.00    -0.072 F 
ATOM      6  F   UNL     1       5.714   5.874  -9.907  0.00  0.00    -0.072 F 
ATOM      7  F   UNL     1       9.208   5.868 -11.722  0.00  0.00    -0.072 F 
ENDROOT
TORSDOF 0
ENDMDL
MODEL 4
REMARK VINA RESULT:      -3.9      0.912      3.106
REMARK  Name = 
REMARK  0 active torsions:
REMARK  status: ('A' for Active; 'I' for Inactive)
REMARK                            x       y       z     vdW  Elec       q    Type
REMARK                         _______ _______ _______ _____ _____    ______ ____
ROOT
ATOM      1  F   UNL     1       7.394   5.141  -9.157  0.00  0.00    -0.072 F 
ATOM      2  S   UNL     1       7.401   6.237 -10.256  0.00  0.00    +0.433 S 
ATOM      3  F   UNL     1       6.648   7.801 -11.968  0.00  0.00    -0.072 F 
ATOM      4  F   UNL     1       8.838   5.630 -11.466  0.00  0.00    -0.072 F 
ATOM      5  F   UNL     1       5.336   6.503  -9.880  0.00  0.00    -0.072 F 
ATOM      6  F   UNL     1       8.152   7.773  -9.849  0.00  0.00    -0.072 F 
ATOM      7  F   UNL     1       6.364   5.062 -12.074  0.00  0.00    -0.072 F 
ENDROOT
TORSDOF 0
ENDMDL
MODEL 5
REMARK VINA RESULT:      -3.9      0.691      3.057
REMARK  Name = 
REMARK  0 active torsions:
REMARK  status: ('A' for Active; 'I' for Inactive)
REMARK                            x       y       z     vdW  Elec       q    Type
REMARK                         _______ _______ _______ _____ _____    ______ ____
ROOT
ATOM      1  F   UNL     1       8.127   7.742  -9.861  0.00  0.00    -0.072 F 
ATOM      2  S   UNL     1       7.721   6.500 -10.699  0.00  0.00    +0.433 S 
ATOM      3  F   UNL     1       6.463   5.006 -12.157  0.00  0.00    -0.072 F 
ATOM      4  F   UNL     1       7.985   5.013  -9.429  0.00  0.00    -0.072 F 
ATOM      5  F   UNL     1       6.401   7.763 -11.766  0.00  0.00    -0.072 F 
ATOM      6  F   UNL     1       8.879   5.923 -11.888  0.00  0.00    -0.072 F 
ATOM      7  F   UNL     1       5.582   5.986  -9.737  0.00  0.00    -0.072 F 
ENDROOT
TORSDOF 0
ENDMDL
MODEL 6
REMARK VINA RESULT:      -3.9      1.071      2.483
REMARK  Name = 
REMARK  0 active torsions:
REMARK  status: ('A' for Active; 'I' for Inactive)
REMARK                            x       y       z     vdW  Elec       q    Type
REMARK                         _______ _______ _______ _____ _____    ______ ____
ROOT
ATOM      1  F   UNL     1       6.543   8.136 -12.038  0.00  0.00    -0.072 F 
ATOM      2  S   UNL     1       7.102   7.038 -11.094  0.00  0.00    +0.433 S 
ATOM      3  F   UNL     1       8.227   5.028 -10.296  0.00  0.00    -0.072 F 
ATOM      4  F   UNL     1       5.537   6.586  -9.979  0.00  0.00    -0.072 F 
ATOM      5  F   UNL     1       8.438   6.508 -12.647  0.00  0.00    -0.072 F 
ATOM      6  F   UNL     1       8.118   7.569  -9.763  0.00  0.00    -0.072 F 
ATOM      7  F   UNL     1       6.089   5.075 -12.034  0.00  0.00    -0.072 F 
ENDROOT
TORSDOF 0
ENDMDL
MODEL 7
REMARK VINA RESULT:      -3.9     10.496     11.878
REMARK  Name = 
REMARK  0 active torsions:
REMARK  status: ('A' for Active; 'I' for Inactive)
REMARK                            x       y       z     vdW  Elec       q    Type
REMARK                         _______ _______ _______ _____ _____    ______ ____
ROOT
ATOM      1  F   UNL     1      -0.551   7.686  -5.205  0.00  0.00    -0.072 F 
ATOM      2  S   UNL     1      -1.836   7.051  -4.607  0.00  0.00    +0.433 S 
ATOM      3  F   UNL     1      -3.435   5.403  -3.790  0.00  0.00    -0.072 F 
ATOM      4  F   UNL     1      -3.271   7.897  -5.665  0.00  0.00    -0.072 F 
ATOM      5  F   UNL     1      -0.675   5.338  -4.165  0.00  0.00    -0.072 F 
ATOM      6  F   UNL     1      -2.381   7.661  -3.052  0.00  0.00    -0.072 F 
ATOM      7  F   UNL     1      -2.439   5.522  -6.357  0.00  0.00    -0.072 F 
ENDROOT
TORSDOF 0
ENDMDL
MODEL 8
REMARK VINA RESULT:      -3.8     10.373     11.539
REMARK  Name = 
REMARK  0 active torsions:
REMARK  status: ('A' for Active; 'I' for Inactive)
REMARK                            x       y       z     vdW  Elec       q    Type
REMARK                         _______ _______ _______ _____ _____    ______ ____
ROOT
ATOM      1  F   UNL     1      -0.575   5.199  -4.511  0.00  0.00    -0.072 F 
ATOM      2  S   UNL     1      -1.795   5.997  -5.044  0.00  0.00    +0.433 S 
ATOM      3  F   UNL     1      -3.249   7.848  -5.679  0.00  0.00    -0.072 F 
ATOM      4  F   UNL     1      -3.311   5.148  -4.108  0.00  0.00    -0.072 F 
ATOM      5  F   UNL     1      -0.500   7.655  -5.270  0.00  0.00    -0.072 F 
ATOM      6  F   UNL     1      -2.354   5.616  -6.665  0.00  0.00    -0.072 F 
ATOM      7  F   UNL     1      -2.315   7.355  -3.134  0.00  0.00    -0.072 F 
ENDROOT
TORSDOF 0
ENDMDL
MODEL 9
REMARK VINA RESULT:      -3.8     10.549     11.988
REMARK  Name = 
REMARK  0 active torsions:
REMARK  status: ('A' for Active; 'I' for Inactive)
REMARK                            x       y       z     vdW  Elec       q    Type
REMARK                         _______ _______ _______ _____ _____    ______ ____
ROOT
ATOM      1  F   UNL     1      -3.463   5.426  -3.732  0.00  0.00    -0.072 F 
ATOM      2  S   UNL     1      -2.228   6.039  -4.444  0.00  0.00    +0.433 S 
ATOM      3  F   UNL     1      -0.550   7.639  -5.195  0.00  0.00    -0.072 F 
ATOM      4  F   UNL     1      -2.450   5.422  -6.306  0.00  0.00    -0.072 F 
ATOM      5  F   UNL     1      -2.305   7.612  -3.032  0.00  0.00    -0.072 F 
ATOM      6  F   UNL     1      -0.680   5.250  -4.181  0.00  0.00    -0.072 F 
ATOM      7  F   UNL     1      -3.257   7.823  -5.677  0.00  0.00    -0.072 F 
ENDROOT
TORSDOF 0
ENDMDL
