MODEL 1
REMARK VINA RESULT:      -8.4      0.000      0.000
REMARK  Name = 
REMARK  7 active torsions:
REMARK  status: ('A' for Active; 'I' for Inactive)
REMARK    1  A    between atoms: N_2  and  C_3
REMARK    2  A    between atoms: N_2  and  C_20
REMARK    3  A    between atoms: C_3  and  C_4
REMARK    4  A    between atoms: C_4  and  O_5
REMARK    5  A    between atoms: O_5  and  C_6
REMARK    6  A    between atoms: C_9  and  C_10
REMARK    7  A    between atoms: C_10  and  C_11
REMARK                            x       y       z     vdW  Elec       q    Type
REMARK                         _______ _______ _______ _____ _____    ______ ____
ROOT
ATOM      1  C   UNL     1       3.369   6.356  -7.116  0.00  0.00    +0.139 A 
ATOM      2  C   UNL     1       2.843   6.432  -8.398  0.00  0.00    +0.037 A 
ATOM      3  C   UNL     1       3.548   5.957  -9.496  0.00  0.00    -0.001 A 
ATOM      4  C   UNL     1       4.857   5.525  -9.356  0.00  0.00    -0.021 A 
ATOM      5  C   UNL     1       5.242   5.185  -8.066  0.00  0.00    -0.001 A 
ATOM      6  C   UNL     1       4.532   5.626  -6.961  0.00  0.00    +0.037 A 
ENDROOT
BRANCH   4   7
ATOM      7  C   UNL     1       5.877   5.812 -10.389  0.00  0.00    +0.047 C 
BRANCH   7   8
ATOM      8  C   UNL     1       5.176   6.829 -11.388  0.00  0.00    +0.139 C 
ATOM      9  C   UNL     1       6.470   7.626 -11.728  0.00  0.00    +0.259 C 
ATOM     10  O   UNL     1       6.497   8.839 -11.422  0.00  0.00    -0.272 OA
ATOM     11  N   UNL     1       7.507   6.702 -11.948  0.00  0.00    -0.135 NA
ATOM     12  C   UNL     1       7.162   5.755 -12.967  0.00  0.00    +0.299 C 
ATOM     13  O   UNL     1       7.809   4.667 -13.057  0.00  0.00    -0.261 OA
ATOM     14  S   UNL     1       5.363   5.721 -12.924  0.00  0.00    -0.046 S 
ENDBRANCH   7   8
ENDBRANCH   4   7
BRANCH   1  15
ATOM     15  O   UNL     1       2.956   7.261  -6.161  0.00  0.00    -0.474 OA
BRANCH  15  16
ATOM     16  C   UNL     1       2.904   6.883  -4.786  0.00  0.00    +0.227 C 
BRANCH  16  17
ATOM     17  C   UNL     1       2.140   5.567  -4.716  0.00  0.00    +0.140 C 
BRANCH  17  19
ATOM     18  C   UNL     1       0.866   6.151  -2.872  0.00  0.00    +0.114 C 
ATOM     19  N   UNL     1       0.893   5.810  -3.996  0.00  0.00    -0.288 N 
BRANCH  19  20
ATOM     20  C   UNL     1      -0.313   5.641  -4.751  0.00  0.00    +0.132 A 
ATOM     21  N   UNL     1      -0.126   5.273  -6.043  0.00  0.00    -0.229 NA
ATOM     22  C   UNL     1      -1.222   5.182  -6.811  0.00  0.00    +0.100 A 
ATOM     23  C   UNL     1      -2.403   5.803  -6.440  0.00  0.00    +0.021 A 
ATOM     24  C   UNL     1      -2.341   6.718  -5.397  0.00  0.00    +0.004 A 
ATOM     25  C   UNL     1      -1.294   6.599  -4.519  0.00  0.00    +0.034 A 
ENDBRANCH  19  20
ENDBRANCH  17  19
ENDBRANCH  16  17
ENDBRANCH  15  16
ENDBRANCH   1  15
TORSDOF 7
ENDMDL
MODEL 2
REMARK VINA RESULT:      -8.3      3.224      8.177
REMARK  Name = 
REMARK  7 active torsions:
REMARK  status: ('A' for Active; 'I' for Inactive)
REMARK    1  A    between atoms: N_2  and  C_3
REMARK    2  A    between atoms: N_2  and  C_20
REMARK    3  A    between atoms: C_3  and  C_4
REMARK    4  A    between atoms: C_4  and  O_5
REMARK    5  A    between atoms: O_5  and  C_6
REMARK    6  A    between atoms: C_9  and  C_10
REMARK    7  A    between atoms: C_10  and  C_11
REMARK                            x       y       z     vdW  Elec       q    Type
REMARK                         _______ _______ _______ _____ _____    ______ ____
ROOT
ATOM      1  C   UNL     1       1.041   5.595 -13.344  0.00  0.00    +0.139 A 
ATOM      2  C   UNL     1       0.468   4.527 -12.669  0.00  0.00    +0.037 A 
ATOM      3  C   UNL     1      -0.027   4.672 -11.379  0.00  0.00    -0.001 A 
ATOM      4  C   UNL     1       0.168   5.852 -10.680  0.00  0.00    -0.021 A 
ATOM      5  C   UNL     1       0.463   6.966 -11.455  0.00  0.00    -0.001 A 
ATOM      6  C   UNL     1       0.929   6.839 -12.754  0.00  0.00    +0.037 A 
ENDROOT
BRANCH   4   7
ATOM      7  C   UNL     1       0.471   5.849  -9.232  0.00  0.00    +0.047 C 
BRANCH   7   8
ATOM      8  C   UNL     1       2.001   6.266  -9.131  0.00  0.00    +0.139 C 
ATOM      9  C   UNL     1       1.836   7.143  -7.854  0.00  0.00    +0.259 C 
ATOM     10  O   UNL     1       2.104   8.361  -7.953  0.00  0.00    -0.272 OA
ATOM     11  N   UNL     1       1.021   6.443  -6.946  0.00  0.00    -0.135 NA
ATOM     12  C   UNL     1       1.551   5.143  -6.656  0.00  0.00    +0.299 C 
ATOM     13  O   UNL     1       0.798   4.259  -6.146  0.00  0.00    -0.261 OA
ATOM     14  S   UNL     1       2.529   4.747  -8.114  0.00  0.00    -0.046 S 
ENDBRANCH   7   8
ENDBRANCH   4   7
BRANCH   1  15
ATOM     15  O   UNL     1       1.972   5.349 -14.331  0.00  0.00    -0.474 OA
BRANCH  15  16
ATOM     16  C   UNL     1       3.264   5.951 -14.268  0.00  0.00    +0.227 C 
BRANCH  16  17
ATOM     17  C   UNL     1       4.176   4.973 -13.539  0.00  0.00    +0.140 C 
BRANCH  17  19
ATOM     18  C   UNL     1       6.018   6.136 -14.323  0.00  0.00    +0.114 C 
ATOM     19  N   UNL     1       5.495   5.586 -13.426  0.00  0.00    -0.288 N 
BRANCH  19  20
ATOM     20  C   UNL     1       6.116   5.513 -12.136  0.00  0.00    +0.132 A 
ATOM     21  N   UNL     1       5.270   5.680 -11.090  0.00  0.00    -0.229 NA
ATOM     22  C   UNL     1       5.817   5.700  -9.865  0.00  0.00    +0.100 A 
ATOM     23  C   UNL     1       7.170   5.941  -9.698  0.00  0.00    +0.021 A 
ATOM     24  C   UNL     1       7.876   6.407 -10.799  0.00  0.00    +0.004 A 
ATOM     25  C   UNL     1       7.350   6.145 -12.038  0.00  0.00    +0.034 A 
ENDBRANCH  19  20
ENDBRANCH  17  19
ENDBRANCH  16  17
ENDBRANCH  15  16
ENDBRANCH   1  15
TORSDOF 7
ENDMDL
MODEL 3
REMARK VINA RESULT:      -8.1      3.577      9.467
REMARK  Name = 
REMARK  7 active torsions:
REMARK  status: ('A' for Active; 'I' for Inactive)
REMARK    1  A    between atoms: N_2  and  C_3
REMARK    2  A    between atoms: N_2  and  C_20
REMARK    3  A    between atoms: C_3  and  C_4
REMARK    4  A    between atoms: C_4  and  O_5
REMARK    5  A    between atoms: O_5  and  C_6
REMARK    6  A    between atoms: C_9  and  C_10
REMARK    7  A    between atoms: C_10  and  C_11
REMARK                            x       y       z     vdW  Elec       q    Type
REMARK                         _______ _______ _______ _____ _____    ______ ____
ROOT
ATOM      1  C   UNL     1       1.356   5.467  -8.229  0.00  0.00    +0.139 A 
ATOM      2  C   UNL     1       1.676   4.899  -7.005  0.00  0.00    +0.037 A 
ATOM      3  C   UNL     1       0.696   4.628  -6.058  0.00  0.00    -0.001 A 
ATOM      4  C   UNL     1      -0.608   5.050  -6.256  0.00  0.00    -0.021 A 
ATOM      5  C   UNL     1      -0.953   5.334  -7.572  0.00  0.00    -0.001 A 
ATOM      6  C   UNL     1       0.013   5.577  -8.535  0.00  0.00    +0.037 A 
ENDROOT
BRANCH   4   7
ATOM      7  C   UNL     1      -1.427   5.573  -5.140  0.00  0.00    +0.047 C 
BRANCH   7   8
ATOM      8  C   UNL     1      -0.554   6.735  -4.499  0.00  0.00    +0.139 C 
ATOM      9  C   UNL     1      -1.765   7.585  -4.013  0.00  0.00    +0.259 C 
ATOM     10  O   UNL     1      -1.896   8.732  -4.496  0.00  0.00    -0.272 OA
ATOM     11  N   UNL     1      -2.700   6.716  -3.422  0.00  0.00    -0.135 NA
ATOM     12  C   UNL     1      -2.109   5.946  -2.366  0.00  0.00    +0.299 C 
ATOM     13  O   UNL     1      -2.687   4.892  -1.961  0.00  0.00    -0.261 OA
ATOM     14  S   UNL     1      -0.364   5.894  -2.802  0.00  0.00    -0.046 S 
ENDBRANCH   7   8
ENDBRANCH   4   7
BRANCH   1  15
ATOM     15  O   UNL     1       2.309   6.203  -8.902  0.00  0.00    -0.474 OA
BRANCH  15  16
ATOM     16  C   UNL     1       2.600   5.922 -10.271  0.00  0.00    +0.227 C 
BRANCH  16  17
ATOM     17  C   UNL     1       4.082   5.577 -10.349  0.00  0.00    +0.140 C 
BRANCH  17  19
ATOM     18  C   UNL     1       3.734   5.667 -12.637  0.00  0.00    +0.114 C 
ATOM     19  N   UNL     1       4.498   5.693 -11.743  0.00  0.00    -0.288 N 
BRANCH  19  20
ATOM     20  C   UNL     1       5.901   5.877 -11.969  0.00  0.00    +0.132 A 
ATOM     21  N   UNL     1       6.385   5.249 -13.068  0.00  0.00    -0.229 NA
ATOM     22  C   UNL     1       7.708   5.325 -13.276  0.00  0.00    +0.100 A 
ATOM     23  C   UNL     1       8.569   5.665 -12.246  0.00  0.00    +0.021 A 
ATOM     24  C   UNL     1       8.051   5.672 -10.958  0.00  0.00    +0.004 A 
ATOM     25  C   UNL     1       6.694   5.823 -10.829  0.00  0.00    +0.034 A 
ENDBRANCH  19  20
ENDBRANCH  17  19
ENDBRANCH  16  17
ENDBRANCH  15  16
ENDBRANCH   1  15
TORSDOF 7
ENDMDL
MODEL 4
REMARK VINA RESULT:      -8.1      3.610      4.681
REMARK  Name = 
REMARK  7 active torsions:
REMARK  status: ('A' for Active; 'I' for Inactive)
REMARK    1  A    between atoms: N_2  and  C_3
REMARK    2  A    between atoms: N_2  and  C_20
REMARK    3  A    between atoms: C_3  and  C_4
REMARK    4  A    between atoms: C_4  and  O_5
REMARK    5  A    between atoms: O_5  and  C_6
REMARK    6  A    between atoms: C_9  and  C_10
REMARK    7  A    between atoms: C_10  and  C_11
REMARK                            x       y       z     vdW  Elec       q    Type
REMARK                         _______ _______ _______ _____ _____    ______ ____
ROOT
ATOM      1  C   UNL     1       3.884   6.167  -2.168  0.00  0.00    +0.139 A 
ATOM      2  C   UNL     1       4.380   5.056  -2.835  0.00  0.00    +0.037 A 
ATOM      3  C   UNL     1       4.737   5.120  -4.176  0.00  0.00    -0.001 A 
ATOM      4  C   UNL     1       4.473   6.259  -4.919  0.00  0.00    -0.021 A 
ATOM      5  C   UNL     1       4.264   7.419  -4.185  0.00  0.00    -0.001 A 
ATOM      6  C   UNL     1       3.937   7.373  -2.840  0.00  0.00    +0.037 A 
ENDROOT
BRANCH   4   7
ATOM      7  C   UNL     1       4.019   6.173  -6.325  0.00  0.00    +0.047 C 
BRANCH   7   8
ATOM      8  C   UNL     1       2.474   6.538  -6.281  0.00  0.00    +0.139 C 
ATOM      9  C   UNL     1       2.414   7.120  -7.725  0.00  0.00    +0.259 C 
ATOM     10  O   UNL     1       2.107   8.327  -7.847  0.00  0.00    -0.272 OA
ATOM     11  N   UNL     1       3.120   6.252  -8.576  0.00  0.00    -0.135 NA
ATOM     12  C   UNL     1       2.614   4.913  -8.502  0.00  0.00    +0.299 C 
ATOM     13  O   UNL     1       3.325   3.950  -8.920  0.00  0.00    -0.261 OA
ATOM     14  S   UNL     1       1.874   4.828  -6.863  0.00  0.00    -0.046 S 
ENDBRANCH   7   8
ENDBRANCH   4   7
BRANCH   1  15
ATOM     15  O   UNL     1       3.061   5.987  -1.076  0.00  0.00    -0.474 OA
BRANCH  15  16
ATOM     16  C   UNL     1       1.740   6.526  -1.074  0.00  0.00    +0.227 C 
BRANCH  16  17
ATOM     17  C   UNL     1       0.805   5.411  -1.525  0.00  0.00    +0.140 C 
BRANCH  17  19
ATOM     18  C   UNL     1      -0.995   6.194  -0.297  0.00  0.00    +0.114 C 
ATOM     19  N   UNL     1      -0.568   5.874  -1.344  0.00  0.00    -0.288 N 
BRANCH  19  20
ATOM     20  C   UNL     1      -1.368   5.951  -2.530  0.00  0.00    +0.132 A 
ATOM     21  N   UNL     1      -2.434   5.113  -2.549  0.00  0.00    -0.229 NA
ATOM     22  C   UNL     1      -3.167   5.091  -3.673  0.00  0.00    +0.100 A 
ATOM     23  C   UNL     1      -2.652   5.572  -4.865  0.00  0.00    +0.021 A 
ATOM     24  C   UNL     1      -1.289   5.835  -4.910  0.00  0.00    +0.004 A 
ATOM     25  C   UNL     1      -0.655   6.068  -3.717  0.00  0.00    +0.034 A 
ENDBRANCH  19  20
ENDBRANCH  17  19
ENDBRANCH  16  17
ENDBRANCH  15  16
ENDBRANCH   1  15
TORSDOF 7
ENDMDL
MODEL 5
REMARK VINA RESULT:      -8.1      5.747      9.479
REMARK  Name = 
REMARK  7 active torsions:
REMARK  status: ('A' for Active; 'I' for Inactive)
REMARK    1  A    between atoms: N_2  and  C_3
REMARK    2  A    between atoms: N_2  and  C_20
REMARK    3  A    between atoms: C_3  and  C_4
REMARK    4  A    between atoms: C_4  and  O_5
REMARK    5  A    between atoms: O_5  and  C_6
REMARK    6  A    between atoms: C_9  and  C_10
REMARK    7  A    between atoms: C_10  and  C_11
REMARK                            x       y       z     vdW  Elec       q    Type
REMARK                         _______ _______ _______ _____ _____    ______ ____
ROOT
ATOM      1  C   UNL     1      -2.274   6.015  -5.381  0.00  0.00    +0.139 A 
ATOM      2  C   UNL     1      -2.909   5.350  -4.342  0.00  0.00    +0.037 A 
ATOM      3  C   UNL     1      -3.061   5.941  -3.094  0.00  0.00    -0.001 A 
ATOM      4  C   UNL     1      -2.455   7.154  -2.813  0.00  0.00    -0.021 A 
ATOM      5  C   UNL     1      -2.095   7.915  -3.918  0.00  0.00    -0.001 A 
ATOM      6  C   UNL     1      -1.969   7.347  -5.175  0.00  0.00    +0.037 A 
ENDROOT
BRANCH   4   7
ATOM      7  C   UNL     1      -1.848   7.424  -1.491  0.00  0.00    +0.047 C 
BRANCH   7   8
ATOM      8  C   UNL     1      -1.872   6.026  -0.735  0.00  0.00    +0.139 C 
ATOM      9  C   UNL     1      -0.346   5.749  -0.879  0.00  0.00    +0.259 C 
ATOM     10  O   UNL     1      -0.004   4.738  -1.533  0.00  0.00    -0.272 OA
ATOM     11  N   UNL     1       0.345   6.936  -0.577  0.00  0.00    -0.135 NA
ATOM     12  C   UNL     1      -0.003   7.432   0.722  0.00  0.00    +0.299 C 
ATOM     13  O   UNL     1       0.246   8.640   1.019  0.00  0.00    -0.261 OA
ATOM     14  S   UNL     1      -1.651   6.766   1.005  0.00  0.00    -0.046 S 
ENDBRANCH   7   8
ENDBRANCH   4   7
BRANCH   1  15
ATOM     15  O   UNL     1      -1.665   5.284  -6.379  0.00  0.00    -0.474 OA
BRANCH  15  16
ATOM     16  C   UNL     1      -0.280   5.474  -6.667  0.00  0.00    +0.227 C 
BRANCH  16  17
ATOM     17  C   UNL     1       0.503   4.794  -5.551  0.00  0.00    +0.140 C 
BRANCH  17  19
ATOM     18  C   UNL     1       2.233   4.108  -6.930  0.00  0.00    +0.114 C 
ATOM     19  N   UNL     1       1.898   4.702  -5.972  0.00  0.00    -0.288 N 
BRANCH  19  20
ATOM     20  C   UNL     1       2.848   5.410  -5.166  0.00  0.00    +0.132 A 
ATOM     21  N   UNL     1       3.284   6.578  -5.698  0.00  0.00    -0.229 NA
ATOM     22  C   UNL     1       4.234   7.237  -5.018  0.00  0.00    +0.100 A 
ATOM     23  C   UNL     1       5.003   6.587  -4.067  0.00  0.00    +0.021 A 
ATOM     24  C   UNL     1       4.932   5.201  -4.027  0.00  0.00    +0.004 A 
ATOM     25  C   UNL     1       3.810   4.616  -4.552  0.00  0.00    +0.034 A 
ENDBRANCH  19  20
ENDBRANCH  17  19
ENDBRANCH  16  17
ENDBRANCH  15  16
ENDBRANCH   1  15
TORSDOF 7
ENDMDL
MODEL 6
REMARK VINA RESULT:      -8.1      3.945      6.116
REMARK  Name = 
REMARK  7 active torsions:
REMARK  status: ('A' for Active; 'I' for Inactive)
REMARK    1  A    between atoms: N_2  and  C_3
REMARK    2  A    between atoms: N_2  and  C_20
REMARK    3  A    between atoms: C_3  and  C_4
REMARK    4  A    between atoms: C_4  and  O_5
REMARK    5  A    between atoms: O_5  and  C_6
REMARK    6  A    between atoms: C_9  and  C_10
REMARK    7  A    between atoms: C_10  and  C_11
REMARK                            x       y       z     vdW  Elec       q    Type
REMARK                         _______ _______ _______ _____ _____    ______ ____
ROOT
ATOM      1  C   UNL     1      -2.580   6.576  -4.477  0.00  0.00    +0.139 A 
ATOM      2  C   UNL     1      -1.631   7.586  -4.430  0.00  0.00    +0.037 A 
ATOM      3  C   UNL     1      -0.485   7.535  -5.213  0.00  0.00    -0.001 A 
ATOM      4  C   UNL     1      -0.192   6.403  -5.956  0.00  0.00    -0.021 A 
ATOM      5  C   UNL     1      -1.266   5.562  -6.217  0.00  0.00    -0.001 A 
ATOM      6  C   UNL     1      -2.428   5.621  -5.464  0.00  0.00    +0.037 A 
ENDROOT
BRANCH   4   7
ATOM      7  C   UNL     1       1.195   5.904  -6.087  0.00  0.00    +0.047 C 
BRANCH   7   8
ATOM      8  C   UNL     1       1.569   6.126  -7.616  0.00  0.00    +0.139 C 
ATOM      9  C   UNL     1       2.440   7.395  -7.377  0.00  0.00    +0.259 C 
ATOM     10  O   UNL     1       2.061   8.463  -7.909  0.00  0.00    -0.272 OA
ATOM     11  N   UNL     1       3.265   7.156  -6.263  0.00  0.00    -0.135 NA
ATOM     12  C   UNL     1       4.054   5.972  -6.437  0.00  0.00    +0.299 C 
ATOM     13  O   UNL     1       4.584   5.419  -5.426  0.00  0.00    -0.261 OA
ATOM     14  S   UNL     1       3.090   4.984  -7.591  0.00  0.00    -0.046 S 
ENDBRANCH   7   8
ENDBRANCH   4   7
BRANCH   1  15
ATOM     15  O   UNL     1      -3.384   6.353  -3.379  0.00  0.00    -0.474 OA
BRANCH  15  16
ATOM     16  C   UNL     1      -2.938   6.721  -2.074  0.00  0.00    +0.227 C 
BRANCH  16  17
ATOM     17  C   UNL     1      -2.143   5.542  -1.527  0.00  0.00    +0.140 C 
BRANCH  17  19
ATOM     18  C   UNL     1      -1.448   6.680   0.366  0.00  0.00    +0.114 C 
ATOM     19  N   UNL     1      -1.153   6.063  -0.590  0.00  0.00    -0.288 N 
BRANCH  19  20
ATOM     20  C   UNL     1       0.215   5.751  -0.881  0.00  0.00    +0.132 A 
ATOM     21  N   UNL     1       1.123   6.504  -0.212  0.00  0.00    -0.229 NA
ATOM     22  C   UNL     1       2.415   6.304  -0.512  0.00  0.00    +0.100 A 
ATOM     23  C   UNL     1       2.780   5.678  -1.692  0.00  0.00    +0.021 A 
ATOM     24  C   UNL     1       1.792   5.501  -2.652  0.00  0.00    +0.004 A 
ATOM     25  C   UNL     1       0.491   5.498  -2.220  0.00  0.00    +0.034 A 
ENDBRANCH  19  20
ENDBRANCH  17  19
ENDBRANCH  16  17
ENDBRANCH  15  16
ENDBRANCH   1  15
TORSDOF 7
ENDMDL
MODEL 7
REMARK VINA RESULT:      -7.8      1.548      2.402
REMARK  Name = 
REMARK  7 active torsions:
REMARK  status: ('A' for Active; 'I' for Inactive)
REMARK    1  A    between atoms: N_2  and  C_3
REMARK    2  A    between atoms: N_2  and  C_20
REMARK    3  A    between atoms: C_3  and  C_4
REMARK    4  A    between atoms: C_4  and  O_5
REMARK    5  A    between atoms: O_5  and  C_6
REMARK    6  A    between atoms: C_9  and  C_10
REMARK    7  A    between atoms: C_10  and  C_11
REMARK                            x       y       z     vdW  Elec       q    Type
REMARK                         _______ _______ _______ _____ _____    ______ ____
ROOT
ATOM      1  C   UNL     1       2.000   5.383  -8.400  0.00  0.00    +0.139 A 
ATOM      2  C   UNL     1       3.001   4.444  -8.197  0.00  0.00    +0.037 A 
ATOM      3  C   UNL     1       4.310   4.688  -8.593  0.00  0.00    -0.001 A 
ATOM      4  C   UNL     1       4.621   5.818  -9.331  0.00  0.00    -0.021 A 
ATOM      5  C   UNL     1       3.697   6.854  -9.261  0.00  0.00    -0.001 A 
ATOM      6  C   UNL     1       2.396   6.632  -8.839  0.00  0.00    +0.037 A 
ENDROOT
BRANCH   4   7
ATOM      7  C   UNL     1       5.608   5.773 -10.432  0.00  0.00    +0.047 C 
BRANCH   7   8
ATOM      8  C   UNL     1       5.067   6.805 -11.512  0.00  0.00    +0.139 C 
ATOM      9  C   UNL     1       6.410   7.579 -11.669  0.00  0.00    +0.259 C 
ATOM     10  O   UNL     1       6.416   8.790 -11.356  0.00  0.00    -0.272 OA
ATOM     11  N   UNL     1       7.451   6.637 -11.751  0.00  0.00    -0.135 NA
ATOM     12  C   UNL     1       7.230   5.699 -12.812  0.00  0.00    +0.299 C 
ATOM     13  O   UNL     1       7.864   4.600 -12.819  0.00  0.00    -0.261 OA
ATOM     14  S   UNL     1       5.442   5.698 -13.014  0.00  0.00    -0.046 S 
ENDBRANCH   7   8
ENDBRANCH   4   7
BRANCH   1  15
ATOM     15  O   UNL     1       0.692   4.963  -8.513  0.00  0.00    -0.474 OA
BRANCH  15  16
ATOM     16  C   UNL     1      -0.344   5.634  -7.798  0.00  0.00    +0.227 C 
BRANCH  16  17
ATOM     17  C   UNL     1      -0.312   5.107  -6.370  0.00  0.00    +0.140 C 
BRANCH  17  19
ATOM     18  C   UNL     1       0.638   6.997  -5.428  0.00  0.00    +0.114 C 
ATOM     19  N   UNL     1      -0.272   6.254  -5.468  0.00  0.00    -0.288 N 
BRANCH  19  20
ATOM     20  C   UNL     1      -1.429   6.451  -4.646  0.00  0.00    +0.132 A 
ATOM     21  N   UNL     1      -1.214   7.195  -3.533  0.00  0.00    -0.229 NA
ATOM     22  C   UNL     1      -2.248   7.338  -2.691  0.00  0.00    +0.100 A 
ATOM     23  C   UNL     1      -3.326   6.470  -2.737  0.00  0.00    +0.021 A 
ATOM     24  C   UNL     1      -3.183   5.316  -3.496  0.00  0.00    +0.004 A 
ATOM     25  C   UNL     1      -2.242   5.334  -4.493  0.00  0.00    +0.034 A 
ENDBRANCH  19  20
ENDBRANCH  17  19
ENDBRANCH  16  17
ENDBRANCH  15  16
ENDBRANCH   1  15
TORSDOF 7
ENDMDL
MODEL 8
REMARK VINA RESULT:      -7.7      4.465      7.358
REMARK  Name = 
REMARK  7 active torsions:
REMARK  status: ('A' for Active; 'I' for Inactive)
REMARK    1  A    between atoms: N_2  and  C_3
REMARK    2  A    between atoms: N_2  and  C_20
REMARK    3  A    between atoms: C_3  and  C_4
REMARK    4  A    between atoms: C_4  and  O_5
REMARK    5  A    between atoms: O_5  and  C_6
REMARK    6  A    between atoms: C_9  and  C_10
REMARK    7  A    between atoms: C_10  and  C_11
REMARK                            x       y       z     vdW  Elec       q    Type
REMARK                         _______ _______ _______ _____ _____    ______ ____
ROOT
ATOM      1  C   UNL     1      -2.440   7.027  -2.571  0.00  0.00    +0.139 A 
ATOM      2  C   UNL     1      -1.972   8.034  -3.403  0.00  0.00    +0.037 A 
ATOM      3  C   UNL     1      -1.536   7.759  -4.693  0.00  0.00    -0.001 A 
ATOM      4  C   UNL     1      -1.425   6.450  -5.132  0.00  0.00    -0.021 A 
ATOM      5  C   UNL     1      -2.160   5.512  -4.418  0.00  0.00    -0.001 A 
ATOM      6  C   UNL     1      -2.627   5.782  -3.141  0.00  0.00    +0.037 A 
ENDROOT
BRANCH   4   7
ATOM      7  C   UNL     1      -0.300   6.019  -5.992  0.00  0.00    +0.047 C 
BRANCH   7   8
ATOM      8  C   UNL     1       0.699   5.264  -5.014  0.00  0.00    +0.139 C 
ATOM      9  C   UNL     1       1.568   4.633  -6.142  0.00  0.00    +0.259 C 
ATOM     10  O   UNL     1       1.603   3.384  -6.213  0.00  0.00    -0.272 OA
ATOM     11  N   UNL     1       1.815   5.623  -7.109  0.00  0.00    -0.135 NA
ATOM     12  C   UNL     1       2.424   6.785  -6.531  0.00  0.00    +0.299 C 
ATOM     13  O   UNL     1       2.403   7.885  -7.163  0.00  0.00    -0.261 OA
ATOM     14  S   UNL     1       1.890   6.734  -4.813  0.00  0.00    -0.046 S 
ENDBRANCH   7   8
ENDBRANCH   4   7
BRANCH   1  15
ATOM     15  O   UNL     1      -2.354   7.186  -1.204  0.00  0.00    -0.474 OA
BRANCH  15  16
ATOM     16  C   UNL     1      -1.649   6.230  -0.412  0.00  0.00    +0.227 C 
BRANCH  16  17
ATOM     17  C   UNL     1      -0.287   6.833  -0.094  0.00  0.00    +0.140 C 
BRANCH  17  19
ATOM     18  C   UNL     1       0.474   5.046  -1.354  0.00  0.00    +0.114 C 
ATOM     19  N   UNL     1       0.728   6.039  -0.780  0.00  0.00    -0.288 N 
BRANCH  19  20
ATOM     20  C   UNL     1       2.063   6.558  -0.746  0.00  0.00    +0.132 A 
ATOM     21  N   UNL     1       3.033   5.617  -0.630  0.00  0.00    -0.229 NA
ATOM     22  C   UNL     1       4.294   6.059  -0.512  0.00  0.00    +0.100 A 
ATOM     23  C   UNL     1       4.555   7.364  -0.128  0.00  0.00    +0.021 A 
ATOM     24  C   UNL     1       3.493   8.107   0.369  0.00  0.00    +0.004 A 
ATOM     25  C   UNL     1       2.229   7.711   0.013  0.00  0.00    +0.034 A 
ENDBRANCH  19  20
ENDBRANCH  17  19
ENDBRANCH  16  17
ENDBRANCH  15  16
ENDBRANCH   1  15
TORSDOF 7
ENDMDL
MODEL 9
REMARK VINA RESULT:      -7.7      4.497      8.796
REMARK  Name = 
REMARK  7 active torsions:
REMARK  status: ('A' for Active; 'I' for Inactive)
REMARK    1  A    between atoms: N_2  and  C_3
REMARK    2  A    between atoms: N_2  and  C_20
REMARK    3  A    between atoms: C_3  and  C_4
REMARK    4  A    between atoms: C_4  and  O_5
REMARK    5  A    between atoms: O_5  and  C_6
REMARK    6  A    between atoms: C_9  and  C_10
REMARK    7  A    between atoms: C_10  and  C_11
REMARK                            x       y       z     vdW  Elec       q    Type
REMARK                         _______ _______ _______ _____ _____    ______ ____
ROOT
ATOM      1  C   UNL     1       3.656   5.596  -5.650  0.00  0.00    +0.139 A 
ATOM      2  C   UNL     1       3.916   6.954  -5.544  0.00  0.00    +0.037 A 
ATOM      3  C   UNL     1       4.575   7.478  -4.439  0.00  0.00    -0.001 A 
ATOM      4  C   UNL     1       4.863   6.675  -3.348  0.00  0.00    -0.021 A 
ATOM      5  C   UNL     1       4.868   5.308  -3.594  0.00  0.00    -0.001 A 
ATOM      6  C   UNL     1       4.241   4.772  -4.707  0.00  0.00    +0.037 A 
ENDROOT
BRANCH   4   7
ATOM      7  C   UNL     1       4.744   7.184  -1.964  0.00  0.00    +0.047 C 
BRANCH   7   8
ATOM      8  C   UNL     1       3.184   7.193  -1.662  0.00  0.00    +0.139 C 
ATOM      9  C   UNL     1       3.225   6.045  -0.610  0.00  0.00    +0.259 C 
ATOM     10  O   UNL     1       2.586   5.002  -0.870  0.00  0.00    -0.272 OA
ATOM     11  N   UNL     1       4.319   6.274   0.244  0.00  0.00    -0.135 NA
ATOM     12  C   UNL     1       4.253   7.572   0.849  0.00  0.00    +0.299 C 
ATOM     13  O   UNL     1       5.297   8.079   1.361  0.00  0.00    -0.261 OA
ATOM     14  S   UNL     1       3.274   8.535  -0.315  0.00  0.00    -0.046 S 
ENDBRANCH   7   8
ENDBRANCH   4   7
BRANCH   1  15
ATOM     15  O   UNL     1       2.590   5.170  -6.415  0.00  0.00    -0.474 OA
BRANCH  15  16
ATOM     16  C   UNL     1       2.337   5.760  -7.689  0.00  0.00    +0.227 C 
BRANCH  16  17
ATOM     17  C   UNL     1       3.175   4.996  -8.707  0.00  0.00    +0.140 C 
BRANCH  17  19
ATOM     18  C   UNL     1       2.605   6.147 -10.634  0.00  0.00    +0.114 C 
ATOM     19  N   UNL     1       3.429   5.883  -9.838  0.00  0.00    -0.288 N 
BRANCH  19  20
ATOM     20  C   UNL     1       4.742   6.452  -9.910  0.00  0.00    +0.132 A 
ATOM     21  N   UNL     1       4.982   7.182 -11.027  0.00  0.00    -0.229 NA
ATOM     22  C   UNL     1       6.224   7.667 -11.178  0.00  0.00    +0.100 A 
ATOM     23  C   UNL     1       7.285   7.132 -10.467  0.00  0.00    +0.021 A 
ATOM     24  C   UNL     1       7.067   5.934  -9.801  0.00  0.00    +0.004 A 
ATOM     25  C   UNL     1       5.771   5.619  -9.485  0.00  0.00    +0.034 A 
ENDBRANCH  19  20
ENDBRANCH  17  19
ENDBRANCH  16  17
ENDBRANCH  15  16
ENDBRANCH   1  15
TORSDOF 7
ENDMDL
