MODEL 1
REMARK VINA RESULT:      -9.4      0.000      0.000
REMARK  Name = 
REMARK  3 active torsions:
REMARK  status: ('A' for Active; 'I' for Inactive)
REMARK    1  A    between atoms: C_21  and  C_23
REMARK    2  A    between atoms: C_23  and  O_25
REMARK    3  A    between atoms: O_25  and  C_26
REMARK                            x       y       z     vdW  Elec       q    Type
REMARK                         _______ _______ _______ _____ _____    ______ ____
ROOT
ATOM      1  C   UNL     1      -1.521   7.684  -4.883  0.00  0.00    +0.003 C 
ATOM      2  C   UNL     1      -0.749   6.515  -4.325  0.00  0.00    +0.038 C 
ATOM      3  C   UNL     1      -1.534   5.989  -3.279  0.00  0.00    +0.215 C 
ATOM      4  O   UNL     1      -0.994   5.012  -2.436  0.00  0.00    -0.214 OA
ATOM      5  C   UNL     1      -2.736   5.391  -4.036  0.00  0.00    +0.041 C 
ATOM      6  C   UNL     1      -2.482   5.712  -5.525  0.00  0.00    +0.003 C 
ATOM      7  C   UNL     1      -0.947   5.242  -5.320  0.00  0.00    +0.003 C 
ATOM      8  C   UNL     1      -0.200   6.128  -6.538  0.00  0.00    +0.003 C 
ATOM      9  C   UNL     1      -0.672   5.281  -7.818  0.00  0.00    +0.004 C 
ATOM     10  C   UNL     1       0.286   5.887  -8.853  0.00  0.00    +0.022 C 
ATOM     11  C   UNL     1       1.702   5.899  -8.420  0.00  0.00    -0.038 C 
ATOM     12  C   UNL     1       2.122   6.247  -7.003  0.00  0.00    +0.036 C 
ATOM     13  C   UNL     1       1.721   7.615  -6.764  0.00  0.00    +0.009 C 
ATOM     14  C   UNL     1       3.509   6.016  -6.897  0.00  0.00    -0.020 C 
ATOM     15  C   UNL     1       4.388   5.341  -7.564  0.00  0.00    +0.038 C 
ATOM     16  C   UNL     1       3.865   4.866  -8.848  0.00  0.00    +0.195 C 
ATOM     17  O   UNL     1       4.718   4.672  -9.771  0.00  0.00    -0.287 OA
ATOM     18  C   UNL     1       2.450   4.977  -9.041  0.00  0.00    +0.034 C 
ATOM     19  C   UNL     1       1.164   5.142  -6.378  0.00  0.00    +0.038 C 
ATOM     20  C   UNL     1       1.370   5.300  -4.689  0.00  0.00    +0.153 C 
ATOM     21  O   UNL     1       2.751   5.903  -4.702  0.00  0.00    -0.223 OA
ATOM     22  C   UNL     1       0.662   6.765  -4.474  0.00  0.00    +0.036 C 
ENDROOT
BRANCH   3  23
ATOM     23  C   UNL     1      -2.252   6.971  -2.388  0.00  0.00    +0.346 C 
ATOM     24  O   UNL     1      -3.491   6.801  -2.150  0.00  0.00    -0.247 OA
BRANCH  23  25
ATOM     25  O   UNL     1      -1.597   7.487  -1.261  0.00  0.00    -0.429 OA
BRANCH  25  26
ATOM     26  C   UNL     1      -2.014   7.311   0.068  0.00  0.00    +0.304 C 
ATOM     27 CL   UNL     1      -1.662   8.791   1.020  0.00  0.00    -0.063 Cl
ENDBRANCH  25  26
ENDBRANCH  23  25
ENDBRANCH   3  23
TORSDOF 3
ENDMDL
MODEL 2
REMARK VINA RESULT:      -9.0      2.945      7.198
REMARK  Name = 
REMARK  3 active torsions:
REMARK  status: ('A' for Active; 'I' for Inactive)
REMARK    1  A    between atoms: C_21  and  C_23
REMARK    2  A    between atoms: C_23  and  O_25
REMARK    3  A    between atoms: O_25  and  C_26
REMARK                            x       y       z     vdW  Elec       q    Type
REMARK                         _______ _______ _______ _____ _____    ______ ____
ROOT
ATOM      1  C   UNL     1       2.708   7.269  -7.627  0.00  0.00    +0.003 C 
ATOM      2  C   UNL     1       2.031   5.927  -7.739  0.00  0.00    +0.038 C 
ATOM      3  C   UNL     1       2.750   5.204  -8.713  0.00  0.00    +0.215 C 
ATOM      4  O   UNL     1       2.245   3.987  -9.181  0.00  0.00    -0.214 OA
ATOM      5  C   UNL     1       4.097   4.951  -8.009  0.00  0.00    +0.041 C 
ATOM      6  C   UNL     1       3.978   5.648  -6.636  0.00  0.00    +0.003 C 
ATOM      7  C   UNL     1       2.502   5.003  -6.485  0.00  0.00    +0.003 C 
ATOM      8  C   UNL     1       1.794   6.121  -5.447  0.00  0.00    +0.003 C 
ATOM      9  C   UNL     1       2.514   5.709  -4.072  0.00  0.00    +0.004 C 
ATOM     10  C   UNL     1       1.613   6.489  -3.104  0.00  0.00    +0.022 C 
ATOM     11  C   UNL     1       0.166   6.253  -3.315  0.00  0.00    -0.038 C 
ATOM     12  C   UNL     1      -0.455   6.154  -4.697  0.00  0.00    +0.036 C 
ATOM     13  C   UNL     1      -0.261   7.433  -5.342  0.00  0.00    +0.009 C 
ATOM     14  C   UNL     1      -1.805   5.779  -4.535  0.00  0.00    -0.020 C 
ATOM     15  C   UNL     1      -2.508   5.239  -3.594  0.00  0.00    +0.038 C 
ATOM     16  C   UNL     1      -1.784   5.188  -2.321  0.00  0.00    +0.195 C 
ATOM     17  O   UNL     1      -2.494   5.181  -1.265  0.00  0.00    -0.287 OA
ATOM     18  C   UNL     1      -0.382   5.475  -2.371  0.00  0.00    +0.034 C 
ATOM     19  C   UNL     1       0.557   5.011  -5.142  0.00  0.00    +0.038 C 
ATOM     20  C   UNL     1       0.138   4.674  -6.764  0.00  0.00    +0.153 C 
ATOM     21  O   UNL     1      -1.297   5.130  -6.709  0.00  0.00    -0.223 OA
ATOM     22  C   UNL     1       0.626   6.080  -7.457  0.00  0.00    +0.036 C 
ENDROOT
BRANCH   3  23
ATOM     23  C   UNL     1       3.230   5.961  -9.925  0.00  0.00    +0.346 C 
ATOM     24  O   UNL     1       4.464   5.917 -10.234  0.00  0.00    -0.247 OA
BRANCH  23  25
ATOM     25  O   UNL     1       2.432   5.998 -11.077  0.00  0.00    -0.429 OA
BRANCH  25  26
ATOM     26  C   UNL     1       1.206   6.673 -11.190  0.00  0.00    +0.304 C 
ATOM     27 CL   UNL     1      -0.148   5.497 -11.119  0.00  0.00    -0.063 Cl
ENDBRANCH  25  26
ENDBRANCH  23  25
ENDBRANCH   3  23
TORSDOF 3
ENDMDL
MODEL 3
REMARK VINA RESULT:      -8.8      2.103      3.968
REMARK  Name = 
REMARK  3 active torsions:
REMARK  status: ('A' for Active; 'I' for Inactive)
REMARK    1  A    between atoms: C_21  and  C_23
REMARK    2  A    between atoms: C_23  and  O_25
REMARK    3  A    between atoms: O_25  and  C_26
REMARK                            x       y       z     vdW  Elec       q    Type
REMARK                         _______ _______ _______ _____ _____    ______ ____
ROOT
ATOM      1  C   UNL     1       1.364   4.261  -5.587  0.00  0.00    +0.003 C 
ATOM      2  C   UNL     1       1.050   5.623  -6.152  0.00  0.00    +0.038 C 
ATOM      3  C   UNL     1       0.408   6.338  -5.121  0.00  0.00    +0.215 C 
ATOM      4  O   UNL     1      -0.182   7.574  -5.402  0.00  0.00    -0.214 OA
ATOM      5  C   UNL     1       1.546   6.543  -4.102  0.00  0.00    +0.041 C 
ATOM      6  C   UNL     1       2.773   5.832  -4.712  0.00  0.00    +0.003 C 
ATOM      7  C   UNL     1       2.410   6.517  -6.133  0.00  0.00    +0.003 C 
ATOM      8  C   UNL     1       3.108   5.406  -7.185  0.00  0.00    +0.003 C 
ATOM      9  C   UNL     1       4.657   5.779  -6.986  0.00  0.00    +0.004 C 
ATOM     10  C   UNL     1       5.229   5.012  -8.187  0.00  0.00    +0.022 C 
ATOM     11  C   UNL     1       4.529   5.292  -9.461  0.00  0.00    -0.038 C 
ATOM     12  C   UNL     1       3.019   5.427  -9.554  0.00  0.00    +0.036 C 
ATOM     13  C   UNL     1       2.455   4.151  -9.173  0.00  0.00    +0.009 C 
ATOM     14  C   UNL     1       2.704   5.838 -10.866  0.00  0.00    -0.020 C 
ATOM     15  C   UNL     1       3.349   6.385 -11.843  0.00  0.00    +0.038 C 
ATOM     16  C   UNL     1       4.797   6.399 -11.613  0.00  0.00    +0.195 C 
ATOM     17  O   UNL     1       5.535   6.412 -12.648  0.00  0.00    -0.287 OA
ATOM     18  C   UNL     1       5.236   6.073 -10.289  0.00  0.00    +0.034 C 
ATOM     19  C   UNL     1       2.984   6.546  -8.426  0.00  0.00    +0.038 C 
ATOM     20  C   UNL     1       1.326   6.916  -8.239  0.00  0.00    +0.153 C 
ATOM     21  O   UNL     1       0.862   6.500  -9.611  0.00  0.00    -0.223 OA
ATOM     22  C   UNL     1       0.817   5.506  -7.570  0.00  0.00    +0.036 C 
ENDROOT
BRANCH   3  23
ATOM     23  C   UNL     1      -0.575   5.583  -4.261  0.00  0.00    +0.346 C 
ATOM     24  O   UNL     1      -0.339   5.455  -3.017  0.00  0.00    -0.247 OA
BRANCH  23  25
ATOM     25  O   UNL     1      -1.950   5.731  -4.493  0.00  0.00    -0.429 OA
BRANCH  25  26
ATOM     26  C   UNL     1      -2.968   5.215  -3.674  0.00  0.00    +0.304 C 
ATOM     27 CL   UNL     1      -3.575   6.497  -2.574  0.00  0.00    -0.063 Cl
ENDBRANCH  25  26
ENDBRANCH  23  25
ENDBRANCH   3  23
TORSDOF 3
ENDMDL
MODEL 4
REMARK VINA RESULT:      -8.8      3.313      5.148
REMARK  Name = 
REMARK  3 active torsions:
REMARK  status: ('A' for Active; 'I' for Inactive)
REMARK    1  A    between atoms: C_21  and  C_23
REMARK    2  A    between atoms: C_23  and  O_25
REMARK    3  A    between atoms: O_25  and  C_26
REMARK                            x       y       z     vdW  Elec       q    Type
REMARK                         _______ _______ _______ _____ _____    ______ ____
ROOT
ATOM      1  C   UNL     1       1.917   7.377  -7.932  0.00  0.00    +0.003 C 
ATOM      2  C   UNL     1       2.666   6.089  -7.703  0.00  0.00    +0.038 C 
ATOM      3  C   UNL     1       1.994   5.424  -6.658  0.00  0.00    +0.215 C 
ATOM      4  O   UNL     1       2.567   4.284  -6.084  0.00  0.00    -0.214 OA
ATOM      5  C   UNL     1       0.657   5.035  -7.320  0.00  0.00    +0.041 C 
ATOM      6  C   UNL     1       0.729   5.605  -8.753  0.00  0.00    +0.003 C 
ATOM      7  C   UNL     1       2.237   5.028  -8.861  0.00  0.00    +0.003 C 
ATOM      8  C   UNL     1       2.877   6.079 -10.007  0.00  0.00    +0.003 C 
ATOM      9  C   UNL     1       2.170   5.503 -11.328  0.00  0.00    +0.004 C 
ATOM     10  C   UNL     1       3.022   6.235 -12.375  0.00  0.00    +0.022 C 
ATOM     11  C   UNL     1       4.480   6.096 -12.161  0.00  0.00    -0.038 C 
ATOM     12  C   UNL     1       5.116   6.160 -10.783  0.00  0.00    +0.036 C 
ATOM     13  C   UNL     1       4.858   7.483 -10.257  0.00  0.00    +0.009 C 
ATOM     14  C   UNL     1       6.482   5.843 -10.925  0.00  0.00    -0.020 C 
ATOM     15  C   UNL     1       7.207   5.256 -11.820  0.00  0.00    +0.038 C 
ATOM     16  C   UNL     1       6.478   5.047 -13.074  0.00  0.00    +0.195 C 
ATOM     17  O   UNL     1       7.180   4.979 -14.133  0.00  0.00    -0.287 OA
ATOM     18  C   UNL     1       5.063   5.264 -13.034  0.00  0.00    +0.034 C 
ATOM     19  C   UNL     1       4.170   5.012 -10.222  0.00  0.00    +0.038 C 
ATOM     20  C   UNL     1       4.617   4.852  -8.580  0.00  0.00    +0.153 C 
ATOM     21  O   UNL     1       6.025   5.375  -8.694  0.00  0.00    -0.223 OA
ATOM     22  C   UNL     1       4.059   6.288  -8.015  0.00  0.00    +0.036 C 
ENDROOT
BRANCH   3  23
ATOM     23  C   UNL     1       1.482   6.265  -5.516  0.00  0.00    +0.346 C 
ATOM     24  O   UNL     1       0.244   6.225  -5.224  0.00  0.00    -0.247 OA
BRANCH  23  25
ATOM     25  O   UNL     1       2.261   6.404  -4.358  0.00  0.00    -0.429 OA
BRANCH  25  26
ATOM     26  C   UNL     1       3.388   7.231  -4.236  0.00  0.00    +0.304 C 
ATOM     27 CL   UNL     1       4.883   6.267  -4.474  0.00  0.00    -0.063 Cl
ENDBRANCH  25  26
ENDBRANCH  23  25
ENDBRANCH   3  23
TORSDOF 3
ENDMDL
MODEL 5
REMARK VINA RESULT:      -8.8      2.991      4.537
REMARK  Name = 
REMARK  3 active torsions:
REMARK  status: ('A' for Active; 'I' for Inactive)
REMARK    1  A    between atoms: C_21  and  C_23
REMARK    2  A    between atoms: C_23  and  O_25
REMARK    3  A    between atoms: O_25  and  C_26
REMARK                            x       y       z     vdW  Elec       q    Type
REMARK                         _______ _______ _______ _____ _____    ______ ____
ROOT
ATOM      1  C   UNL     1       1.403   7.007  -6.769  0.00  0.00    +0.003 C 
ATOM      2  C   UNL     1       1.827   5.601  -7.110  0.00  0.00    +0.038 C 
ATOM      3  C   UNL     1       1.392   4.789  -6.043  0.00  0.00    +0.215 C 
ATOM      4  O   UNL     1       1.808   3.456  -5.975  0.00  0.00    -0.214 OA
ATOM      5  C   UNL     1      -0.141   4.830  -6.201  0.00  0.00    +0.041 C 
ATOM      6  C   UNL     1      -0.403   5.760  -7.405  0.00  0.00    +0.003 C 
ATOM      7  C   UNL     1       0.781   4.995  -8.200  0.00  0.00    +0.003 C 
ATOM      8  C   UNL     1       1.254   6.204  -9.267  0.00  0.00    +0.003 C 
ATOM      9  C   UNL     1       0.027   6.148 -10.301  0.00  0.00    +0.004 C 
ATOM     10  C   UNL     1       0.642   6.994 -11.425  0.00  0.00    +0.022 C 
ATOM     11  C   UNL     1       2.001   6.561 -11.822  0.00  0.00    -0.038 C 
ATOM     12  C   UNL     1       3.050   6.129 -10.813  0.00  0.00    +0.036 C 
ATOM     13  C   UNL     1       3.330   7.273  -9.975  0.00  0.00    +0.009 C 
ATOM     14  C   UNL     1       4.162   5.643 -11.531  0.00  0.00    -0.020 C 
ATOM     15  C   UNL     1       4.373   5.218 -12.734  0.00  0.00    +0.038 C 
ATOM     16  C   UNL     1       3.242   5.495 -13.625  0.00  0.00    +0.195 C 
ATOM     17  O   UNL     1       3.511   5.612 -14.862  0.00  0.00    -0.287 OA
ATOM     18  C   UNL     1       2.026   5.923 -13.000  0.00  0.00    +0.034 C 
ATOM     19  C   UNL     1       2.081   5.042 -10.173  0.00  0.00    +0.038 C 
ATOM     20  C   UNL     1       2.989   4.355  -8.899  0.00  0.00    +0.153 C 
ATOM     21  O   UNL     1       4.365   4.648  -9.439  0.00  0.00    -0.223 OA
ATOM     22  C   UNL     1       3.040   5.646  -7.887  0.00  0.00    +0.036 C 
ENDROOT
BRANCH   3  23
ATOM     23  C   UNL     1       1.521   5.348  -4.648  0.00  0.00    +0.346 C 
ATOM     24  O   UNL     1       0.620   5.084  -3.788  0.00  0.00    -0.247 OA
BRANCH  23  25
ATOM     25  O   UNL     1       2.785   5.403  -4.041  0.00  0.00    -0.429 OA
BRANCH  25  26
ATOM     26  C   UNL     1       3.393   6.567  -3.546  0.00  0.00    +0.304 C 
ATOM     27 CL   UNL     1       4.449   7.288  -4.805  0.00  0.00    -0.063 Cl
ENDBRANCH  25  26
ENDBRANCH  23  25
ENDBRANCH   3  23
TORSDOF 3
ENDMDL
MODEL 6
REMARK VINA RESULT:      -8.7      3.413      7.117
REMARK  Name = 
REMARK  3 active torsions:
REMARK  status: ('A' for Active; 'I' for Inactive)
REMARK    1  A    between atoms: C_21  and  C_23
REMARK    2  A    between atoms: C_23  and  O_25
REMARK    3  A    between atoms: O_25  and  C_26
REMARK                            x       y       z     vdW  Elec       q    Type
REMARK                         _______ _______ _______ _____ _____    ______ ____
ROOT
ATOM      1  C   UNL     1       2.640   7.161  -8.412  0.00  0.00    +0.003 C 
ATOM      2  C   UNL     1       2.385   5.728  -8.022  0.00  0.00    +0.038 C 
ATOM      3  C   UNL     1       2.782   4.944  -9.124  0.00  0.00    +0.215 C 
ATOM      4  O   UNL     1       2.486   3.577  -9.141  0.00  0.00    -0.214 OA
ATOM      5  C   UNL     1       4.313   5.127  -9.125  0.00  0.00    +0.041 C 
ATOM      6  C   UNL     1       4.610   6.095  -7.960  0.00  0.00    +0.003 C 
ATOM      7  C   UNL     1       3.589   5.236  -7.043  0.00  0.00    +0.003 C 
ATOM      8  C   UNL     1       3.119   6.413  -5.939  0.00  0.00    +0.003 C 
ATOM      9  C   UNL     1       4.445   6.486  -5.037  0.00  0.00    +0.004 C 
ATOM     10  C   UNL     1       3.873   7.288  -3.860  0.00  0.00    +0.022 C 
ATOM     11  C   UNL     1       2.608   6.738  -3.322  0.00  0.00    -0.038 C 
ATOM     12  C   UNL     1       1.505   6.197  -4.215  0.00  0.00    +0.036 C 
ATOM     13  C   UNL     1       1.035   7.298  -5.026  0.00  0.00    +0.009 C 
ATOM     14  C   UNL     1       0.522   5.622  -3.383  0.00  0.00    -0.020 C 
ATOM     15  C   UNL     1       0.477   5.198  -2.163  0.00  0.00    +0.038 C 
ATOM     16  C   UNL     1       1.662   5.590  -1.395  0.00  0.00    +0.195 C 
ATOM     17  O   UNL     1       1.511   5.701  -0.137  0.00  0.00    -0.287 OA
ATOM     18  C   UNL     1       2.762   6.119  -2.144  0.00  0.00    +0.034 C 
ATOM     19  C   UNL     1       2.499   5.194  -4.946  0.00  0.00    +0.038 C 
ATOM     20  C   UNL     1       1.533   4.408  -6.116  0.00  0.00    +0.153 C 
ATOM     21  O   UNL     1       0.199   4.582  -5.438  0.00  0.00    -0.223 OA
ATOM     22  C   UNL     1       1.260   5.673  -7.123  0.00  0.00    +0.036 C 
ENDROOT
BRANCH   3  23
ATOM     23  C   UNL     1       2.459   5.467 -10.501  0.00  0.00    +0.346 C 
ATOM     24  O   UNL     1       3.397   5.592 -11.352  0.00  0.00    -0.247 OA
BRANCH  23  25
ATOM     25  O   UNL     1       1.270   5.070 -11.128  0.00  0.00    -0.429 OA
BRANCH  25  26
ATOM     26  C   UNL     1      -0.012   5.543 -10.805  0.00  0.00    +0.304 C 
ATOM     27 CL   UNL     1      -0.143   7.284 -11.220  0.00  0.00    -0.063 Cl
ENDBRANCH  25  26
ENDBRANCH  23  25
ENDBRANCH   3  23
TORSDOF 3
ENDMDL
MODEL 7
REMARK VINA RESULT:      -8.6      3.264      7.560
REMARK  Name = 
REMARK  3 active torsions:
REMARK  status: ('A' for Active; 'I' for Inactive)
REMARK    1  A    between atoms: C_21  and  C_23
REMARK    2  A    between atoms: C_23  and  O_25
REMARK    3  A    between atoms: O_25  and  C_26
REMARK                            x       y       z     vdW  Elec       q    Type
REMARK                         _______ _______ _______ _____ _____    ______ ____
ROOT
ATOM      1  C   UNL     1       3.000   4.101  -9.083  0.00  0.00    +0.003 C 
ATOM      2  C   UNL     1       3.125   5.568  -8.759  0.00  0.00    +0.038 C 
ATOM      3  C   UNL     1       3.812   6.153  -9.842  0.00  0.00    +0.215 C 
ATOM      4  O   UNL     1       4.253   7.477  -9.745  0.00  0.00    -0.214 OA
ATOM      5  C   UNL     1       2.781   6.048 -10.982  0.00  0.00    +0.041 C 
ATOM      6  C   UNL     1       1.562   5.329 -10.367  0.00  0.00    +0.003 C 
ATOM      7  C   UNL     1       1.701   6.291  -9.073  0.00  0.00    +0.003 C 
ATOM      8  C   UNL     1       0.992   5.317  -7.900  0.00  0.00    +0.003 C 
ATOM      9  C   UNL     1      -0.552   5.477  -8.309  0.00  0.00    +0.004 C 
ATOM     10  C   UNL     1      -1.183   4.879  -7.044  0.00  0.00    +0.022 C 
ATOM     11  C   UNL     1      -0.658   5.457  -5.786  0.00  0.00    -0.038 C 
ATOM     12  C   UNL     1       0.814   5.769  -5.579  0.00  0.00    +0.036 C 
ATOM     13  C   UNL     1       1.530   4.515  -5.659  0.00  0.00    +0.009 C 
ATOM     14  C   UNL     1       0.942   6.439  -4.346  0.00  0.00    -0.020 C 
ATOM     15  C   UNL     1       0.145   7.079  -3.554  0.00  0.00    +0.038 C 
ATOM     16  C   UNL     1      -1.263   6.894  -3.916  0.00  0.00    +0.195 C 
ATOM     17  O   UNL     1      -2.111   7.011  -2.975  0.00  0.00    -0.287 OA
ATOM     18  C   UNL     1      -1.521   6.290  -5.190  0.00  0.00    +0.034 C 
ATOM     19  C   UNL     1       0.875   6.666  -6.891  0.00  0.00    +0.038 C 
ATOM     20  C   UNL     1       2.503   7.175  -6.988  0.00  0.00    +0.153 C 
ATOM     21  O   UNL     1       2.846   7.064  -5.525  0.00  0.00    -0.223 OA
ATOM     22  C   UNL     1       3.208   5.733  -7.329  0.00  0.00    +0.036 C 
ENDROOT
BRANCH   3  23
ATOM     23  C   UNL     1       4.949   5.369 -10.448  0.00  0.00    +0.346 C 
ATOM     24  O   UNL     1       5.020   5.261 -11.714  0.00  0.00    -0.247 OA
BRANCH  23  25
ATOM     25  O   UNL     1       6.229   5.462  -9.884  0.00  0.00    -0.429 OA
BRANCH  25  26
ATOM     26  C   UNL     1       7.384   5.878 -10.566  0.00  0.00    +0.304 C 
ATOM     27 CL   UNL     1       7.302   7.642 -10.885  0.00  0.00    -0.063 Cl
ENDBRANCH  25  26
ENDBRANCH  23  25
ENDBRANCH   3  23
TORSDOF 3
ENDMDL
MODEL 8
REMARK VINA RESULT:      -8.6      3.867      7.106
REMARK  Name = 
REMARK  3 active torsions:
REMARK  status: ('A' for Active; 'I' for Inactive)
REMARK    1  A    between atoms: C_21  and  C_23
REMARK    2  A    between atoms: C_23  and  O_25
REMARK    3  A    between atoms: O_25  and  C_26
REMARK                            x       y       z     vdW  Elec       q    Type
REMARK                         _______ _______ _______ _____ _____    ______ ____
ROOT
ATOM      1  C   UNL     1       2.347   4.106  -7.102  0.00  0.00    +0.003 C 
ATOM      2  C   UNL     1       2.727   5.562  -7.016  0.00  0.00    +0.038 C 
ATOM      3  C   UNL     1       2.455   6.115  -8.284  0.00  0.00    +0.215 C 
ATOM      4  O   UNL     1       2.886   7.412  -8.579  0.00  0.00    -0.214 OA
ATOM      5  C   UNL     1       0.915   6.073  -8.339  0.00  0.00    +0.041 C 
ATOM      6  C   UNL     1       0.477   5.417  -7.011  0.00  0.00    +0.003 C 
ATOM      7  C   UNL     1       1.541   6.363  -6.242  0.00  0.00    +0.003 C 
ATOM      8  C   UNL     1       1.847   5.423  -4.883  0.00  0.00    +0.003 C 
ATOM      9  C   UNL     1       0.485   5.670  -4.069  0.00  0.00    +0.004 C 
ATOM     10  C   UNL     1       0.926   5.101  -2.713  0.00  0.00    +0.022 C 
ATOM     11  C   UNL     1       2.218   5.642  -2.232  0.00  0.00    -0.038 C 
ATOM     12  C   UNL     1       3.404   5.872  -3.152  0.00  0.00    +0.036 C 
ATOM     13  C   UNL     1       3.793   4.581  -3.674  0.00  0.00    +0.009 C 
ATOM     14  C   UNL     1       4.405   6.528  -2.406  0.00  0.00    -0.020 C 
ATOM     15  C   UNL     1       4.444   7.205  -1.306  0.00  0.00    +0.038 C 
ATOM     16  C   UNL     1       3.196   7.100  -0.545  0.00  0.00    +0.195 C 
ATOM     17  O   UNL     1       3.284   7.258   0.714  0.00  0.00    -0.287 OA
ATOM     18  C   UNL     1       2.079   6.518  -1.228  0.00  0.00    +0.034 C 
ATOM     19  C   UNL     1       2.544   6.772  -4.142  0.00  0.00    +0.038 C 
ATOM     20  C   UNL     1       3.630   7.191  -5.393  0.00  0.00    +0.153 C 
ATOM     21  O   UNL     1       4.912   7.054  -4.613  0.00  0.00    -0.223 OA
ATOM     22  C   UNL     1       3.816   5.714  -6.084  0.00  0.00    +0.036 C 
ENDROOT
BRANCH   3  23
ATOM     23  C   UNL     1       2.779   5.273  -9.493  0.00  0.00    +0.346 C 
ATOM     24  O   UNL     1       2.003   5.311 -10.501  0.00  0.00    -0.247 OA
BRANCH  23  25
ATOM     25  O   UNL     1       4.114   5.135  -9.899  0.00  0.00    -0.429 OA
BRANCH  25  26
ATOM     26  C   UNL     1       4.633   5.568 -11.130  0.00  0.00    +0.304 C 
ATOM     27 CL   UNL     1       5.261   7.241 -10.972  0.00  0.00    -0.063 Cl
ENDBRANCH  25  26
ENDBRANCH  23  25
ENDBRANCH   3  23
TORSDOF 3
ENDMDL
MODEL 9
REMARK VINA RESULT:      -8.5      4.993      9.672
REMARK  Name = 
REMARK  3 active torsions:
REMARK  status: ('A' for Active; 'I' for Inactive)
REMARK    1  A    between atoms: C_21  and  C_23
REMARK    2  A    between atoms: C_23  and  O_25
REMARK    3  A    between atoms: O_25  and  C_26
REMARK                            x       y       z     vdW  Elec       q    Type
REMARK                         _______ _______ _______ _____ _____    ______ ____
ROOT
ATOM      1  C   UNL     1       5.994   7.589 -10.913  0.00  0.00    +0.003 C 
ATOM      2  C   UNL     1       5.173   6.426 -11.407  0.00  0.00    +0.038 C 
ATOM      3  C   UNL     1       5.900   5.855 -12.471  0.00  0.00    +0.215 C 
ATOM      4  O   UNL     1       5.303   4.870 -13.265  0.00  0.00    -0.214 OA
ATOM      5  C   UNL     1       7.119   5.248 -11.749  0.00  0.00    +0.041 C 
ATOM      6  C   UNL     1       6.936   5.612 -10.260  0.00  0.00    +0.003 C 
ATOM      7  C   UNL     1       5.383   5.174 -10.388  0.00  0.00    +0.003 C 
ATOM      8  C   UNL     1       4.708   6.108  -9.164  0.00  0.00    +0.003 C 
ATOM      9  C   UNL     1       5.215   5.284  -7.883  0.00  0.00    +0.004 C 
ATOM     10  C   UNL     1       4.315   5.939  -6.825  0.00  0.00    +0.022 C 
ATOM     11  C   UNL     1       2.883   5.974  -7.199  0.00  0.00    -0.038 C 
ATOM     12  C   UNL     1       2.411   6.295  -8.606  0.00  0.00    +0.036 C 
ATOM     13  C   UNL     1       2.833   7.647  -8.897  0.00  0.00    +0.009 C 
ATOM     14  C   UNL     1       1.016   6.095  -8.648  0.00  0.00    -0.020 C 
ATOM     15  C   UNL     1       0.152   5.459  -7.928  0.00  0.00    +0.038 C 
ATOM     16  C   UNL     1       0.717   5.004  -6.655  0.00  0.00    +0.195 C 
ATOM     17  O   UNL     1      -0.101   4.854  -5.692  0.00  0.00    -0.287 OA
ATOM     18  C   UNL     1       2.141   5.086  -6.523  0.00  0.00    +0.034 C 
ATOM     19  C   UNL     1       3.317   5.152  -9.241  0.00  0.00    +0.038 C 
ATOM     20  C   UNL     1       3.043   5.272 -10.923  0.00  0.00    +0.153 C 
ATOM     21  O   UNL     1       1.678   5.908 -10.869  0.00  0.00    -0.223 OA
ATOM     22  C   UNL     1       3.775   6.713 -11.206  0.00  0.00    +0.036 C 
ENDROOT
BRANCH   3  23
ATOM     23  C   UNL     1       6.602   6.796 -13.417  0.00  0.00    +0.346 C 
ATOM     24  O   UNL     1       7.711   6.443 -13.933  0.00  0.00    -0.247 OA
BRANCH  23  25
ATOM     25  O   UNL     1       5.848   7.549 -14.328  0.00  0.00    -0.429 OA
BRANCH  25  26
ATOM     26  C   UNL     1       5.735   7.279 -15.701  0.00  0.00    +0.304 C 
ATOM     27 CL   UNL     1       6.810   8.376 -16.630  0.00  0.00    -0.063 Cl
ENDBRANCH  25  26
ENDBRANCH  23  25
ENDBRANCH   3  23
TORSDOF 3
ENDMDL
