MODEL 1
REMARK VINA RESULT:     -10.4      0.000      0.000
REMARK  Name = 
REMARK  5 active torsions:
REMARK  status: ('A' for Active; 'I' for Inactive)
REMARK    1  A    between atoms: N_4  and  C_5
REMARK    2  A    between atoms: N_16  and  N_17
REMARK    3  A    between atoms: N_17  and  C_18
REMARK    4  A    between atoms: C_22  and  C_23
REMARK    5  A    between atoms: C_27  and  C_28
REMARK                            x       y       z     vdW  Elec       q    Type
REMARK                         _______ _______ _______ _____ _____    ______ ____
ROOT
ATOM      1  N   UNL     1       1.546   4.499  -6.455  0.00  0.00    -0.114 NA
ENDROOT
BRANCH   1   5
ATOM      2  C   UNL     1      -1.386   6.240  -3.515  0.00  0.00    +0.056 C 
ATOM      3  C   UNL     1       0.045   5.830  -3.385  0.00  0.00    +0.101 C 
ATOM      4  C   UNL     1       0.862   5.078  -4.344  0.00  0.00    +0.171 C 
ATOM      5  N   UNL     1       0.519   4.847  -5.576  0.00  0.00    -0.153 NA
ATOM      6  C   UNL     1       2.229   5.190  -3.825  0.00  0.00    +0.292 C 
ATOM      7  O   UNL     1       3.265   4.804  -4.430  0.00  0.00    -0.266 OA
ATOM      8  N   UNL     1       2.123   5.978  -2.634  0.00  0.00    -0.154 N 
ATOM      9  N   UNL     1       0.753   6.116  -2.343  0.00  0.00    -0.174 NA
BRANCH   8  10
ATOM     10  C   UNL     1       3.222   6.682  -2.042  0.00  0.00    +0.077 A 
ATOM     11  C   UNL     1       3.157   8.060  -1.868  0.00  0.00    +0.012 A 
ATOM     12  C   UNL     1       3.744   8.638  -0.761  0.00  0.00    -0.024 A 
ATOM     13  C   UNL     1       3.608  10.096  -0.499  0.00  0.00    +0.031 C 
ATOM     14  C   UNL     1       4.379   7.891   0.222  0.00  0.00    -0.026 A 
ATOM     15  C   UNL     1       4.226   8.289   1.656  0.00  0.00    +0.031 C 
ATOM     16  C   UNL     1       4.686   6.579  -0.115  0.00  0.00    -0.003 A 
ATOM     17  C   UNL     1       4.192   6.030  -1.292  0.00  0.00    +0.016 A 
ENDBRANCH   8  10
ENDBRANCH   1   5
BRANCH   1  18
ATOM     18  C   UNL     1       1.960   5.322  -7.542  0.00  0.00    +0.130 A 
ATOM     19  C   UNL     1       2.842   4.893  -8.516  0.00  0.00    +0.212 A 
ATOM     20  O   UNL     1       3.014   3.518  -8.677  0.00  0.00    -0.285 OA
ATOM     21  C   UNL     1       3.616   5.770  -9.262  0.00  0.00    +0.040 A 
ATOM     22  C   UNL     1       3.247   7.107  -9.191  0.00  0.00    +0.003 A 
ATOM     23  C   UNL     1       2.490   7.607  -8.139  0.00  0.00    +0.002 A 
ATOM     24  C   UNL     1       1.849   6.693  -7.348  0.00  0.00    +0.022 A 
BRANCH  21  25
ATOM     25  C   UNL     1       4.938   5.351  -9.741  0.00  0.00    +0.003 A 
ATOM     26  C   UNL     1       5.171   5.323 -11.108  0.00  0.00    +0.007 A 
ATOM     27  C   UNL     1       6.432   5.547 -11.643  0.00  0.00    +0.080 A 
ATOM     28  C   UNL     1       7.464   5.894 -10.791  0.00  0.00    +0.007 A 
ATOM     29  C   UNL     1       7.272   5.949  -9.429  0.00  0.00    +0.000 A 
ATOM     30  C   UNL     1       6.068   5.465  -8.942  0.00  0.00    +0.000 A 
BRANCH  27  31
ATOM     31  C   UNL     1       6.652   5.776 -13.065  0.00  0.00    +0.388 C 
ATOM     32  O   UNL     1       6.577   7.076 -13.549  0.00  0.00    -0.241 OA
ATOM     33  O   UNL     1       7.331   4.957 -13.748  0.00  0.00    -0.241 OA
ENDBRANCH  27  31
ENDBRANCH  21  25
ENDBRANCH   1  18
TORSDOF 5
ENDMDL
MODEL 2
REMARK VINA RESULT:     -10.2      1.778      2.194
REMARK  Name = 
REMARK  5 active torsions:
REMARK  status: ('A' for Active; 'I' for Inactive)
REMARK    1  A    between atoms: N_4  and  C_5
REMARK    2  A    between atoms: N_16  and  N_17
REMARK    3  A    between atoms: N_17  and  C_18
REMARK    4  A    between atoms: C_22  and  C_23
REMARK    5  A    between atoms: C_27  and  C_28
REMARK                            x       y       z     vdW  Elec       q    Type
REMARK                         _______ _______ _______ _____ _____    ______ ____
ROOT
ATOM      1  N   UNL     1       0.382   4.862  -7.817  0.00  0.00    -0.114 NA
ENDROOT
BRANCH   1   5
ATOM      2  C   UNL     1      -2.242   7.483  -5.263  0.00  0.00    +0.056 C 
ATOM      3  C   UNL     1      -1.157   6.513  -4.926  0.00  0.00    +0.101 C 
ATOM      4  C   UNL     1      -0.497   5.548  -5.812  0.00  0.00    +0.171 C 
ATOM      5  N   UNL     1      -0.603   5.550  -7.108  0.00  0.00    -0.153 NA
ATOM      6  C   UNL     1       0.644   5.056  -5.032  0.00  0.00    +0.292 C 
ATOM      7  O   UNL     1       1.558   4.314  -5.479  0.00  0.00    -0.266 OA
ATOM      8  N   UNL     1       0.577   5.747  -3.779  0.00  0.00    -0.154 N 
ATOM      9  N   UNL     1      -0.659   6.421  -3.737  0.00  0.00    -0.174 NA
BRANCH   8  10
ATOM     10  C   UNL     1       1.691   5.900  -2.891  0.00  0.00    +0.077 A 
ATOM     11  C   UNL     1       2.921   6.326  -3.380  0.00  0.00    +0.012 A 
ATOM     12  C   UNL     1       3.723   7.137  -2.603  0.00  0.00    -0.024 A 
ATOM     13  C   UNL     1       4.999   7.686  -3.135  0.00  0.00    +0.031 C 
ATOM     14  C   UNL     1       3.336   7.583  -1.346  0.00  0.00    -0.026 A 
ATOM     15  C   UNL     1       3.674   8.980  -0.930  0.00  0.00    +0.031 C 
ATOM     16  C   UNL     1       2.262   6.919  -0.769  0.00  0.00    -0.003 A 
ATOM     17  C   UNL     1       1.524   6.010  -1.517  0.00  0.00    +0.016 A 
ENDBRANCH   8  10
ENDBRANCH   1   5
BRANCH   1  18
ATOM     18  C   UNL     1       0.750   5.179  -9.156  0.00  0.00    +0.130 A 
ATOM     19  C   UNL     1       2.012   4.939  -9.666  0.00  0.00    +0.212 A 
ATOM     20  O   UNL     1       2.815   4.010  -9.004  0.00  0.00    -0.285 OA
ATOM     21  C   UNL     1       2.532   5.649 -10.739  0.00  0.00    +0.040 A 
ATOM     22  C   UNL     1       1.615   6.400 -11.463  0.00  0.00    +0.003 A 
ATOM     23  C   UNL     1       0.397   6.795 -10.924  0.00  0.00    +0.002 A 
ATOM     24  C   UNL     1      -0.013   6.154  -9.786  0.00  0.00    +0.022 A 
BRANCH  21  25
ATOM     25  C   UNL     1       3.977   5.887 -10.827  0.00  0.00    +0.003 A 
ATOM     26  C   UNL     1       4.680   5.322 -11.879  0.00  0.00    +0.007 A 
ATOM     27  C   UNL     1       5.816   5.920 -12.409  0.00  0.00    +0.080 A 
ATOM     28  C   UNL     1       6.203   7.157 -11.927  0.00  0.00    +0.007 A 
ATOM     29  C   UNL     1       5.522   7.761 -10.894  0.00  0.00    +0.000 A 
ATOM     30  C   UNL     1       4.564   7.001 -10.241  0.00  0.00    +0.000 A 
BRANCH  27  31
ATOM     31  C   UNL     1       6.418   5.489 -13.664  0.00  0.00    +0.388 C 
ATOM     32  O   UNL     1       6.093   6.175 -14.827  0.00  0.00    -0.241 OA
ATOM     33  O   UNL     1       7.514   4.860 -13.666  0.00  0.00    -0.241 OA
ENDBRANCH  27  31
ENDBRANCH  21  25
ENDBRANCH   1  18
TORSDOF 5
ENDMDL
MODEL 3
REMARK VINA RESULT:     -10.2      3.458      9.739
REMARK  Name = 
REMARK  5 active torsions:
REMARK  status: ('A' for Active; 'I' for Inactive)
REMARK    1  A    between atoms: N_4  and  C_5
REMARK    2  A    between atoms: N_16  and  N_17
REMARK    3  A    between atoms: N_17  and  C_18
REMARK    4  A    between atoms: C_22  and  C_23
REMARK    5  A    between atoms: C_27  and  C_28
REMARK                            x       y       z     vdW  Elec       q    Type
REMARK                         _______ _______ _______ _____ _____    ______ ____
ROOT
ATOM      1  N   UNL     1       4.793   4.885  -7.426  0.00  0.00    -0.114 NA
ENDROOT
BRANCH   1   5
ATOM      2  C   UNL     1       6.834   7.531 -10.444  0.00  0.00    +0.056 C 
ATOM      3  C   UNL     1       5.771   6.488 -10.576  0.00  0.00    +0.101 C 
ATOM      4  C   UNL     1       5.313   5.529  -9.565  0.00  0.00    +0.171 C 
ATOM      5  N   UNL     1       5.615   5.594  -8.302  0.00  0.00    -0.153 NA
ATOM      6  C   UNL     1       4.099   4.942 -10.142  0.00  0.00    +0.292 C 
ATOM      7  O   UNL     1       3.311   4.171  -9.533  0.00  0.00    -0.266 OA
ATOM      8  N   UNL     1       3.933   5.579 -11.414  0.00  0.00    -0.154 N 
ATOM      9  N   UNL     1       5.105   6.317 -11.669  0.00  0.00    -0.174 NA
BRANCH   8  10
ATOM     10  C   UNL     1       2.690   5.632 -12.124  0.00  0.00    +0.077 A 
ATOM     11  C   UNL     1       1.578   6.231 -11.543  0.00  0.00    +0.012 A 
ATOM     12  C   UNL     1       0.685   6.926 -12.332  0.00  0.00    -0.024 A 
ATOM     13  C   UNL     1      -0.461   7.658 -11.727  0.00  0.00    +0.031 C 
ATOM     14  C   UNL     1       0.867   7.088 -13.699  0.00  0.00    -0.026 A 
ATOM     15  C   UNL     1       0.512   8.396 -14.334  0.00  0.00    +0.031 C 
ATOM     16  C   UNL     1       1.802   6.250 -14.291  0.00  0.00    -0.003 A 
ATOM     17  C   UNL     1       2.623   5.456 -13.500  0.00  0.00    +0.016 A 
ENDBRANCH   8  10
ENDBRANCH   1   5
BRANCH   1  18
ATOM     18  C   UNL     1       4.298   5.426  -6.204  0.00  0.00    +0.130 A 
ATOM     19  C   UNL     1       3.050   5.117  -5.697  0.00  0.00    +0.212 A 
ATOM     20  O   UNL     1       2.428   3.957  -6.160  0.00  0.00    -0.285 OA
ATOM     21  C   UNL     1       2.368   5.956  -4.828  0.00  0.00    +0.040 A 
ATOM     22  C   UNL     1       3.122   6.975  -4.260  0.00  0.00    +0.003 A 
ATOM     23  C   UNL     1       4.307   7.420  -4.832  0.00  0.00    +0.002 A 
ATOM     24  C   UNL     1       4.875   6.617  -5.784  0.00  0.00    +0.022 A 
BRANCH  21  25
ATOM     25  C   UNL     1       0.901   5.989  -4.844  0.00  0.00    +0.003 A 
ATOM     26  C   UNL     1       0.212   5.431  -3.778  0.00  0.00    +0.007 A 
ATOM     27  C   UNL     1      -1.029   5.904  -3.376  0.00  0.00    +0.080 A 
ATOM     28  C   UNL     1      -1.550   7.021  -4.004  0.00  0.00    +0.007 A 
ATOM     29  C   UNL     1      -0.891   7.616  -5.055  0.00  0.00    +0.000 A 
ATOM     30  C   UNL     1       0.206   6.946  -5.573  0.00  0.00    +0.000 A 
BRANCH  27  31
ATOM     31  C   UNL     1      -1.650   5.511  -2.118  0.00  0.00    +0.388 C 
ATOM     32  O   UNL     1      -2.914   4.934  -2.153  0.00  0.00    -0.241 OA
ATOM     33  O   UNL     1      -0.940   5.256  -1.104  0.00  0.00    -0.241 OA
ENDBRANCH  27  31
ENDBRANCH  21  25
ENDBRANCH   1  18
TORSDOF 5
ENDMDL
MODEL 4
REMARK VINA RESULT:     -10.0      3.056      9.063
REMARK  Name = 
REMARK  5 active torsions:
REMARK  status: ('A' for Active; 'I' for Inactive)
REMARK    1  A    between atoms: N_4  and  C_5
REMARK    2  A    between atoms: N_16  and  N_17
REMARK    3  A    between atoms: N_17  and  C_18
REMARK    4  A    between atoms: C_22  and  C_23
REMARK    5  A    between atoms: C_27  and  C_28
REMARK                            x       y       z     vdW  Elec       q    Type
REMARK                         _______ _______ _______ _____ _____    ______ ____
ROOT
ATOM      1  N   UNL     1       0.886   5.228  -7.661  0.00  0.00    -0.114 NA
ENDROOT
BRANCH   1   5
ATOM      2  C   UNL     1       1.009   4.882 -12.149  0.00  0.00    +0.056 C 
ATOM      3  C   UNL     1       1.779   5.723 -11.183  0.00  0.00    +0.101 C 
ATOM      4  C   UNL     1       1.527   5.920  -9.752  0.00  0.00    +0.171 C 
ATOM      5  N   UNL     1       0.710   5.198  -9.045  0.00  0.00    -0.153 NA
ATOM      6  C   UNL     1       2.723   6.616  -9.262  0.00  0.00    +0.292 C 
ATOM      7  O   UNL     1       2.977   6.848  -8.051  0.00  0.00    -0.266 OA
ATOM      8  N   UNL     1       3.569   6.773 -10.407  0.00  0.00    -0.154 N 
ATOM      9  N   UNL     1       2.816   6.408 -11.539  0.00  0.00    -0.174 NA
BRANCH   8  10
ATOM     10  C   UNL     1       4.980   7.008 -10.330  0.00  0.00    +0.077 A 
ATOM     11  C   UNL     1       5.807   6.095  -9.686  0.00  0.00    +0.012 A 
ATOM     12  C   UNL     1       7.081   5.868 -10.165  0.00  0.00    -0.024 A 
ATOM     13  C   UNL     1       7.953   4.828  -9.556  0.00  0.00    +0.031 C 
ATOM     14  C   UNL     1       7.572   6.496 -11.302  0.00  0.00    -0.026 A 
ATOM     15  C   UNL     1       8.433   5.722 -12.250  0.00  0.00    +0.031 C 
ATOM     16  C   UNL     1       6.855   7.599 -11.745  0.00  0.00    -0.003 A 
ATOM     17  C   UNL     1       5.623   7.900 -11.179  0.00  0.00    +0.016 A 
ENDBRANCH   8  10
ENDBRANCH   1   5
BRANCH   1  18
ATOM     18  C   UNL     1      -0.116   5.674  -6.752  0.00  0.00    +0.130 A 
ATOM     19  C   UNL     1       0.148   5.971  -5.428  0.00  0.00    +0.212 A 
ATOM     20  O   UNL     1       1.471   6.234  -5.072  0.00  0.00    -0.285 OA
ATOM     21  C   UNL     1      -0.828   5.926  -4.443  0.00  0.00    +0.040 A 
ATOM     22  C   UNL     1      -2.138   5.859  -4.898  0.00  0.00    +0.003 A 
ATOM     23  C   UNL     1      -2.453   5.414  -6.176  0.00  0.00    +0.002 A 
ATOM     24  C   UNL     1      -1.427   5.351  -7.079  0.00  0.00    +0.022 A 
BRANCH  21  25
ATOM     25  C   UNL     1      -0.462   5.570  -3.068  0.00  0.00    +0.003 A 
ATOM     26  C   UNL     1       0.821   5.108  -2.820  0.00  0.00    +0.007 A 
ATOM     27  C   UNL     1       1.457   5.320  -1.604  0.00  0.00    +0.080 A 
ATOM     28  C   UNL     1       0.822   6.090  -0.647  0.00  0.00    +0.007 A 
ATOM     29  C   UNL     1      -0.446   6.582  -0.859  0.00  0.00    +0.000 A 
ATOM     30  C   UNL     1      -1.123   6.121  -1.977  0.00  0.00    +0.000 A 
BRANCH  27  31
ATOM     31  C   UNL     1       2.880   5.074  -1.408  0.00  0.00    +0.388 C 
ATOM     32  O   UNL     1       3.697   4.973  -2.527  0.00  0.00    -0.241 OA
ATOM     33  O   UNL     1       3.443   5.399  -0.325  0.00  0.00    -0.241 OA
ENDBRANCH  27  31
ENDBRANCH  21  25
ENDBRANCH   1  18
TORSDOF 5
ENDMDL
MODEL 5
REMARK VINA RESULT:      -9.7      4.141      5.959
REMARK  Name = 
REMARK  5 active torsions:
REMARK  status: ('A' for Active; 'I' for Inactive)
REMARK    1  A    between atoms: N_4  and  C_5
REMARK    2  A    between atoms: N_16  and  N_17
REMARK    3  A    between atoms: N_17  and  C_18
REMARK    4  A    between atoms: C_22  and  C_23
REMARK    5  A    between atoms: C_27  and  C_28
REMARK                            x       y       z     vdW  Elec       q    Type
REMARK                         _______ _______ _______ _____ _____    ______ ____
ROOT
ATOM      1  N   UNL     1      -2.217   6.489  -1.088  0.00  0.00    -0.114 NA
ENDROOT
BRANCH   1   5
ATOM      2  C   UNL     1      -0.534   9.672   1.615  0.00  0.00    +0.056 C 
ATOM      3  C   UNL     1       0.079   8.469   0.974  0.00  0.00    +0.101 C 
ATOM      4  C   UNL     1      -0.598   7.371   0.275  0.00  0.00    +0.171 C 
ATOM      5  N   UNL     1      -1.843   7.396  -0.097  0.00  0.00    -0.153 NA
ATOM      6  C   UNL     1       0.488   6.620  -0.363  0.00  0.00    +0.292 C 
ATOM      7  O   UNL     1       0.329   5.678  -1.184  0.00  0.00    -0.266 OA
ATOM      8  N   UNL     1       1.692   7.309  -0.006  0.00  0.00    -0.154 N 
ATOM      9  N   UNL     1       1.354   8.262   0.974  0.00  0.00    -0.174 NA
BRANCH   8  10
ATOM     10  C   UNL     1       2.924   7.191  -0.728  0.00  0.00    +0.077 A 
ATOM     11  C   UNL     1       3.256   5.995  -1.353  0.00  0.00    +0.012 A 
ATOM     12  C   UNL     1       3.943   6.015  -2.549  0.00  0.00    -0.024 A 
ATOM     13  C   UNL     1       4.227   4.755  -3.289  0.00  0.00    +0.031 C 
ATOM     14  C   UNL     1       4.294   7.197  -3.187  0.00  0.00    -0.026 A 
ATOM     15  C   UNL     1       4.207   7.277  -4.679  0.00  0.00    +0.031 C 
ATOM     16  C   UNL     1       4.218   8.350  -2.417  0.00  0.00    -0.003 A 
ATOM     17  C   UNL     1       3.632   8.306  -1.157  0.00  0.00    +0.016 A 
ENDBRANCH   8  10
ENDBRANCH   1   5
BRANCH   1  18
ATOM     18  C   UNL     1      -2.331   6.835  -2.466  0.00  0.00    +0.130 A 
ATOM     19  C   UNL     1      -2.097   5.935  -3.489  0.00  0.00    +0.212 A 
ATOM     20  O   UNL     1      -2.150   4.575  -3.183  0.00  0.00    -0.285 OA
ATOM     21  C   UNL     1      -1.726   6.334  -4.765  0.00  0.00    +0.040 A 
ATOM     22  C   UNL     1      -1.892   7.685  -5.043  0.00  0.00    +0.003 A 
ATOM     23  C   UNL     1      -1.973   8.640  -4.038  0.00  0.00    +0.002 A 
ATOM     24  C   UNL     1      -2.211   8.185  -2.770  0.00  0.00    +0.022 A 
BRANCH  21  25
ATOM     25  C   UNL     1      -0.864   5.471  -5.579  0.00  0.00    +0.003 A 
ATOM     26  C   UNL     1      -0.956   5.552  -6.960  0.00  0.00    +0.007 A 
ATOM     27  C   UNL     1       0.130   5.296  -7.786  0.00  0.00    +0.080 A 
ATOM     28  C   UNL     1       1.359   5.038  -7.206  0.00  0.00    +0.007 A 
ATOM     29  C   UNL     1       1.498   4.965  -5.839  0.00  0.00    +0.000 A 
ATOM     30  C   UNL     1       0.335   4.972  -5.085  0.00  0.00    +0.000 A 
BRANCH  27  31
ATOM     31  C   UNL     1       0.131   5.619  -9.206  0.00  0.00    +0.388 C 
ATOM     32  O   UNL     1       0.856   6.724  -9.635  0.00  0.00    -0.241 OA
ATOM     33  O   UNL     1      -0.098   4.724 -10.067  0.00  0.00    -0.241 OA
ENDBRANCH  27  31
ENDBRANCH  21  25
ENDBRANCH   1  18
TORSDOF 5
ENDMDL
MODEL 6
REMARK VINA RESULT:      -9.6      2.673      3.557
REMARK  Name = 
REMARK  5 active torsions:
REMARK  status: ('A' for Active; 'I' for Inactive)
REMARK    1  A    between atoms: N_4  and  C_5
REMARK    2  A    between atoms: N_16  and  N_17
REMARK    3  A    between atoms: N_17  and  C_18
REMARK    4  A    between atoms: C_22  and  C_23
REMARK    5  A    between atoms: C_27  and  C_28
REMARK                            x       y       z     vdW  Elec       q    Type
REMARK                         _______ _______ _______ _____ _____    ______ ____
ROOT
ATOM      1  N   UNL     1       3.072   7.188  -5.978  0.00  0.00    -0.114 NA
ENDROOT
BRANCH   1   5
ATOM      2  C   UNL     1       0.170   5.437  -3.014  0.00  0.00    +0.056 C 
ATOM      3  C   UNL     1       1.560   5.966  -2.869  0.00  0.00    +0.101 C 
ATOM      4  C   UNL     1       2.507   6.326  -3.929  0.00  0.00    +0.171 C 
ATOM      5  N   UNL     1       2.191   6.455  -5.183  0.00  0.00    -0.153 NA
ATOM      6  C   UNL     1       3.594   7.019  -3.228  0.00  0.00    +0.292 C 
ATOM      7  O   UNL     1       4.547   7.621  -3.789  0.00  0.00    -0.266 OA
ATOM      8  N   UNL     1       3.218   7.019  -1.845  0.00  0.00    -0.154 N 
ATOM      9  N   UNL     1       2.102   6.170  -1.714  0.00  0.00    -0.174 NA
BRANCH   8  10
ATOM     10  C   UNL     1       3.749   7.929  -0.874  0.00  0.00    +0.077 A 
ATOM     11  C   UNL     1       3.708   9.299  -1.104  0.00  0.00    +0.012 A 
ATOM     12  C   UNL     1       3.509  10.164  -0.048  0.00  0.00    -0.024 A 
ATOM     13  C   UNL     1       3.365  11.628  -0.276  0.00  0.00    +0.031 C 
ATOM     14  C   UNL     1       3.309   9.720   1.252  0.00  0.00    -0.026 A 
ATOM     15  C   UNL     1       2.316  10.427   2.121  0.00  0.00    +0.031 C 
ATOM     16  C   UNL     1       3.643   8.396   1.501  0.00  0.00    -0.003 A 
ATOM     17  C   UNL     1       3.962   7.550   0.446  0.00  0.00    +0.016 A 
ENDBRANCH   8  10
ENDBRANCH   1   5
BRANCH   1  18
ATOM     18  C   UNL     1       3.519   6.754  -7.259  0.00  0.00    +0.130 A 
ATOM     19  C   UNL     1       2.824   7.016  -8.425  0.00  0.00    +0.212 A 
ATOM     20  O   UNL     1       1.897   8.059  -8.410  0.00  0.00    -0.285 OA
ATOM     21  C   UNL     1       2.949   6.231  -9.562  0.00  0.00    +0.040 A 
ATOM     22  C   UNL     1       4.024   5.351  -9.569  0.00  0.00    +0.003 A 
ATOM     23  C   UNL     1       4.649   4.942  -8.398  0.00  0.00    +0.002 A 
ATOM     24  C   UNL     1       4.390   5.672  -7.270  0.00  0.00    +0.022 A 
BRANCH  21  25
ATOM     25  C   UNL     1       1.809   6.075 -10.472  0.00  0.00    +0.003 A 
ATOM     26  C   UNL     1       2.043   6.078 -11.838  0.00  0.00    +0.007 A 
ATOM     27  C   UNL     1       1.242   5.370 -12.723  0.00  0.00    +0.080 A 
ATOM     28  C   UNL     1       0.234   4.571 -12.215  0.00  0.00    +0.007 A 
ATOM     29  C   UNL     1      -0.022   4.526 -10.863  0.00  0.00    +0.000 A 
ATOM     30  C   UNL     1       0.638   5.447 -10.065  0.00  0.00    +0.000 A 
BRANCH  27  31
ATOM     31  C   UNL     1       1.612   5.150 -14.115  0.00  0.00    +0.388 C 
ATOM     32  O   UNL     1       0.837   5.734 -15.109  0.00  0.00    -0.241 OA
ATOM     33  O   UNL     1       2.803   4.861 -14.423  0.00  0.00    -0.241 OA
ENDBRANCH  27  31
ENDBRANCH  21  25
ENDBRANCH   1  18
TORSDOF 5
ENDMDL
MODEL 7
REMARK VINA RESULT:      -9.5      3.304      9.831
REMARK  Name = 
REMARK  5 active torsions:
REMARK  status: ('A' for Active; 'I' for Inactive)
REMARK    1  A    between atoms: N_4  and  C_5
REMARK    2  A    between atoms: N_16  and  N_17
REMARK    3  A    between atoms: N_17  and  C_18
REMARK    4  A    between atoms: C_22  and  C_23
REMARK    5  A    between atoms: C_27  and  C_28
REMARK                            x       y       z     vdW  Elec       q    Type
REMARK                         _______ _______ _______ _____ _____    ______ ____
ROOT
ATOM      1  N   UNL     1       0.935   6.715  -6.853  0.00  0.00    -0.114 NA
ENDROOT
BRANCH   1   5
ATOM      2  C   UNL     1       0.930   4.262 -10.629  0.00  0.00    +0.056 C 
ATOM      3  C   UNL     1       1.718   5.460 -10.209  0.00  0.00    +0.101 C 
ATOM      4  C   UNL     1       1.506   6.319  -9.039  0.00  0.00    +0.171 C 
ATOM      5  N   UNL     1       0.718   6.026  -8.047  0.00  0.00    -0.153 NA
ATOM      6  C   UNL     1       2.706   7.161  -8.981  0.00  0.00    +0.292 C 
ATOM      7  O   UNL     1       2.993   7.944  -8.037  0.00  0.00    -0.266 OA
ATOM      8  N   UNL     1       3.517   6.748 -10.087  0.00  0.00    -0.154 N 
ATOM      9  N   UNL     1       2.735   5.888 -10.882  0.00  0.00    -0.174 NA
BRANCH   8  10
ATOM     10  C   UNL     1       4.927   6.987 -10.177  0.00  0.00    +0.077 A 
ATOM     11  C   UNL     1       5.822   6.134  -9.542  0.00  0.00    +0.012 A 
ATOM     12  C   UNL     1       7.042   5.864 -10.128  0.00  0.00    -0.024 A 
ATOM     13  C   UNL     1       7.980   4.881  -9.522  0.00  0.00    +0.031 C 
ATOM     14  C   UNL     1       7.409   6.387 -11.361  0.00  0.00    -0.026 A 
ATOM     15  C   UNL     1       8.175   5.531 -12.320  0.00  0.00    +0.031 C 
ATOM     16  C   UNL     1       6.642   7.448 -11.824  0.00  0.00    -0.003 A 
ATOM     17  C   UNL     1       5.471   7.800 -11.163  0.00  0.00    +0.016 A 
ENDBRANCH   8  10
ENDBRANCH   1   5
BRANCH   1  18
ATOM     18  C   UNL     1       1.137   6.068  -5.600  0.00  0.00    +0.130 A 
ATOM     19  C   UNL     1       0.106   5.515  -4.864  0.00  0.00    +0.212 A 
ATOM     20  O   UNL     1      -1.083   5.219  -5.531  0.00  0.00    -0.285 OA
ATOM     21  C   UNL     1       0.181   5.335  -3.491  0.00  0.00    +0.040 A 
ATOM     22  C   UNL     1       1.449   5.459  -2.937  0.00  0.00    +0.003 A 
ATOM     23  C   UNL     1       2.470   6.147  -3.581  0.00  0.00    +0.002 A 
ATOM     24  C   UNL     1       2.291   6.419  -4.910  0.00  0.00    +0.022 A 
BRANCH  21  25
ATOM     25  C   UNL     1      -1.036   5.413  -2.676  0.00  0.00    +0.003 A 
ATOM     26  C   UNL     1      -0.989   6.105  -1.475  0.00  0.00    +0.007 A 
ATOM     27  C   UNL     1      -2.102   6.751  -0.955  0.00  0.00    +0.080 A 
ATOM     28  C   UNL     1      -3.266   6.775  -1.701  0.00  0.00    +0.007 A 
ATOM     29  C   UNL     1      -3.351   6.116  -2.906  0.00  0.00    +0.000 A 
ATOM     30  C   UNL     1      -2.298   5.280  -3.243  0.00  0.00    +0.000 A 
BRANCH  27  31
ATOM     31  C   UNL     1      -2.018   7.687   0.159  0.00  0.00    +0.388 C 
ATOM     32  O   UNL     1      -2.229   7.209   1.446  0.00  0.00    -0.241 OA
ATOM     33  O   UNL     1      -1.341   8.748   0.053  0.00  0.00    -0.241 OA
ENDBRANCH  27  31
ENDBRANCH  21  25
ENDBRANCH   1  18
TORSDOF 5
ENDMDL
MODEL 8
REMARK VINA RESULT:      -9.4      4.271      6.597
REMARK  Name = 
REMARK  5 active torsions:
REMARK  status: ('A' for Active; 'I' for Inactive)
REMARK    1  A    between atoms: N_4  and  C_5
REMARK    2  A    between atoms: N_16  and  N_17
REMARK    3  A    between atoms: N_17  and  C_18
REMARK    4  A    between atoms: C_22  and  C_23
REMARK    5  A    between atoms: C_27  and  C_28
REMARK                            x       y       z     vdW  Elec       q    Type
REMARK                         _______ _______ _______ _____ _____    ______ ____
ROOT
ATOM      1  N   UNL     1      -0.069   6.912  -0.811  0.00  0.00    -0.114 NA
ENDROOT
BRANCH   1   5
ATOM      2  C   UNL     1      -1.146  10.175   2.098  0.00  0.00    +0.056 C 
ATOM      3  C   UNL     1       0.167   9.626   1.643  0.00  0.00    +0.101 C 
ATOM      4  C   UNL     1       0.418   8.421   0.846  0.00  0.00    +0.171 C 
ATOM      5  N   UNL     1      -0.502   7.757   0.211  0.00  0.00    -0.153 NA
ATOM      6  C   UNL     1       1.836   8.512   0.482  0.00  0.00    +0.292 C 
ATOM      7  O   UNL     1       2.425   7.744  -0.325  0.00  0.00    -0.266 OA
ATOM      8  N   UNL     1       2.305   9.729   1.073  0.00  0.00    -0.154 N 
ATOM      9  N   UNL     1       1.290  10.200   1.927  0.00  0.00    -0.174 NA
BRANCH   8  10
ATOM     10  C   UNL     1       3.481  10.424   0.641  0.00  0.00    +0.077 A 
ATOM     11  C   UNL     1       3.430  11.266  -0.464  0.00  0.00    +0.012 A 
ATOM     12  C   UNL     1       4.195  12.414  -0.486  0.00  0.00    -0.024 A 
ATOM     13  C   UNL     1       4.088  13.382  -1.611  0.00  0.00    +0.031 C 
ATOM     14  C   UNL     1       5.003  12.792   0.578  0.00  0.00    -0.026 A 
ATOM     15  C   UNL     1       5.098  14.240   0.945  0.00  0.00    +0.031 C 
ATOM     16  C   UNL     1       5.262  11.809   1.523  0.00  0.00    -0.003 A 
ATOM     17  C   UNL     1       4.577  10.601   1.476  0.00  0.00    +0.016 A 
ENDBRANCH   8  10
ENDBRANCH   1   5
BRANCH   1  18
ATOM     18  C   UNL     1      -0.952   6.285  -1.737  0.00  0.00    +0.130 A 
ATOM     19  C   UNL     1      -0.583   5.966  -3.030  0.00  0.00    +0.212 A 
ATOM     20  O   UNL     1       0.781   5.879  -3.314  0.00  0.00    -0.285 OA
ATOM     21  C   UNL     1      -1.504   5.825  -4.058  0.00  0.00    +0.040 A 
ATOM     22  C   UNL     1      -2.832   5.725  -3.664  0.00  0.00    +0.003 A 
ATOM     23  C   UNL     1      -3.270   6.182  -2.427  0.00  0.00    +0.002 A 
ATOM     24  C   UNL     1      -2.310   6.433  -1.485  0.00  0.00    +0.022 A 
BRANCH  21  25
ATOM     25  C   UNL     1      -1.123   6.164  -5.433  0.00  0.00    +0.003 A 
ATOM     26  C   UNL     1       0.027   6.912  -5.639  0.00  0.00    +0.007 A 
ATOM     27  C   UNL     1       0.793   6.780  -6.789  0.00  0.00    +0.080 A 
ATOM     28  C   UNL     1       0.444   5.812  -7.713  0.00  0.00    +0.007 A 
ATOM     29  C   UNL     1      -0.680   5.037  -7.540  0.00  0.00    +0.000 A 
ATOM     30  C   UNL     1      -1.538   5.392  -6.511  0.00  0.00    +0.000 A 
BRANCH  27  31
ATOM     31  C   UNL     1       2.125   7.356  -6.916  0.00  0.00    +0.388 C 
ATOM     32  O   UNL     1       2.337   8.331  -7.883  0.00  0.00    -0.241 OA
ATOM     33  O   UNL     1       2.923   7.348  -5.936  0.00  0.00    -0.241 OA
ENDBRANCH  27  31
ENDBRANCH  21  25
ENDBRANCH   1  18
TORSDOF 5
ENDMDL
MODEL 9
REMARK VINA RESULT:      -9.3      3.815      5.430
REMARK  Name = 
REMARK  5 active torsions:
REMARK  status: ('A' for Active; 'I' for Inactive)
REMARK    1  A    between atoms: N_4  and  C_5
REMARK    2  A    between atoms: N_16  and  N_17
REMARK    3  A    between atoms: N_17  and  C_18
REMARK    4  A    between atoms: C_22  and  C_23
REMARK    5  A    between atoms: C_27  and  C_28
REMARK                            x       y       z     vdW  Elec       q    Type
REMARK                         _______ _______ _______ _____ _____    ______ ____
ROOT
ATOM      1  N   UNL     1      -0.299   6.302  -1.709  0.00  0.00    -0.114 NA
ENDROOT
BRANCH   1   5
ATOM      2  C   UNL     1      -1.663   9.137   1.512  0.00  0.00    +0.056 C 
ATOM      3  C   UNL     1      -0.315   8.613   1.138  0.00  0.00    +0.101 C 
ATOM      4  C   UNL     1       0.009   7.530   0.203  0.00  0.00    +0.171 C 
ATOM      5  N   UNL     1      -0.838   7.002  -0.629  0.00  0.00    -0.153 NA
ATOM      6  C   UNL     1       1.463   7.622   0.028  0.00  0.00    +0.292 C 
ATOM      7  O   UNL     1       2.132   6.961  -0.811  0.00  0.00    -0.266 OA
ATOM      8  N   UNL     1       1.879   8.721   0.847  0.00  0.00    -0.154 N 
ATOM      9  N   UNL     1       0.775   9.097   1.636  0.00  0.00    -0.174 NA
BRANCH   8  10
ATOM     10  C   UNL     1       3.112   9.428   0.667  0.00  0.00    +0.077 A 
ATOM     11  C   UNL     1       3.211  10.426  -0.296  0.00  0.00    +0.012 A 
ATOM     12  C   UNL     1       3.995  11.535  -0.053  0.00  0.00    -0.024 A 
ATOM     13  C   UNL     1       4.044  12.663  -1.023  0.00  0.00    +0.031 C 
ATOM     14  C   UNL     1       4.674  11.721   1.144  0.00  0.00    -0.026 A 
ATOM     15  C   UNL     1       4.751  13.094   1.735  0.00  0.00    +0.031 C 
ATOM     16  C   UNL     1       4.797  10.600   1.953  0.00  0.00    -0.003 A 
ATOM     17  C   UNL     1       4.100   9.439   1.643  0.00  0.00    +0.016 A 
ENDBRANCH   8  10
ENDBRANCH   1   5
BRANCH   1  18
ATOM     18  C   UNL     1      -0.899   6.268  -3.000  0.00  0.00    +0.130 A 
ATOM     19  C   UNL     1      -0.277   5.716  -4.104  0.00  0.00    +0.212 A 
ATOM     20  O   UNL     1       0.768   4.819  -3.881  0.00  0.00    -0.285 OA
ATOM     21  C   UNL     1      -0.590   6.090  -5.403  0.00  0.00    +0.040 A 
ATOM     22  C   UNL     1      -1.760   6.822  -5.552  0.00  0.00    +0.003 A 
ATOM     23  C   UNL     1      -2.331   7.522  -4.496  0.00  0.00    +0.002 A 
ATOM     24  C   UNL     1      -1.893   7.209  -3.238  0.00  0.00    +0.022 A 
BRANCH  21  25
ATOM     25  C   UNL     1       0.444   6.053  -6.443  0.00  0.00    +0.003 A 
ATOM     26  C   UNL     1       0.111   5.559  -7.695  0.00  0.00    +0.007 A 
ATOM     27  C   UNL     1       0.732   6.009  -8.852  0.00  0.00    +0.080 A 
ATOM     28  C   UNL     1       1.648   7.040  -8.758  0.00  0.00    +0.007 A 
ATOM     29  C   UNL     1       1.996   7.571  -7.536  0.00  0.00    +0.000 A 
ATOM     30  C   UNL     1       1.539   6.908  -6.408  0.00  0.00    +0.000 A 
BRANCH  27  31
ATOM     31  C   UNL     1       0.230   5.699 -10.185  0.00  0.00    +0.388 C 
ATOM     32  O   UNL     1      -0.010   4.371 -10.512  0.00  0.00    -0.241 OA
ATOM     33  O   UNL     1      -0.402   6.568 -10.849  0.00  0.00    -0.241 OA
ENDBRANCH  27  31
ENDBRANCH  21  25
ENDBRANCH   1  18
TORSDOF 5
ENDMDL
