MODEL 1
REMARK VINA RESULT:      -8.3      0.000      0.000
REMARK  Name = 
REMARK  2 active torsions:
REMARK  status: ('A' for Active; 'I' for Inactive)
REMARK    1  A    between atoms: C_2  and  C_3
REMARK    2  A    between atoms: C_3  and  N_4
REMARK                            x       y       z     vdW  Elec       q    Type
REMARK                         _______ _______ _______ _____ _____    ______ ____
ROOT
ATOM      1  N   UNL     1       2.110   5.890  -9.353  0.00  0.00    -0.268 NA
ATOM      2  C   UNL     1       1.552   4.723  -8.445  0.00  0.00    +0.091 C 
ATOM      3  C   UNL     1       2.300   5.283  -7.103  0.00  0.00    +0.148 C 
ATOM      4  C   UNL     1       1.604   6.366  -6.540  0.00  0.00    +0.094 C 
ATOM      5  C   UNL     1       2.343   6.765  -5.138  0.00  0.00    +0.228 C 
ATOM      6  O   UNL     1       1.058   7.306  -4.450  0.00  0.00    -0.468 OA
ATOM      7  C   UNL     1      -0.008   6.910  -5.149  0.00  0.00    +0.173 A 
ATOM      8  C   UNL     1      -1.374   7.009  -4.906  0.00  0.00    +0.229 A 
ATOM      9  C   UNL     1      -2.255   6.355  -5.772  0.00  0.00    +0.045 A 
ATOM     10  C   UNL     1      -1.776   5.544  -6.804  0.00  0.00    -0.001 A 
ATOM     11  C   UNL     1      -0.412   5.285  -6.950  0.00  0.00    -0.021 A 
ATOM     12  O   UNL     1      -1.804   7.537  -3.684  0.00  0.00    -0.283 OA
ATOM     13  C   UNL     1       2.251   5.266  -4.506  0.00  0.00    +0.191 C 
ATOM     14  O   UNL     1       1.345   5.014  -3.803  0.00  0.00    -0.292 OA
ATOM     15  C   UNL     1       3.184   4.288  -5.122  0.00  0.00    +0.071 C 
ATOM     16  C   UNL     1       0.345   5.919  -5.983  0.00  0.00    +0.017 A 
ATOM     17  C   UNL     1       1.620   7.501  -7.459  0.00  0.00    +0.028 C 
ATOM     18  C   UNL     1       2.367   3.951  -6.369  0.00  0.00    +0.040 C 
ATOM     19  O   UNL     1       3.606   5.530  -7.479  0.00  0.00    -0.224 OA
ATOM     20  C   UNL     1       0.104   5.473  -8.325  0.00  0.00    +0.045 C 
ATOM     21  C   UNL     1       1.767   7.104  -8.825  0.00  0.00    +0.073 C 
ENDROOT
BRANCH   1  22
ATOM     22  C   UNL     1       1.227   5.654 -10.503  0.00  0.00    +0.099 C 
BRANCH  22  24
ATOM     23  C   UNL     1       1.791   6.069 -12.325  0.00  0.00    -0.003 C 
ATOM     24  C   UNL     1       1.766   6.199 -11.774  0.00  0.00    -0.009 C 
ENDBRANCH  22  24
ENDBRANCH   1  22
TORSDOF 2
ENDMDL
MODEL 2
REMARK VINA RESULT:      -7.9      2.188      5.035
REMARK  Name = 
REMARK  2 active torsions:
REMARK  status: ('A' for Active; 'I' for Inactive)
REMARK    1  A    between atoms: C_2  and  C_3
REMARK    2  A    between atoms: C_3  and  N_4
REMARK                            x       y       z     vdW  Elec       q    Type
REMARK                         _______ _______ _______ _____ _____    ______ ____
ROOT
ATOM      1  N   UNL     1      -0.233   5.609  -4.968  0.00  0.00    -0.268 NA
ATOM      2  C   UNL     1       0.672   6.904  -4.983  0.00  0.00    +0.091 C 
ATOM      3  C   UNL     1       1.984   6.107  -4.419  0.00  0.00    +0.148 C 
ATOM      4  C   UNL     1       2.616   5.373  -5.437  0.00  0.00    +0.094 C 
ATOM      5  C   UNL     1       3.984   4.727  -4.817  0.00  0.00    +0.228 C 
ATOM      6  O   UNL     1       4.760   4.719  -6.164  0.00  0.00    -0.468 OA
ATOM      7  C   UNL     1       4.112   5.487  -7.043  0.00  0.00    +0.173 A 
ATOM      8  C   UNL     1       4.435   5.916  -8.326  0.00  0.00    +0.229 A 
ATOM      9  C   UNL     1       3.603   6.853  -8.946  0.00  0.00    +0.045 A 
ATOM     10  C   UNL     1       2.523   7.416  -8.262  0.00  0.00    -0.001 A 
ATOM     11  C   UNL     1       2.292   7.137  -6.914  0.00  0.00    -0.021 A 
ATOM     12  O   UNL     1       5.694   5.597  -8.845  0.00  0.00    -0.283 OA
ATOM     13  C   UNL     1       4.579   6.151  -4.293  0.00  0.00    +0.191 C 
ATOM     14  O   UNL     1       5.325   6.732  -4.990  0.00  0.00    -0.292 OA
ATOM     15  C   UNL     1       3.883   6.699  -3.100  0.00  0.00    +0.071 C 
ATOM     16  C   UNL     1       3.232   6.267  -6.394  0.00  0.00    +0.017 A 
ATOM     17  C   UNL     1       1.730   4.312  -5.911  0.00  0.00    +0.028 C 
ATOM     18  C   UNL     1       2.676   7.317  -3.806  0.00  0.00    +0.040 C 
ATOM     19  O   UNL     1       1.541   5.380  -3.331  0.00  0.00    -0.224 OA
ATOM     20  C   UNL     1       0.895   6.761  -6.596  0.00  0.00    +0.045 C 
ATOM     21  C   UNL     1       0.347   4.619  -5.712  0.00  0.00    +0.073 C 
ENDROOT
BRANCH   1  22
ATOM     22  C   UNL     1      -1.336   6.158  -5.766  0.00  0.00    +0.099 C 
BRANCH  22  24
ATOM     23  C   UNL     1      -2.747   7.280  -5.016  0.00  0.00    -0.003 C 
ATOM     24  C   UNL     1      -2.336   6.896  -4.954  0.00  0.00    -0.009 C 
ENDBRANCH  22  24
ENDBRANCH   1  22
TORSDOF 2
ENDMDL
MODEL 3
REMARK VINA RESULT:      -7.6      2.646      5.218
REMARK  Name = 
REMARK  2 active torsions:
REMARK  status: ('A' for Active; 'I' for Inactive)
REMARK    1  A    between atoms: C_2  and  C_3
REMARK    2  A    between atoms: C_3  and  N_4
REMARK                            x       y       z     vdW  Elec       q    Type
REMARK                         _______ _______ _______ _____ _____    ______ ____
ROOT
ATOM      1  N   UNL     1      -1.129   5.745  -4.705  0.00  0.00    -0.268 NA
ATOM      2  C   UNL     1       0.049   4.703  -4.561  0.00  0.00    +0.091 C 
ATOM      3  C   UNL     1       0.795   5.216  -5.923  0.00  0.00    +0.148 C 
ATOM      4  C   UNL     1       1.510   6.405  -5.700  0.00  0.00    +0.094 C 
ATOM      5  C   UNL     1       2.329   6.763  -7.068  0.00  0.00    +0.228 C 
ATOM      6  O   UNL     1       3.494   7.498  -6.348  0.00  0.00    -0.468 OA
ATOM      7  C   UNL     1       3.444   7.218  -5.044  0.00  0.00    +0.173 A 
ATOM      8  C   UNL     1       4.306   7.508  -3.992  0.00  0.00    +0.229 A 
ATOM      9  C   UNL     1       4.048   6.939  -2.741  0.00  0.00    +0.045 A 
ATOM     10  C   UNL     1       3.002   6.028  -2.570  0.00  0.00    -0.001 A 
ATOM     11  C   UNL     1       2.242   5.585  -3.652  0.00  0.00    -0.021 A 
ATOM     12  O   UNL     1       5.522   8.140  -4.273  0.00  0.00    -0.283 OA
ATOM     13  C   UNL     1       3.077   5.318  -7.160  0.00  0.00    +0.191 C 
ATOM     14  O   UNL     1       4.153   5.219  -6.699  0.00  0.00    -0.292 OA
ATOM     15  C   UNL     1       2.190   4.200  -7.570  0.00  0.00    +0.071 C 
ATOM     16  C   UNL     1       2.650   6.153  -4.844  0.00  0.00    +0.017 A 
ATOM     17  C   UNL     1       0.588   7.488  -5.368  0.00  0.00    +0.028 C 
ATOM     18  C   UNL     1       1.537   3.920  -6.216  0.00  0.00    +0.040 C 
ATOM     19  O   UNL     1      -0.190   5.271  -6.890  0.00  0.00    -0.224 OA
ATOM     20  C   UNL     1       0.777   5.643  -3.438  0.00  0.00    +0.045 C 
ATOM     21  C   UNL     1      -0.630   7.016  -4.783  0.00  0.00    +0.073 C 
ENDROOT
BRANCH   1  22
ATOM     22  C   UNL     1      -1.677   5.579  -3.352  0.00  0.00    +0.099 C 
BRANCH  22  24
ATOM     23  C   UNL     1      -3.546   5.912  -2.902  0.00  0.00    -0.003 C 
ATOM     24  C   UNL     1      -3.142   5.804  -3.283  0.00  0.00    -0.009 C 
ENDBRANCH  22  24
ENDBRANCH   1  22
TORSDOF 2
ENDMDL
MODEL 4
REMARK VINA RESULT:      -7.6      2.868      4.739
REMARK  Name = 
REMARK  2 active torsions:
REMARK  status: ('A' for Active; 'I' for Inactive)
REMARK    1  A    between atoms: C_2  and  C_3
REMARK    2  A    between atoms: C_3  and  N_4
REMARK                            x       y       z     vdW  Elec       q    Type
REMARK                         _______ _______ _______ _____ _____    ______ ____
ROOT
ATOM      1  N   UNL     1       4.824   5.186  -9.746  0.00  0.00    -0.268 NA
ATOM      2  C   UNL     1       4.020   6.539  -9.883  0.00  0.00    +0.091 C 
ATOM      3  C   UNL     1       2.743   5.816 -10.607  0.00  0.00    +0.148 C 
ATOM      4  C   UNL     1       1.927   5.156  -9.673  0.00  0.00    +0.094 C 
ATOM      5  C   UNL     1       0.616   4.587 -10.464  0.00  0.00    +0.228 C 
ATOM      6  O   UNL     1      -0.336   4.671  -9.238  0.00  0.00    -0.468 OA
ATOM      7  C   UNL     1       0.238   5.419  -8.293  0.00  0.00    +0.173 A 
ATOM      8  C   UNL     1      -0.228   5.906  -7.076  0.00  0.00    +0.229 A 
ATOM      9  C   UNL     1       0.576   6.803  -6.365  0.00  0.00    +0.045 A 
ATOM     10  C   UNL     1       1.777   7.271  -6.904  0.00  0.00    -0.001 A 
ATOM     11  C   UNL     1       2.170   6.937  -8.200  0.00  0.00    -0.021 A 
ATOM     12  O   UNL     1      -1.565   5.688  -6.730  0.00  0.00    -0.283 OA
ATOM     13  C   UNL     1       0.201   6.032 -11.093  0.00  0.00    +0.191 C 
ATOM     14  O   UNL     1      -0.591   6.682 -10.519  0.00  0.00    -0.292 OA
ATOM     15  C   UNL     1       1.090   6.496 -12.189  0.00  0.00    +0.071 C 
ATOM     16  C   UNL     1       1.252   6.118  -8.829  0.00  0.00    +0.017 A 
ATOM     17  C   UNL     1       2.662   4.053  -9.059  0.00  0.00    +0.028 C 
ATOM     18  C   UNL     1       2.230   7.051 -11.335  0.00  0.00    +0.040 C 
ATOM     19  O   UNL     1       3.279   5.029 -11.609  0.00  0.00    -0.224 OA
ATOM     20  C   UNL     1       3.567   6.459  -8.313  0.00  0.00    +0.045 C 
ATOM     21  C   UNL     1       4.078   4.259  -9.071  0.00  0.00    +0.073 C 
ENDROOT
BRANCH   1  22
ATOM     22  C   UNL     1       5.843   5.682  -8.813  0.00  0.00    +0.099 C 
BRANCH  22  24
ATOM     23  C   UNL     1       7.491   5.945  -9.827  0.00  0.00    -0.003 C 
ATOM     24  C   UNL     1       7.208   5.708  -9.398  0.00  0.00    -0.009 C 
ENDBRANCH  22  24
ENDBRANCH   1  22
TORSDOF 2
ENDMDL
MODEL 5
REMARK VINA RESULT:      -7.4      2.417      5.801
REMARK  Name = 
REMARK  2 active torsions:
REMARK  status: ('A' for Active; 'I' for Inactive)
REMARK    1  A    between atoms: C_2  and  C_3
REMARK    2  A    between atoms: C_3  and  N_4
REMARK                            x       y       z     vdW  Elec       q    Type
REMARK                         _______ _______ _______ _____ _____    ______ ____
ROOT
ATOM      1  N   UNL     1       3.190   5.806  -3.858  0.00  0.00    -0.268 NA
ATOM      2  C   UNL     1       2.864   4.675  -4.911  0.00  0.00    +0.091 C 
ATOM      3  C   UNL     1       1.793   5.608  -5.722  0.00  0.00    +0.148 C 
ATOM      4  C   UNL     1       2.444   6.525  -6.563  0.00  0.00    +0.094 C 
ATOM      5  C   UNL     1       1.302   7.312  -7.429  0.00  0.00    +0.228 C 
ATOM      6  O   UNL     1       2.212   7.570  -8.663  0.00  0.00    -0.468 OA
ATOM      7  C   UNL     1       3.298   6.799  -8.570  0.00  0.00    +0.173 A 
ATOM      8  C   UNL     1       4.346   6.550  -9.450  0.00  0.00    +0.229 A 
ATOM      9  C   UNL     1       5.275   5.560  -9.119  0.00  0.00    +0.045 A 
ATOM     10  C   UNL     1       5.108   4.773  -7.976  0.00  0.00    -0.001 A 
ATOM     11  C   UNL     1       3.967   4.883  -7.181  0.00  0.00    -0.021 A 
ATOM     12  O   UNL     1       4.295   7.109 -10.731  0.00  0.00    -0.283 OA
ATOM     13  C   UNL     1       0.616   5.954  -8.011  0.00  0.00    +0.191 C 
ATOM     14  O   UNL     1       0.959   5.566  -9.065  0.00  0.00    -0.292 OA
ATOM     15  C   UNL     1      -0.174   5.193  -7.009  0.00  0.00    +0.071 C 
ATOM     16  C   UNL     1       3.086   5.833  -7.660  0.00  0.00    +0.017 A 
ATOM     17  C   UNL     1       3.214   7.476  -5.765  0.00  0.00    +0.028 C 
ATOM     18  C   UNL     1       0.980   4.466  -6.317  0.00  0.00    +0.040 C 
ATOM     19  O   UNL     1       0.965   6.149  -4.758  0.00  0.00    -0.224 OA
ATOM     20  C   UNL     1       4.241   5.005  -5.730  0.00  0.00    +0.045 C 
ATOM     21  C   UNL     1       3.606   6.942  -4.497  0.00  0.00    +0.073 C 
ENDROOT
BRANCH   1  22
ATOM     22  C   UNL     1       4.384   5.173  -3.284  0.00  0.00    +0.099 C 
BRANCH  22  24
ATOM     23  C   UNL     1       3.975   4.733  -1.426  0.00  0.00    -0.003 C 
ATOM     24  C   UNL     1       4.299   4.990  -1.813  0.00  0.00    -0.009 C 
ENDBRANCH  22  24
ENDBRANCH   1  22
TORSDOF 2
ENDMDL
MODEL 6
REMARK VINA RESULT:      -7.4      3.106      5.200
REMARK  Name = 
REMARK  2 active torsions:
REMARK  status: ('A' for Active; 'I' for Inactive)
REMARK    1  A    between atoms: C_2  and  C_3
REMARK    2  A    between atoms: C_3  and  N_4
REMARK                            x       y       z     vdW  Elec       q    Type
REMARK                         _______ _______ _______ _____ _____    ______ ____
ROOT
ATOM      1  N   UNL     1       3.349   5.265  -5.581  0.00  0.00    -0.268 NA
ATOM      2  C   UNL     1       2.513   6.536  -5.157  0.00  0.00    +0.091 C 
ATOM      3  C   UNL     1       1.591   5.694  -4.100  0.00  0.00    +0.148 C 
ATOM      4  C   UNL     1       2.276   5.457  -2.897  0.00  0.00    +0.094 C 
ATOM      5  C   UNL     1       1.237   4.738  -1.860  0.00  0.00    +0.228 C 
ATOM      6  O   UNL     1       1.903   5.307  -0.575  0.00  0.00    -0.468 OA
ATOM      7  C   UNL     1       2.731   6.296  -0.917  0.00  0.00    +0.173 A 
ATOM      8  C   UNL     1       3.462   7.206  -0.160  0.00  0.00    +0.229 A 
ATOM      9  C   UNL     1       4.135   8.237  -0.823  0.00  0.00    +0.045 A 
ATOM     10  C   UNL     1       4.003   8.407  -2.204  0.00  0.00    -0.001 A 
ATOM     11  C   UNL     1       3.129   7.618  -2.952  0.00  0.00    -0.021 A 
ATOM     12  O   UNL     1       3.299   7.211   1.228  0.00  0.00    -0.283 OA
ATOM     13  C   UNL     1       0.100   5.899  -1.983  0.00  0.00    +0.191 C 
ATOM     14  O   UNL     1       0.095   6.759  -1.184  0.00  0.00    -0.292 OA
ATOM     15  C   UNL     1      -0.638   5.892  -3.273  0.00  0.00    +0.071 C 
ATOM     16  C   UNL     1       2.460   6.695  -2.170  0.00  0.00    +0.017 A 
ATOM     17  C   UNL     1       3.426   4.589  -3.139  0.00  0.00    +0.028 C 
ATOM     18  C   UNL     1       0.392   6.632  -4.127  0.00  0.00    +0.040 C 
ATOM     19  O   UNL     1       1.164   4.575  -4.787  0.00  0.00    -0.224 OA
ATOM     20  C   UNL     1       3.723   7.037  -4.178  0.00  0.00    +0.045 C 
ATOM     21  C   UNL     1       3.915   4.682  -4.480  0.00  0.00    +0.073 C 
ENDROOT
BRANCH   1  22
ATOM     22  C   UNL     1       4.417   5.984  -6.286  0.00  0.00    +0.099 C 
BRANCH  22  24
ATOM     23  C   UNL     1       5.109   5.378  -8.008  0.00  0.00    -0.003 C 
ATOM     24  C   UNL     1       4.679   5.455  -7.648  0.00  0.00    -0.009 C 
ENDBRANCH  22  24
ENDBRANCH   1  22
TORSDOF 2
ENDMDL
MODEL 7
REMARK VINA RESULT:      -7.3      2.549      5.027
REMARK  Name = 
REMARK  2 active torsions:
REMARK  status: ('A' for Active; 'I' for Inactive)
REMARK    1  A    between atoms: C_2  and  C_3
REMARK    2  A    between atoms: C_3  and  N_4
REMARK                            x       y       z     vdW  Elec       q    Type
REMARK                         _______ _______ _______ _____ _____    ______ ____
ROOT
ATOM      1  N   UNL     1       0.507   5.588  -9.860  0.00  0.00    -0.268 NA
ATOM      2  C   UNL     1       1.276   6.887  -9.395  0.00  0.00    +0.091 C 
ATOM      3  C   UNL     1       1.847   6.175  -8.037  0.00  0.00    +0.148 C 
ATOM      4  C   UNL     1       2.945   5.344  -8.315  0.00  0.00    +0.094 C 
ATOM      5  C   UNL     1       3.529   4.790  -6.893  0.00  0.00    +0.228 C 
ATOM      6  O   UNL     1       4.996   4.646  -7.388  0.00  0.00    -0.468 OA
ATOM      7  C   UNL     1       5.130   5.304  -8.542  0.00  0.00    +0.173 A 
ATOM      8  C   UNL     1       6.241   5.595  -9.328  0.00  0.00    +0.229 A 
ATOM      9  C   UNL     1       6.077   6.446 -10.425  0.00  0.00    +0.045 A 
ATOM     10  C   UNL     1       4.850   7.065 -10.676  0.00  0.00    -0.001 A 
ATOM     11  C   UNL     1       3.776   6.931  -9.794  0.00  0.00    -0.021 A 
ATOM     12  O   UNL     1       7.509   5.239  -8.859  0.00  0.00    -0.283 OA
ATOM     13  C   UNL     1       3.721   6.271  -6.240  0.00  0.00    +0.191 C 
ATOM     14  O   UNL     1       4.774   6.783  -6.324  0.00  0.00    -0.292 OA
ATOM     15  C   UNL     1       2.449   6.935  -5.856  0.00  0.00    +0.071 C 
ATOM     16  C   UNL     1       4.090   6.137  -8.708  0.00  0.00    +0.017 A 
ATOM     17  C   UNL     1       2.524   4.225  -9.155  0.00  0.00    +0.028 C 
ATOM     18  C   UNL     1       2.039   7.455  -7.235  0.00  0.00    +0.040 C 
ATOM     19  O   UNL     1       0.756   5.566  -7.448  0.00  0.00    -0.224 OA
ATOM     20  C   UNL     1       2.493   6.572 -10.441  0.00  0.00    +0.045 C 
ATOM     21  C   UNL     1       1.370   4.531  -9.944  0.00  0.00    +0.073 C 
ENDROOT
BRANCH   1  22
ATOM     22  C   UNL     1       0.232   6.031 -11.233  0.00  0.00    +0.099 C 
BRANCH  22  24
ATOM     23  C   UNL     1      -0.923   7.540 -11.677  0.00  0.00    -0.003 C 
ATOM     24  C   UNL     1      -0.718   7.169 -11.302  0.00  0.00    -0.009 C 
ENDBRANCH  22  24
ENDBRANCH   1  22
TORSDOF 2
ENDMDL
MODEL 8
REMARK VINA RESULT:      -7.3      2.034      4.153
REMARK  Name = 
REMARK  2 active torsions:
REMARK  status: ('A' for Active; 'I' for Inactive)
REMARK    1  A    between atoms: C_2  and  C_3
REMARK    2  A    between atoms: C_3  and  N_4
REMARK                            x       y       z     vdW  Elec       q    Type
REMARK                         _______ _______ _______ _____ _____    ______ ____
ROOT
ATOM      1  N   UNL     1       0.728   5.966  -7.381  0.00  0.00    -0.268 NA
ATOM      2  C   UNL     1       0.687   7.225  -6.428  0.00  0.00    +0.091 C 
ATOM      3  C   UNL     1      -0.373   6.527  -5.396  0.00  0.00    +0.148 C 
ATOM      4  C   UNL     1       0.266   5.612  -4.543  0.00  0.00    +0.094 C 
ATOM      5  C   UNL     1      -0.838   5.073  -3.466  0.00  0.00    +0.228 C 
ATOM      6  O   UNL     1       0.190   4.810  -2.329  0.00  0.00    -0.468 OA
ATOM      7  C   UNL     1       1.340   5.414  -2.636  0.00  0.00    +0.173 A 
ATOM      8  C   UNL     1       2.518   5.599  -1.920  0.00  0.00    +0.229 A 
ATOM      9  C   UNL     1       3.510   6.419  -2.467  0.00  0.00    +0.045 A 
ATOM     10  C   UNL     1       3.290   7.111  -3.661  0.00  0.00    -0.001 A 
ATOM     11  C   UNL     1       2.049   7.083  -4.298  0.00  0.00    -0.021 A 
ATOM     12  O   UNL     1       2.571   5.175  -0.588  0.00  0.00    -0.283 OA
ATOM     13  C   UNL     1      -1.268   6.560  -2.958  0.00  0.00    +0.191 C 
ATOM     14  O   UNL     1      -0.742   6.995  -2.002  0.00  0.00    -0.292 OA
ATOM     15  C   UNL     1      -2.085   7.324  -3.937  0.00  0.00    +0.071 C 
ATOM     16  C   UNL     1       1.129   6.310  -3.614  0.00  0.00    +0.017 A 
ATOM     17  C   UNL     1       0.800   4.495  -5.318  0.00  0.00    +0.028 C 
ATOM     18  C   UNL     1      -0.953   7.819  -4.838  0.00  0.00    +0.040 C 
ATOM     19  O   UNL     1      -1.383   6.015  -6.189  0.00  0.00    -0.224 OA
ATOM     20  C   UNL     1       2.109   6.789  -5.748  0.00  0.00    +0.045 C 
ATOM     21  C   UNL     1       1.083   4.850  -6.675  0.00  0.00    +0.073 C 
ENDROOT
BRANCH   1  22
ATOM     22  C   UNL     1       1.903   6.375  -8.160  0.00  0.00    +0.099 C 
BRANCH  22  24
ATOM     23  C   UNL     1       1.156   6.641  -9.944  0.00  0.00    -0.003 C 
ATOM     24  C   UNL     1       1.590   6.668  -9.582  0.00  0.00    -0.009 C 
ENDBRANCH  22  24
ENDBRANCH   1  22
TORSDOF 2
ENDMDL
MODEL 9
REMARK VINA RESULT:      -7.0      2.758      6.212
REMARK  Name = 
REMARK  2 active torsions:
REMARK  status: ('A' for Active; 'I' for Inactive)
REMARK    1  A    between atoms: C_2  and  C_3
REMARK    2  A    between atoms: C_3  and  N_4
REMARK                            x       y       z     vdW  Elec       q    Type
REMARK                         _______ _______ _______ _____ _____    ______ ____
ROOT
ATOM      1  N   UNL     1       2.445   5.694  -5.903  0.00  0.00    -0.268 NA
ATOM      2  C   UNL     1       2.854   4.559  -6.923  0.00  0.00    +0.091 C 
ATOM      3  C   UNL     1       2.039   5.249  -8.162  0.00  0.00    +0.148 C 
ATOM      4  C   UNL     1       2.756   6.324  -8.714  0.00  0.00    +0.094 C 
ATOM      5  C   UNL     1       1.935   6.857 -10.023  0.00  0.00    +0.228 C 
ATOM      6  O   UNL     1       3.193   7.366 -10.781  0.00  0.00    -0.468 OA
ATOM      7  C   UNL     1       4.283   6.865 -10.198  0.00  0.00    +0.173 A 
ATOM      8  C   UNL     1       5.630   6.900 -10.547  0.00  0.00    +0.229 A 
ATOM      9  C   UNL     1       6.533   6.140  -9.798  0.00  0.00    +0.045 A 
ATOM     10  C   UNL     1       6.087   5.292  -8.781  0.00  0.00    -0.001 A 
ATOM     11  C   UNL     1       4.726   5.104  -8.539  0.00  0.00    -0.021 A 
ATOM     12  O   UNL     1       5.994   7.481 -11.766  0.00  0.00    -0.283 OA
ATOM     13  C   UNL     1       1.882   5.400 -10.751  0.00  0.00    +0.191 C 
ATOM     14  O   UNL     1       2.712   5.143 -11.540  0.00  0.00    -0.292 OA
ATOM     15  C   UNL     1       0.940   4.439 -10.120  0.00  0.00    +0.071 C 
ATOM     16  C   UNL     1       3.936   5.842  -9.400  0.00  0.00    +0.017 A 
ATOM     17  C   UNL     1       2.884   7.396  -7.730  0.00  0.00    +0.028 C 
ATOM     18  C   UNL     1       1.831   3.973  -8.968  0.00  0.00    +0.040 C 
ATOM     19  O   UNL     1       0.785   5.546  -7.665  0.00  0.00    -0.224 OA
ATOM     20  C   UNL     1       4.333   5.231  -7.117  0.00  0.00    +0.045 C 
ATOM     21  C   UNL     1       2.821   6.919  -6.383  0.00  0.00    +0.073 C 
ENDROOT
BRANCH   1  22
ATOM     22  C   UNL     1       3.399   5.332  -4.847  0.00  0.00    +0.099 C 
BRANCH  22  24
ATOM     23  C   UNL     1       2.910   5.514  -2.966  0.00  0.00    -0.003 C 
ATOM     24  C   UNL     1       2.945   5.726  -3.490  0.00  0.00    -0.009 C 
ENDBRANCH  22  24
ENDBRANCH   1  22
TORSDOF 2
ENDMDL
