MODEL 1
REMARK VINA RESULT:      -9.9      0.000      0.000
REMARK  Name = 
REMARK  6 active torsions:
REMARK  status: ('A' for Active; 'I' for Inactive)
REMARK    1  A    between atoms: C_2  and  C_3
REMARK    2  A    between atoms: C_2  and  C_19
REMARK    3  A    between atoms: C_3  and  N_4
REMARK    4  A    between atoms: N_4  and  C_5
REMARK    5  A    between atoms: C_5  and  C_6
REMARK    6  A    between atoms: C_6  and  C_8
REMARK                            x       y       z     vdW  Elec       q    Type
REMARK                         _______ _______ _______ _____ _____    ______ ____
ROOT
ATOM      1  N   UNL     1       4.066   5.811  -7.103  0.00  0.00    -0.212 NA
ENDROOT
BRANCH   1   2
ATOM      2  C   UNL     1       3.727   6.786  -6.110  0.00  0.00    +0.125 C 
BRANCH   2   4
ATOM      3  O   UNL     1       3.802   6.732  -3.839  0.00  0.00    -0.218 OA
ATOM      4  C   UNL     1       3.253   5.800  -4.889  0.00  0.00    +0.209 C 
BRANCH   4   5
ATOM      5  C   UNL     1       1.665   6.445  -4.692  0.00  0.00    +0.198 C 
ATOM      6  O   UNL     1       0.979   5.559  -5.732  0.00  0.00    -0.477 OA
ATOM      7  C   UNL     1      -0.375   5.388  -5.436  0.00  0.00    +0.135 A 
ATOM      8  C   UNL     1      -0.918   5.742  -4.205  0.00  0.00    +0.014 A 
ATOM      9  C   UNL     1      -2.043   6.558  -4.147  0.00  0.00    +0.028 A 
ATOM     10  C   UNL     1      -2.706   6.930  -5.313  0.00  0.00    +0.140 A 
ATOM     11  C   UNL     1      -2.524   6.030  -6.360  0.00  0.00    +0.033 A 
ATOM     12  F   UNL     1      -3.137   8.209  -5.523  0.00  0.00    -0.204 F 
ATOM     13  C   UNL     1      -0.052   5.698  -2.999  0.00  0.00    +0.033 C 
ATOM     14  C   UNL     1      -1.348   5.284  -6.426  0.00  0.00    +0.039 A 
ATOM     15  C   UNL     1       1.333   5.426  -3.463  0.00  0.00    +0.051 C 
ENDBRANCH   4   5
ENDBRANCH   2   4
ENDBRANCH   1   2
BRANCH   1  16
ATOM     16  C   UNL     1       3.298   5.997  -8.241  0.00  0.00    +0.125 C 
BRANCH  16  17
ATOM     17  C   UNL     1       3.697   4.996  -9.460  0.00  0.00    +0.209 C 
ATOM     18  O   UNL     1       2.241   4.645  -9.652  0.00  0.00    -0.218 OA
BRANCH  17  19
ATOM     19  C   UNL     1       3.642   6.232 -10.657  0.00  0.00    +0.198 C 
ATOM     20  O   UNL     1       5.002   6.743 -10.208  0.00  0.00    -0.477 OA
ATOM     21  C   UNL     1       6.164   6.277 -10.709  0.00  0.00    +0.135 A 
ATOM     22  C   UNL     1       6.253   6.367 -12.098  0.00  0.00    +0.014 A 
ATOM     23  C   UNL     1       7.358   5.788 -12.688  0.00  0.00    +0.028 A 
ATOM     24  C   UNL     1       8.568   5.888 -12.026  0.00  0.00    +0.140 A 
ATOM     25  C   UNL     1       8.544   6.064 -10.670  0.00  0.00    +0.033 A 
ATOM     26  F   UNL     1       9.692   6.036 -12.786  0.00  0.00    -0.204 F 
ATOM     27  C   UNL     1       4.921   6.173 -12.761  0.00  0.00    +0.033 C 
ATOM     28  C   UNL     1       7.359   6.281  -9.995  0.00  0.00    +0.039 A 
ATOM     29  C   UNL     1       4.191   5.226 -11.821  0.00  0.00    +0.051 C 
ENDBRANCH  17  19
ENDBRANCH  16  17
ENDBRANCH   1  16
TORSDOF 6
ENDMDL
MODEL 2
REMARK VINA RESULT:      -9.9      1.934      9.482
REMARK  Name = 
REMARK  6 active torsions:
REMARK  status: ('A' for Active; 'I' for Inactive)
REMARK    1  A    between atoms: C_2  and  C_3
REMARK    2  A    between atoms: C_2  and  C_19
REMARK    3  A    between atoms: C_3  and  N_4
REMARK    4  A    between atoms: N_4  and  C_5
REMARK    5  A    between atoms: C_5  and  C_6
REMARK    6  A    between atoms: C_6  and  C_8
REMARK                            x       y       z     vdW  Elec       q    Type
REMARK                         _______ _______ _______ _____ _____    ______ ____
ROOT
ATOM      1  N   UNL     1       4.588   5.656  -4.635  0.00  0.00    -0.212 NA
ENDROOT
BRANCH   1   2
ATOM      2  C   UNL     1       3.836   6.401  -5.600  0.00  0.00    +0.125 C 
BRANCH   2   4
ATOM      3  O   UNL     1       2.048   5.684  -6.806  0.00  0.00    -0.218 OA
ATOM      4  C   UNL     1       3.471   5.208  -6.663  0.00  0.00    +0.209 C 
BRANCH   4   5
ATOM      5  C   UNL     1       3.940   6.042  -8.097  0.00  0.00    +0.198 C 
ATOM      6  O   UNL     1       5.424   5.676  -8.044  0.00  0.00    -0.477 OA
ATOM      7  C   UNL     1       5.992   5.677  -9.320  0.00  0.00    +0.135 A 
ATOM      8  C   UNL     1       5.220   5.719 -10.478  0.00  0.00    +0.014 A 
ATOM      9  C   UNL     1       5.483   6.670 -11.457  0.00  0.00    +0.028 A 
ATOM     10  C   UNL     1       6.589   7.509 -11.348  0.00  0.00    +0.140 A 
ATOM     11  C   UNL     1       7.616   6.969 -10.576  0.00  0.00    +0.033 A 
ATOM     12  F   UNL     1       6.512   8.845 -11.618  0.00  0.00    -0.204 F 
ATOM     13  C   UNL     1       3.855   5.134 -10.451  0.00  0.00    +0.033 C 
ATOM     14  C   UNL     1       7.305   6.076  -9.552  0.00  0.00    +0.039 A 
ATOM     15  C   UNL     1       3.561   4.769  -9.042  0.00  0.00    +0.051 C 
ENDBRANCH   4   5
ENDBRANCH   2   4
ENDBRANCH   1   2
BRANCH   1  16
ATOM     16  C   UNL     1       4.204   6.006  -3.351  0.00  0.00    +0.125 C 
BRANCH  16  17
ATOM     17  C   UNL     1       3.053   5.036  -2.734  0.00  0.00    +0.209 C 
ATOM     18  O   UNL     1       3.993   4.621  -1.626  0.00  0.00    -0.218 OA
BRANCH  17  19
ATOM     19  C   UNL     1       2.343   6.278  -1.777  0.00  0.00    +0.198 C 
ATOM     20  O   UNL     1       1.406   6.637  -2.920  0.00  0.00    -0.477 OA
ATOM     21  C   UNL     1       0.203   6.053  -3.094  0.00  0.00    +0.135 A 
ATOM     22  C   UNL     1      -0.632   6.142  -1.981  0.00  0.00    +0.014 A 
ATOM     23  C   UNL     1      -1.825   5.452  -2.044  0.00  0.00    +0.028 A 
ATOM     24  C   UNL     1      -2.486   5.416  -3.258  0.00  0.00    +0.140 A 
ATOM     25  C   UNL     1      -1.747   5.585  -4.396  0.00  0.00    +0.033 A 
ATOM     26  F   UNL     1      -3.851   5.448  -3.234  0.00  0.00    -0.204 F 
ATOM     27  C   UNL     1       0.138   6.097  -0.694  0.00  0.00    +0.033 C 
ATOM     28  C   UNL     1      -0.408   5.923  -4.338  0.00  0.00    +0.039 A 
ATOM     29  C   UNL     1       1.341   5.227  -1.031  0.00  0.00    +0.051 C 
ENDBRANCH  17  19
ENDBRANCH  16  17
ENDBRANCH   1  16
TORSDOF 6
ENDMDL
MODEL 3
REMARK VINA RESULT:      -9.8      2.451      8.302
REMARK  Name = 
REMARK  6 active torsions:
REMARK  status: ('A' for Active; 'I' for Inactive)
REMARK    1  A    between atoms: C_2  and  C_3
REMARK    2  A    between atoms: C_2  and  C_19
REMARK    3  A    between atoms: C_3  and  N_4
REMARK    4  A    between atoms: N_4  and  C_5
REMARK    5  A    between atoms: C_5  and  C_6
REMARK    6  A    between atoms: C_6  and  C_8
REMARK                            x       y       z     vdW  Elec       q    Type
REMARK                         _______ _______ _______ _____ _____    ______ ____
ROOT
ATOM      1  N   UNL     1       1.033   6.154  -8.780  0.00  0.00    -0.212 NA
ENDROOT
BRANCH   1   2
ATOM      2  C   UNL     1       1.876   5.296  -9.558  0.00  0.00    +0.125 C 
BRANCH   2   4
ATOM      3  O   UNL     1       2.876   3.500  -8.590  0.00  0.00    -0.218 OA
ATOM      4  C   UNL     1       3.061   4.991  -8.468  0.00  0.00    +0.209 C 
BRANCH   4   5
ATOM      5  C   UNL     1       4.379   4.961  -9.581  0.00  0.00    +0.198 C 
ATOM      6  O   UNL     1       4.383   6.458  -9.898  0.00  0.00    -0.477 OA
ATOM      7  C   UNL     1       5.651   6.888 -10.293  0.00  0.00    +0.135 A 
ATOM      8  C   UNL     1       6.789   6.104 -10.123  0.00  0.00    +0.014 A 
ATOM      9  C   UNL     1       7.639   5.867 -11.197  0.00  0.00    +0.028 A 
ATOM     10  C   UNL     1       7.430   6.503 -12.418  0.00  0.00    +0.140 A 
ATOM     11  C   UNL     1       6.741   7.709 -12.298  0.00  0.00    +0.033 A 
ATOM     12  F   UNL     1       7.524   5.837 -13.606  0.00  0.00    -0.204 F 
ATOM     13  C   UNL     1       6.830   5.133  -9.000  0.00  0.00    +0.033 C 
ATOM     14  C   UNL     1       5.838   7.880 -11.250  0.00  0.00    +0.039 A 
ATOM     15  C   UNL     1       5.478   5.115  -8.386  0.00  0.00    +0.051 C 
ENDBRANCH   4   5
ENDBRANCH   2   4
ENDBRANCH   1   2
BRANCH   1  16
ATOM     16  C   UNL     1       0.464   5.448  -7.732  0.00  0.00    +0.125 C 
BRANCH  16  17
ATOM     17  C   UNL     1       0.239   6.346  -6.395  0.00  0.00    +0.209 C 
ATOM     18  O   UNL     1      -1.233   6.010  -6.414  0.00  0.00    -0.218 OA
BRANCH  17  19
ATOM     19  C   UNL     1       0.603   5.055  -5.316  0.00  0.00    +0.198 C 
ATOM     20  O   UNL     1       2.092   5.281  -5.532  0.00  0.00    -0.477 OA
ATOM     21  C   UNL     1       2.820   6.138  -4.789  0.00  0.00    +0.135 A 
ATOM     22  C   UNL     1       2.749   5.893  -3.417  0.00  0.00    +0.014 A 
ATOM     23  C   UNL     1       3.363   6.812  -2.591  0.00  0.00    +0.028 A 
ATOM     24  C   UNL     1       4.557   7.364  -3.016  0.00  0.00    +0.140 A 
ATOM     25  C   UNL     1       4.805   7.398  -4.360  0.00  0.00    +0.033 A 
ATOM     26  F   UNL     1       5.504   7.625  -2.067  0.00  0.00    -0.204 F 
ATOM     27  C   UNL     1       1.404   5.369  -3.008  0.00  0.00    +0.033 C 
ATOM     28  C   UNL     1       3.964   6.776  -5.261  0.00  0.00    +0.039 A 
ATOM     29  C   UNL     1       0.453   6.016  -4.004  0.00  0.00    +0.051 C 
ENDBRANCH  17  19
ENDBRANCH  16  17
ENDBRANCH   1  16
TORSDOF 6
ENDMDL
MODEL 4
REMARK VINA RESULT:      -9.7      5.058      9.207
REMARK  Name = 
REMARK  6 active torsions:
REMARK  status: ('A' for Active; 'I' for Inactive)
REMARK    1  A    between atoms: C_2  and  C_3
REMARK    2  A    between atoms: C_2  and  C_19
REMARK    3  A    between atoms: C_3  and  N_4
REMARK    4  A    between atoms: N_4  and  C_5
REMARK    5  A    between atoms: C_5  and  C_6
REMARK    6  A    between atoms: C_6  and  C_8
REMARK                            x       y       z     vdW  Elec       q    Type
REMARK                         _______ _______ _______ _____ _____    ______ ____
ROOT
ATOM      1  N   UNL     1      -0.119   5.070  -6.672  0.00  0.00    -0.212 NA
ENDROOT
BRANCH   1   2
ATOM      2  C   UNL     1       0.839   4.690  -5.677  0.00  0.00    +0.125 C 
BRANCH   2   4
ATOM      3  O   UNL     1       1.443   6.513  -6.891  0.00  0.00    -0.218 OA
ATOM      4  C   UNL     1       2.198   5.340  -6.323  0.00  0.00    +0.209 C 
BRANCH   4   5
ATOM      5  C   UNL     1       2.677   6.260  -4.945  0.00  0.00    +0.198 C 
ATOM      6  O   UNL     1       3.103   5.076  -4.075  0.00  0.00    -0.477 OA
ATOM      7  C   UNL     1       4.070   5.456  -3.142  0.00  0.00    +0.135 A 
ATOM      8  C   UNL     1       4.742   6.673  -3.220  0.00  0.00    +0.014 A 
ATOM      9  C   UNL     1       4.793   7.513  -2.114  0.00  0.00    +0.028 A 
ATOM     10  C   UNL     1       4.279   7.099  -0.888  0.00  0.00    +0.140 A 
ATOM     11  C   UNL     1       4.263   5.714  -0.738  0.00  0.00    +0.033 A 
ATOM     12  F   UNL     1       3.517   7.921  -0.108  0.00  0.00    -0.204 F 
ATOM     13  C   UNL     1       4.946   7.295  -4.553  0.00  0.00    +0.033 C 
ATOM     14  C   UNL     1       4.133   4.905  -1.866  0.00  0.00    +0.039 A 
ATOM     15  C   UNL     1       4.179   6.488  -5.537  0.00  0.00    +0.051 C 
ENDBRANCH   4   5
ENDBRANCH   2   4
ENDBRANCH   1   2
BRANCH   1  16
ATOM     16  C   UNL     1      -1.377   5.194  -6.106  0.00  0.00    +0.125 C 
BRANCH  16  17
ATOM     17  C   UNL     1      -1.494   6.429  -5.054  0.00  0.00    +0.209 C 
ATOM     18  O   UNL     1      -2.608   7.029  -5.878  0.00  0.00    -0.218 OA
BRANCH  17  19
ATOM     19  C   UNL     1      -2.594   5.605  -4.017  0.00  0.00    +0.198 C 
ATOM     20  O   UNL     1      -1.435   5.097  -3.173  0.00  0.00    -0.477 OA
ATOM     21  C   UNL     1      -0.930   5.784  -2.129  0.00  0.00    +0.135 A 
ATOM     22  C   UNL     1      -1.880   6.118  -1.164  0.00  0.00    +0.014 A 
ATOM     23  C   UNL     1      -1.458   6.935  -0.135  0.00  0.00    +0.028 A 
ATOM     24  C   UNL     1      -0.180   6.743   0.357  0.00  0.00    +0.140 A 
ATOM     25  C   UNL     1       0.746   6.170  -0.470  0.00  0.00    +0.033 A 
ATOM     26  F   UNL     1       0.013   6.920   1.697  0.00  0.00    -0.204 F 
ATOM     27  C   UNL     1      -3.225   6.391  -1.770  0.00  0.00    +0.033 C 
ATOM     28  C   UNL     1       0.391   5.666  -1.706  0.00  0.00    +0.039 A 
ATOM     29  C   UNL     1      -2.889   6.953  -3.143  0.00  0.00    +0.051 C 
ENDBRANCH  17  19
ENDBRANCH  16  17
ENDBRANCH   1  16
TORSDOF 6
ENDMDL
MODEL 5
REMARK VINA RESULT:      -9.6      4.294      7.667
REMARK  Name = 
REMARK  6 active torsions:
REMARK  status: ('A' for Active; 'I' for Inactive)
REMARK    1  A    between atoms: C_2  and  C_3
REMARK    2  A    between atoms: C_2  and  C_19
REMARK    3  A    between atoms: C_3  and  N_4
REMARK    4  A    between atoms: N_4  and  C_5
REMARK    5  A    between atoms: C_5  and  C_6
REMARK    6  A    between atoms: C_6  and  C_8
REMARK                            x       y       z     vdW  Elec       q    Type
REMARK                         _______ _______ _______ _____ _____    ______ ____
ROOT
ATOM      1  N   UNL     1      -1.456   5.376  -2.141  0.00  0.00    -0.212 NA
ENDROOT
BRANCH   1   2
ATOM      2  C   UNL     1      -1.243   6.452  -3.063  0.00  0.00    +0.125 C 
BRANCH   2   4
ATOM      3  O   UNL     1      -2.679   7.180  -4.666  0.00  0.00    -0.218 OA
ATOM      4  C   UNL     1      -2.014   5.858  -4.381  0.00  0.00    +0.209 C 
BRANCH   4   5
ATOM      5  C   UNL     1      -0.770   6.188  -5.529  0.00  0.00    +0.198 C 
ATOM      6  O   UNL     1       0.080   4.950  -5.237  0.00  0.00    -0.477 OA
ATOM      7  C   UNL     1       0.835   4.581  -6.352  0.00  0.00    +0.135 A 
ATOM      8  C   UNL     1       0.599   5.107  -7.619  0.00  0.00    +0.014 A 
ATOM      9  C   UNL     1       1.643   5.661  -8.351  0.00  0.00    +0.028 A 
ATOM     10  C   UNL     1       2.952   5.589  -7.880  0.00  0.00    +0.140 A 
ATOM     11  C   UNL     1       3.167   4.516  -7.017  0.00  0.00    +0.033 A 
ATOM     12  F   UNL     1       3.799   6.658  -7.931  0.00  0.00    -0.204 F 
ATOM     13  C   UNL     1      -0.778   5.541  -7.970  0.00  0.00    +0.033 C 
ATOM     14  C   UNL     1       2.112   4.037  -6.242  0.00  0.00    +0.039 A 
ATOM     15  C   UNL     1      -1.594   5.456  -6.731  0.00  0.00    +0.051 C 
ENDBRANCH   4   5
ENDBRANCH   2   4
ENDBRANCH   1   2
BRANCH   1  16
ATOM     16  C   UNL     1      -0.863   5.663  -0.922  0.00  0.00    +0.125 C 
BRANCH  16  17
ATOM     17  C   UNL     1       0.359   6.730  -1.033  0.00  0.00    +0.209 C 
ATOM     18  O   UNL     1       0.212   7.056   0.435  0.00  0.00    -0.218 OA
BRANCH  17  19
ATOM     19  C   UNL     1       1.579   5.553  -0.733  0.00  0.00    +0.198 C 
ATOM     20  O   UNL     1       1.935   5.529  -2.211  0.00  0.00    -0.477 OA
ATOM     21  C   UNL     1       2.841   6.361  -2.762  0.00  0.00    +0.135 A 
ATOM     22  C   UNL     1       4.094   6.312  -2.150  0.00  0.00    +0.014 A 
ATOM     23  C   UNL     1       5.030   7.232  -2.577  0.00  0.00    +0.028 A 
ATOM     24  C   UNL     1       5.058   7.545  -3.924  0.00  0.00    +0.140 A 
ATOM     25  C   UNL     1       3.912   7.365  -4.648  0.00  0.00    +0.033 A 
ATOM     26  F   UNL     1       6.277   7.787  -4.489  0.00  0.00    -0.204 F 
ATOM     27  C   UNL     1       3.991   6.048  -0.677  0.00  0.00    +0.033 C 
ATOM     28  C   UNL     1       2.801   6.759  -4.095  0.00  0.00    +0.039 A 
ATOM     29  C   UNL     1       2.666   6.689  -0.293  0.00  0.00    +0.051 C 
ENDBRANCH  17  19
ENDBRANCH  16  17
ENDBRANCH   1  16
TORSDOF 6
ENDMDL
MODEL 6
REMARK VINA RESULT:      -9.5      3.262      8.264
REMARK  Name = 
REMARK  6 active torsions:
REMARK  status: ('A' for Active; 'I' for Inactive)
REMARK    1  A    between atoms: C_2  and  C_3
REMARK    2  A    between atoms: C_2  and  C_19
REMARK    3  A    between atoms: C_3  and  N_4
REMARK    4  A    between atoms: N_4  and  C_5
REMARK    5  A    between atoms: C_5  and  C_6
REMARK    6  A    between atoms: C_6  and  C_8
REMARK                            x       y       z     vdW  Elec       q    Type
REMARK                         _______ _______ _______ _____ _____    ______ ____
ROOT
ATOM      1  N   UNL     1       3.639   6.120  -2.564  0.00  0.00    -0.212 NA
ENDROOT
BRANCH   1   2
ATOM      2  C   UNL     1       3.183   5.519  -3.782  0.00  0.00    +0.125 C 
BRANCH   2   4
ATOM      3  O   UNL     1       5.096   4.504  -4.470  0.00  0.00    -0.218 OA
ATOM      4  C   UNL     1       4.461   5.841  -4.757  0.00  0.00    +0.209 C 
BRANCH   4   5
ATOM      5  C   UNL     1       3.773   5.247  -6.222  0.00  0.00    +0.198 C 
ATOM      6  O   UNL     1       3.064   6.540  -6.628  0.00  0.00    -0.477 OA
ATOM      7  C   UNL     1       2.900   6.615  -8.012  0.00  0.00    +0.135 A 
ATOM      8  C   UNL     1       3.564   5.759  -8.887  0.00  0.00    +0.014 A 
ATOM      9  C   UNL     1       2.850   5.057  -9.852  0.00  0.00    +0.028 A 
ATOM     10  C   UNL     1       1.489   5.290 -10.032  0.00  0.00    +0.140 A 
ATOM     11  C   UNL     1       1.090   6.562  -9.626  0.00  0.00    +0.033 A 
ATOM     12  F   UNL     1       0.597   4.270 -10.200  0.00  0.00    -0.204 F 
ATOM     13  C   UNL     1       4.884   5.208  -8.488  0.00  0.00    +0.033 C 
ATOM     14  C   UNL     1       1.785   7.202  -8.602  0.00  0.00    +0.039 A 
ATOM     15  C   UNL     1       5.116   5.602  -7.075  0.00  0.00    +0.051 C 
ENDBRANCH   4   5
ENDBRANCH   2   4
ENDBRANCH   1   2
BRANCH   1  16
ATOM     16  C   UNL     1       2.569   6.363  -1.718  0.00  0.00    +0.125 C 
BRANCH  16  17
ATOM     17  C   UNL     1       1.379   5.261  -1.847  0.00  0.00    +0.209 C 
ATOM     18  O   UNL     1       1.510   4.943  -0.377  0.00  0.00    -0.218 OA
BRANCH  17  19
ATOM     19  C   UNL     1       0.122   6.404  -1.573  0.00  0.00    +0.198 C 
ATOM     20  O   UNL     1       0.188   6.842  -3.028  0.00  0.00    -0.477 OA
ATOM     21  C   UNL     1      -0.529   6.253  -4.006  0.00  0.00    +0.135 A 
ATOM     22  C   UNL     1      -1.902   6.231  -3.761  0.00  0.00    +0.014 A 
ATOM     23  C   UNL     1      -2.681   5.527  -4.657  0.00  0.00    +0.028 A 
ATOM     24  C   UNL     1      -2.336   5.583  -5.994  0.00  0.00    +0.140 A 
ATOM     25  C   UNL     1      -1.035   5.863  -6.310  0.00  0.00    +0.033 A 
ATOM     26  F   UNL     1      -3.351   5.588  -6.908  0.00  0.00    -0.204 F 
ATOM     27  C   UNL     1      -2.211   6.090  -2.300  0.00  0.00    +0.033 C 
ATOM     28  C   UNL     1      -0.122   6.219  -5.337  0.00  0.00    +0.039 A 
ATOM     29  C   UNL     1      -1.042   5.274  -1.767  0.00  0.00    +0.051 C 
ENDBRANCH  17  19
ENDBRANCH  16  17
ENDBRANCH   1  16
TORSDOF 6
ENDMDL
MODEL 7
REMARK VINA RESULT:      -9.5      2.579      8.383
REMARK  Name = 
REMARK  6 active torsions:
REMARK  status: ('A' for Active; 'I' for Inactive)
REMARK    1  A    between atoms: C_2  and  C_3
REMARK    2  A    between atoms: C_2  and  C_19
REMARK    3  A    between atoms: C_3  and  N_4
REMARK    4  A    between atoms: N_4  and  C_5
REMARK    5  A    between atoms: C_5  and  C_6
REMARK    6  A    between atoms: C_6  and  C_8
REMARK                            x       y       z     vdW  Elec       q    Type
REMARK                         _______ _______ _______ _____ _____    ______ ____
ROOT
ATOM      1  N   UNL     1       0.305   5.442  -9.325  0.00  0.00    -0.212 NA
ENDROOT
BRANCH   1   2
ATOM      2  C   UNL     1       1.081   6.500  -9.898  0.00  0.00    +0.125 C 
BRANCH   2   4
ATOM      3  O   UNL     1       0.971   6.933 -12.126  0.00  0.00    -0.218 OA
ATOM      4  C   UNL     1       1.529   5.796 -11.309  0.00  0.00    +0.209 C 
BRANCH   4   5
ATOM      5  C   UNL     1       3.118   6.462 -11.391  0.00  0.00    +0.198 C 
ATOM      6  O   UNL     1       3.745   5.566 -10.321  0.00  0.00    -0.477 OA
ATOM      7  C   UNL     1       5.118   5.415 -10.529  0.00  0.00    +0.135 A 
ATOM      8  C   UNL     1       5.737   5.796 -11.716  0.00  0.00    +0.014 A 
ATOM      9  C   UNL     1       6.853   6.625 -11.687  0.00  0.00    +0.028 A 
ATOM     10  C   UNL     1       7.433   6.985 -10.473  0.00  0.00    +0.140 A 
ATOM     11  C   UNL     1       7.193   6.065  -9.454  0.00  0.00    +0.033 A 
ATOM     12  F   UNL     1       7.833   8.264 -10.214  0.00  0.00    -0.204 F 
ATOM     13  C   UNL     1       4.953   5.762 -12.977  0.00  0.00    +0.033 C 
ATOM     14  C   UNL     1       6.024   5.306  -9.479  0.00  0.00    +0.039 A 
ATOM     15  C   UNL     1       3.544   5.467 -12.610  0.00  0.00    +0.051 C 
ENDBRANCH   4   5
ENDBRANCH   2   4
ENDBRANCH   1   2
BRANCH   1  16
ATOM     16  C   UNL     1       0.853   5.044  -8.116  0.00  0.00    +0.125 C 
BRANCH  16  17
ATOM     17  C   UNL     1       0.445   6.011  -6.873  0.00  0.00    +0.209 C 
ATOM     18  O   UNL     1      -0.999   5.594  -7.019  0.00  0.00    -0.218 OA
BRANCH  17  19
ATOM     19  C   UNL     1       0.755   4.812  -5.677  0.00  0.00    +0.198 C 
ATOM     20  O   UNL     1       2.244   5.116  -5.743  0.00  0.00    -0.477 OA
ATOM     21  C   UNL     1       2.836   6.059  -4.984  0.00  0.00    +0.135 A 
ATOM     22  C   UNL     1       2.625   5.894  -3.615  0.00  0.00    +0.014 A 
ATOM     23  C   UNL     1       3.090   6.897  -2.790  0.00  0.00    +0.028 A 
ATOM     24  C   UNL     1       4.292   7.495  -3.118  0.00  0.00    +0.140 A 
ATOM     25  C   UNL     1       4.689   7.464  -4.427  0.00  0.00    +0.033 A 
ATOM     26  F   UNL     1       5.111   7.871  -2.092  0.00  0.00    -0.204 F 
ATOM     27  C   UNL     1       1.272   5.314  -3.321  0.00  0.00    +0.033 C 
ATOM     28  C   UNL     1       3.989   6.737  -5.371  0.00  0.00    +0.039 A 
ATOM     29  C   UNL     1       0.406   5.840  -4.456  0.00  0.00    +0.051 C 
ENDBRANCH  17  19
ENDBRANCH  16  17
ENDBRANCH   1  16
TORSDOF 6
ENDMDL
MODEL 8
REMARK VINA RESULT:      -9.5      2.805      3.619
REMARK  Name = 
REMARK  6 active torsions:
REMARK  status: ('A' for Active; 'I' for Inactive)
REMARK    1  A    between atoms: C_2  and  C_3
REMARK    2  A    between atoms: C_2  and  C_19
REMARK    3  A    between atoms: C_3  and  N_4
REMARK    4  A    between atoms: N_4  and  C_5
REMARK    5  A    between atoms: C_5  and  C_6
REMARK    6  A    between atoms: C_6  and  C_8
REMARK                            x       y       z     vdW  Elec       q    Type
REMARK                         _______ _______ _______ _____ _____    ______ ____
ROOT
ATOM      1  N   UNL     1       4.235   5.621  -6.379  0.00  0.00    -0.212 NA
ENDROOT
BRANCH   1   2
ATOM      2  C   UNL     1       3.755   6.703  -5.572  0.00  0.00    +0.125 C 
BRANCH   2   4
ATOM      3  O   UNL     1       3.714   6.959  -3.314  0.00  0.00    -0.218 OA
ATOM      4  C   UNL     1       3.247   5.875  -4.252  0.00  0.00    +0.209 C 
BRANCH   4   5
ATOM      5  C   UNL     1       1.633   6.483  -4.220  0.00  0.00    +0.198 C 
ATOM      6  O   UNL     1       1.086   5.606  -5.348  0.00  0.00    -0.477 OA
ATOM      7  C   UNL     1      -0.288   5.401  -5.208  0.00  0.00    +0.135 A 
ATOM      8  C   UNL     1      -0.972   5.717  -4.038  0.00  0.00    +0.014 A 
ATOM      9  C   UNL     1      -2.114   6.508  -4.089  0.00  0.00    +0.028 A 
ATOM     10  C   UNL     1      -2.652   6.893  -5.314  0.00  0.00    +0.140 A 
ATOM     11  C   UNL     1      -2.335   6.020  -6.353  0.00  0.00    +0.033 A 
ATOM     12  F   UNL     1      -3.085   8.167  -5.546  0.00  0.00    -0.204 F 
ATOM     13  C   UNL     1      -0.244   5.663  -2.744  0.00  0.00    +0.033 C 
ATOM     14  C   UNL     1      -1.142   5.300  -6.302  0.00  0.00    +0.039 A 
ATOM     15  C   UNL     1       1.189   5.430  -3.057  0.00  0.00    +0.051 C 
ENDBRANCH   4   5
ENDBRANCH   2   4
ENDBRANCH   1   2
BRANCH   1  16
ATOM     16  C   UNL     1       4.183   5.962  -7.721  0.00  0.00    +0.125 C 
BRANCH  16  17
ATOM     17  C   UNL     1       3.369   4.886  -8.629  0.00  0.00    +0.209 C 
ATOM     18  O   UNL     1       2.879   4.196  -7.378  0.00  0.00    -0.218 OA
BRANCH  17  19
ATOM     19  C   UNL     1       1.957   5.863  -8.743  0.00  0.00    +0.198 C 
ATOM     20  O   UNL     1       2.447   6.438 -10.063  0.00  0.00    -0.477 OA
ATOM     21  C   UNL     1       2.179   5.870 -11.256  0.00  0.00    +0.135 A 
ATOM     22  C   UNL     1       0.818   5.685 -11.497  0.00  0.00    +0.014 A 
ATOM     23  C   UNL     1       0.478   4.990 -12.640  0.00  0.00    +0.028 A 
ATOM     24  C   UNL     1       1.240   5.204 -13.774  0.00  0.00    +0.140 A 
ATOM     25  C   UNL     1       2.524   5.643 -13.611  0.00  0.00    +0.033 A 
ATOM     26  F   UNL     1       0.596   5.188 -14.978  0.00  0.00    -0.204 F 
ATOM     27  C   UNL     1       0.060   5.379 -10.238  0.00  0.00    +0.033 C 
ATOM     28  C   UNL     1       3.008   6.001 -12.367  0.00  0.00    +0.039 A 
ATOM     29  C   UNL     1       1.079   4.643  -9.381  0.00  0.00    +0.051 C 
ENDBRANCH  17  19
ENDBRANCH  16  17
ENDBRANCH   1  16
TORSDOF 6
ENDMDL
MODEL 9
REMARK VINA RESULT:      -9.4      2.076      9.452
REMARK  Name = 
REMARK  6 active torsions:
REMARK  status: ('A' for Active; 'I' for Inactive)
REMARK    1  A    between atoms: C_2  and  C_3
REMARK    2  A    between atoms: C_2  and  C_19
REMARK    3  A    between atoms: C_3  and  N_4
REMARK    4  A    between atoms: N_4  and  C_5
REMARK    5  A    between atoms: C_5  and  C_6
REMARK    6  A    between atoms: C_6  and  C_8
REMARK                            x       y       z     vdW  Elec       q    Type
REMARK                         _______ _______ _______ _____ _____    ______ ____
ROOT
ATOM      1  N   UNL     1       0.538   5.809  -9.558  0.00  0.00    -0.212 NA
ENDROOT
BRANCH   1   2
ATOM      2  C   UNL     1       0.856   6.662 -10.664  0.00  0.00    +0.125 C 
BRANCH   2   4
ATOM      3  O   UNL     1       1.128   6.335 -12.896  0.00  0.00    -0.218 OA
ATOM      4  C   UNL     1       1.565   5.578 -11.669  0.00  0.00    +0.209 C 
BRANCH   4   5
ATOM      5  C   UNL     1       3.125   6.313 -11.719  0.00  0.00    +0.198 C 
ATOM      6  O   UNL     1       3.738   5.518 -10.565  0.00  0.00    -0.477 OA
ATOM      7  C   UNL     1       5.124   5.421 -10.698  0.00  0.00    +0.135 A 
ATOM      8  C   UNL     1       5.784   5.756 -11.878  0.00  0.00    +0.014 A 
ATOM      9  C   UNL     1       6.858   6.639 -11.850  0.00  0.00    +0.028 A 
ATOM     10  C   UNL     1       7.360   7.102 -10.637  0.00  0.00    +0.140 A 
ATOM     11  C   UNL     1       7.112   6.238  -9.572  0.00  0.00    +0.033 A 
ATOM     12  F   UNL     1       7.688   8.413 -10.443  0.00  0.00    -0.204 F 
ATOM     13  C   UNL     1       5.066   5.605 -13.169  0.00  0.00    +0.033 C 
ATOM     14  C   UNL     1       5.981   5.423  -9.602  0.00  0.00    +0.039 A 
ATOM     15  C   UNL     1       3.655   5.266 -12.850  0.00  0.00    +0.051 C 
ENDBRANCH   4   5
ENDBRANCH   2   4
ENDBRANCH   1   2
BRANCH   1  16
ATOM     16  C   UNL     1       1.143   6.275  -8.402  0.00  0.00    +0.125 C 
BRANCH  16  17
ATOM     17  C   UNL     1       1.235   5.156  -7.225  0.00  0.00    +0.209 C 
ATOM     18  O   UNL     1       2.665   4.863  -7.612  0.00  0.00    -0.218 OA
BRANCH  17  19
ATOM     19  C   UNL     1       1.708   6.287  -6.016  0.00  0.00    +0.198 C 
ATOM     20  O   UNL     1       0.262   6.726  -5.845  0.00  0.00    -0.477 OA
ATOM     21  C   UNL     1      -0.590   6.131  -4.987  0.00  0.00    +0.135 A 
ATOM     22  C   UNL     1      -0.130   6.095  -3.671  0.00  0.00    +0.014 A 
ATOM     23  C   UNL     1      -0.891   5.384  -2.766  0.00  0.00    +0.028 A 
ATOM     24  C   UNL     1      -2.266   5.444  -2.894  0.00  0.00    +0.140 A 
ATOM     25  C   UNL     1      -2.785   5.736  -4.125  0.00  0.00    +0.033 A 
ATOM     26  F   UNL     1      -3.007   5.440  -1.746  0.00  0.00    -0.204 F 
ATOM     27  C   UNL     1       1.362   5.951  -3.601  0.00  0.00    +0.033 C 
ATOM     28  C   UNL     1      -1.969   6.101  -5.178  0.00  0.00    +0.039 A 
ATOM     29  C   UNL     1       1.700   5.147  -4.847  0.00  0.00    +0.051 C 
ENDBRANCH  17  19
ENDBRANCH  16  17
ENDBRANCH   1  16
TORSDOF 6
ENDMDL
