MODEL 1
REMARK VINA RESULT:      -5.3      0.000      0.000
REMARK  Name = 
REMARK  0 active torsions:
REMARK  status: ('A' for Active; 'I' for Inactive)
REMARK                            x       y       z     vdW  Elec       q    Type
REMARK                         _______ _______ _______ _____ _____    ______ ____
ROOT
ATOM      1  O   UNL     1       7.856   4.608 -12.790  0.00  0.00    -0.221 OA
ATOM      2  C   UNL     1       7.363   5.399 -11.928  0.00  0.00    +0.441 A 
ATOM      3  O   UNL     1       6.335   6.182 -12.119  0.00  0.00    -0.406 OA
ATOM      4  C   UNL     1       5.812   6.566 -10.975  0.00  0.00    +0.168 A 
ATOM      5  C   UNL     1       6.404   5.745 -10.023  0.00  0.00    +0.123 A 
ATOM      6  C   UNL     1       5.731   5.449  -8.845  0.00  0.00    +0.034 A 
ATOM      7  C   UNL     1       4.369   5.704  -8.715  0.00  0.00    +0.059 A 
ATOM      8  C   UNL     1       3.885   6.714  -9.537  0.00  0.00    +0.015 A 
ATOM      9 CL   UNL     1       3.267   4.518  -8.020  0.00  0.00    -0.082 Cl
ATOM     10  C   UNL     1       4.619   7.176 -10.605  0.00  0.00    +0.040 A 
ATOM     11  N   UNL     1       7.576   5.408 -10.589  0.00  0.00    -0.171 NA
ENDROOT
TORSDOF 0
ENDMDL
MODEL 2
REMARK VINA RESULT:      -5.2      3.157      4.112
REMARK  Name = 
REMARK  0 active torsions:
REMARK  status: ('A' for Active; 'I' for Inactive)
REMARK                            x       y       z     vdW  Elec       q    Type
REMARK                         _______ _______ _______ _____ _____    ______ ____
ROOT
ATOM      1  O   UNL     1       2.367   5.383 -11.076  0.00  0.00    -0.221 OA
ATOM      2  C   UNL     1       3.404   5.871 -10.528  0.00  0.00    +0.441 A 
ATOM      3  O   UNL     1       4.190   5.239  -9.699  0.00  0.00    -0.406 OA
ATOM      4  C   UNL     1       5.364   5.825  -9.617  0.00  0.00    +0.168 A 
ATOM      5  C   UNL     1       5.382   6.727 -10.675  0.00  0.00    +0.123 A 
ATOM      6  C   UNL     1       6.590   7.095 -11.255  0.00  0.00    +0.034 A 
ATOM      7  C   UNL     1       7.751   6.369 -11.010  0.00  0.00    +0.059 A 
ATOM      8  C   UNL     1       7.761   5.673  -9.807  0.00  0.00    +0.015 A 
ATOM      9 CL   UNL     1       8.849   5.913 -12.311  0.00  0.00    -0.082 Cl
ATOM     10  C   UNL     1       6.602   5.462  -9.098  0.00  0.00    +0.040 A 
ATOM     11  N   UNL     1       4.080   6.993 -10.878  0.00  0.00    -0.171 NA
ENDROOT
TORSDOF 0
ENDMDL
MODEL 3
REMARK VINA RESULT:      -5.2     10.334     11.115
REMARK  Name = 
REMARK  0 active torsions:
REMARK  status: ('A' for Active; 'I' for Inactive)
REMARK                            x       y       z     vdW  Elec       q    Type
REMARK                         _______ _______ _______ _____ _____    ______ ____
ROOT
ATOM      1  O   UNL     1      -1.095   5.763  -0.300  0.00  0.00    -0.221 OA
ATOM      2  C   UNL     1      -1.861   6.077  -1.263  0.00  0.00    +0.441 A 
ATOM      3  O   UNL     1      -1.793   7.180  -1.958  0.00  0.00    -0.406 OA
ATOM      4  C   UNL     1      -2.417   7.058  -3.109  0.00  0.00    +0.168 A 
ATOM      5  C   UNL     1      -2.655   5.694  -3.237  0.00  0.00    +0.123 A 
ATOM      6  C   UNL     1      -2.758   5.121  -4.498  0.00  0.00    +0.034 A 
ATOM      7  C   UNL     1      -2.337   5.808  -5.632  0.00  0.00    +0.059 A 
ATOM      8  C   UNL     1      -2.350   7.193  -5.513  0.00  0.00    +0.015 A 
ATOM      9 CL   UNL     1      -1.358   5.031  -6.875  0.00  0.00    -0.082 Cl
ATOM     10  C   UNL     1      -2.451   7.800  -4.284  0.00  0.00    +0.040 A 
ATOM     11  N   UNL     1      -2.693   5.265  -1.963  0.00  0.00    -0.171 NA
ENDROOT
TORSDOF 0
ENDMDL
MODEL 4
REMARK VINA RESULT:      -5.2      6.852      7.857
REMARK  Name = 
REMARK  0 active torsions:
REMARK  status: ('A' for Active; 'I' for Inactive)
REMARK                            x       y       z     vdW  Elec       q    Type
REMARK                         _______ _______ _______ _____ _____    ______ ____
ROOT
ATOM      1  O   UNL     1       2.941   4.571  -5.181  0.00  0.00    -0.221 OA
ATOM      2  C   UNL     1       1.970   5.178  -5.729  0.00  0.00    +0.441 A 
ATOM      3  O   UNL     1       0.980   4.608  -6.361  0.00  0.00    -0.406 OA
ATOM      4  C   UNL     1      -0.050   5.419  -6.462  0.00  0.00    +0.168 A 
ATOM      5  C   UNL     1       0.240   6.466  -5.595  0.00  0.00    +0.123 A 
ATOM      6  C   UNL     1      -0.790   7.186  -5.004  0.00  0.00    +0.034 A 
ATOM      7  C   UNL     1      -2.096   6.708  -5.017  0.00  0.00    +0.059 A 
ATOM      8  C   UNL     1      -2.389   5.839  -6.061  0.00  0.00    +0.015 A 
ATOM      9 CL   UNL     1      -3.106   6.733  -3.572  0.00  0.00    -0.082 Cl
ATOM     10  C   UNL     1      -1.388   5.258  -6.805  0.00  0.00    +0.040 A 
ATOM     11  N   UNL     1       1.584   6.466  -5.547  0.00  0.00    -0.171 NA
ENDROOT
TORSDOF 0
ENDMDL
MODEL 5
REMARK VINA RESULT:      -4.9      3.457      4.449
REMARK  Name = 
REMARK  0 active torsions:
REMARK  status: ('A' for Active; 'I' for Inactive)
REMARK                            x       y       z     vdW  Elec       q    Type
REMARK                         _______ _______ _______ _____ _____    ______ ____
ROOT
ATOM      1  O   UNL     1       2.057   8.228  -7.753  0.00  0.00    -0.221 OA
ATOM      2  C   UNL     1       2.559   7.213  -8.328  0.00  0.00    +0.441 A 
ATOM      3  O   UNL     1       2.493   6.957  -9.607  0.00  0.00    -0.406 OA
ATOM      4  C   UNL     1       3.416   6.093  -9.967  0.00  0.00    +0.168 A 
ATOM      5  C   UNL     1       4.276   6.021  -8.877  0.00  0.00    +0.123 A 
ATOM      6  C   UNL     1       5.612   5.692  -9.065  0.00  0.00    +0.034 A 
ATOM      7  C   UNL     1       6.185   5.723 -10.333  0.00  0.00    +0.059 A 
ATOM      8  C   UNL     1       5.290   5.549 -11.381  0.00  0.00    +0.015 A 
ATOM      9 CL   UNL     1       7.758   6.465 -10.620  0.00  0.00    -0.082 Cl
ATOM     10  C   UNL     1       3.934   5.670 -11.187  0.00  0.00    +0.040 A 
ATOM     11  N   UNL     1       3.489   6.355  -7.839  0.00  0.00    -0.171 NA
ENDROOT
TORSDOF 0
ENDMDL
MODEL 6
REMARK VINA RESULT:      -4.9     10.395     11.153
REMARK  Name = 
REMARK  0 active torsions:
REMARK  status: ('A' for Active; 'I' for Inactive)
REMARK                            x       y       z     vdW  Elec       q    Type
REMARK                         _______ _______ _______ _____ _____    ______ ____
ROOT
ATOM      1  O   UNL     1       2.036   5.771  -0.521  0.00  0.00    -0.221 OA
ATOM      2  C   UNL     1       0.820   5.526  -0.790  0.00  0.00    +0.441 A 
ATOM      3  O   UNL     1      -0.205   6.200  -0.344  0.00  0.00    -0.406 OA
ATOM      4  C   UNL     1      -1.272   5.989  -1.084  0.00  0.00    +0.168 A 
ATOM      5  C   UNL     1      -0.791   5.347  -2.219  0.00  0.00    +0.123 A 
ATOM      6  C   UNL     1      -1.464   5.474  -3.428  0.00  0.00    +0.034 A 
ATOM      7  C   UNL     1      -2.432   6.457  -3.608  0.00  0.00    +0.059 A 
ATOM      8  C   UNL     1      -3.049   6.888  -2.440  0.00  0.00    +0.015 A 
ATOM      9 CL   UNL     1      -2.479   7.455  -5.060  0.00  0.00    -0.082 Cl
ATOM     10  C   UNL     1      -2.512   6.606  -1.205  0.00  0.00    +0.040 A 
ATOM     11  N   UNL     1       0.329   4.744  -1.784  0.00  0.00    -0.171 NA
ENDROOT
TORSDOF 0
ENDMDL
MODEL 7
REMARK VINA RESULT:      -4.9      8.517      9.706
REMARK  Name = 
REMARK  0 active torsions:
REMARK  status: ('A' for Active; 'I' for Inactive)
REMARK                            x       y       z     vdW  Elec       q    Type
REMARK                         _______ _______ _______ _____ _____    ______ ____
ROOT
ATOM      1  O   UNL     1      -2.038   8.221  -2.358  0.00  0.00    -0.221 OA
ATOM      2  C   UNL     1      -2.010   7.173  -3.075  0.00  0.00    +0.441 A 
ATOM      3  O   UNL     1      -2.706   6.980  -4.163  0.00  0.00    -0.406 OA
ATOM      4  C   UNL     1      -2.189   6.017  -4.894  0.00  0.00    +0.168 A 
ATOM      5  C   UNL     1      -0.936   5.786  -4.338  0.00  0.00    +0.123 A 
ATOM      6  C   UNL     1       0.094   5.291  -5.127  0.00  0.00    +0.034 A 
ATOM      7  C   UNL     1      -0.001   5.298  -6.515  0.00  0.00    +0.059 A 
ATOM      8  C   UNL     1      -1.299   5.288  -7.010  0.00  0.00    +0.015 A 
ATOM      9 CL   UNL     1       1.335   5.835  -7.531  0.00  0.00    -0.082 Cl
ATOM     10  C   UNL     1      -2.372   5.579  -6.201  0.00  0.00    +0.040 A 
ATOM     11  N   UNL     1      -1.086   6.179  -3.061  0.00  0.00    -0.171 NA
ENDROOT
TORSDOF 0
ENDMDL
MODEL 8
REMARK VINA RESULT:      -4.8      5.336      6.163
REMARK  Name = 
REMARK  0 active torsions:
REMARK  status: ('A' for Active; 'I' for Inactive)
REMARK                            x       y       z     vdW  Elec       q    Type
REMARK                         _______ _______ _______ _____ _____    ______ ____
ROOT
ATOM      1  O   UNL     1       1.654   6.445  -7.753  0.00  0.00    -0.221 OA
ATOM      2  C   UNL     1       2.744   6.478  -7.102  0.00  0.00    +0.441 A 
ATOM      3  O   UNL     1       3.142   7.463  -6.343  0.00  0.00    -0.406 OA
ATOM      4  C   UNL     1       4.072   7.068  -5.501  0.00  0.00    +0.168 A 
ATOM      5  C   UNL     1       4.047   5.680  -5.575  0.00  0.00    +0.123 A 
ATOM      6  C   UNL     1       4.439   4.918  -4.481  0.00  0.00    +0.034 A 
ATOM      7  C   UNL     1       4.572   5.491  -3.221  0.00  0.00    +0.059 A 
ATOM      8  C   UNL     1       4.836   6.856  -3.226  0.00  0.00    +0.015 A 
ATOM      9 CL   UNL     1       3.921   4.717  -1.778  0.00  0.00    -0.082 Cl
ATOM     10  C   UNL     1       4.649   7.612  -4.359  0.00  0.00    +0.040 A 
ATOM     11  N   UNL     1       3.570   5.443  -6.809  0.00  0.00    -0.171 NA
ENDROOT
TORSDOF 0
ENDMDL
MODEL 9
REMARK VINA RESULT:      -4.7      1.812      2.464
REMARK  Name = 
REMARK  0 active torsions:
REMARK  status: ('A' for Active; 'I' for Inactive)
REMARK                            x       y       z     vdW  Elec       q    Type
REMARK                         _______ _______ _______ _____ _____    ______ ____
ROOT
ATOM      1  O   UNL     1       7.852   6.742 -11.226  0.00  0.00    -0.221 OA
ATOM      2  C   UNL     1       6.933   6.075 -10.657  0.00  0.00    +0.441 A 
ATOM      3  O   UNL     1       6.926   5.714  -9.403  0.00  0.00    -0.406 OA
ATOM      4  C   UNL     1       5.711   5.407  -9.003  0.00  0.00    +0.168 A 
ATOM      5  C   UNL     1       4.879   5.870 -10.017  0.00  0.00    +0.123 A 
ATOM      6  C   UNL     1       3.574   6.246  -9.728  0.00  0.00    +0.034 A 
ATOM      7  C   UNL     1       3.163   6.455  -8.415  0.00  0.00    +0.059 A 
ATOM      8  C   UNL     1       3.897   5.765  -7.458  0.00  0.00    +0.015 A 
ATOM      9 CL   UNL     1       2.205   7.861  -7.958  0.00  0.00    -0.082 Cl
ATOM     10  C   UNL     1       5.114   5.201  -7.765  0.00  0.00    +0.040 A 
ATOM     11  N   UNL     1       5.672   5.848 -11.103  0.00  0.00    -0.171 NA
ENDROOT
TORSDOF 0
ENDMDL
