MODEL 1
REMARK VINA RESULT:      -8.6      0.000      0.000
REMARK  Name = 
REMARK  2 active torsions:
REMARK  status: ('A' for Active; 'I' for Inactive)
REMARK    1  A    between atoms: C_4  and  C_5
REMARK    2  A    between atoms: N_7  and  C_8
REMARK                            x       y       z     vdW  Elec       q    Type
REMARK                         _______ _______ _______ _____ _____    ______ ____
ROOT
ATOM      1  C   UNL     1       3.239   6.314  -8.072  0.00  0.00    +0.284 C 
ATOM      2  N   UNL     1       3.759   5.264  -8.860  0.00  0.00    -0.202 NA
ATOM      3  O   UNL     1       3.007   7.411  -8.655  0.00  0.00    -0.267 OA
ENDROOT
BRANCH   1  11
ATOM      4  C   UNL     1       2.179   6.617  -3.413  0.00  0.00    +0.154 C 
ATOM      5  N   UNL     1       2.015   6.172  -4.721  0.00  0.00    -0.249 N 
ATOM      6  C   UNL     1       0.903   5.821  -5.397  0.00  0.00    +0.080 A 
ATOM      7  C   UNL     1       1.207   5.587  -6.732  0.00  0.00    +0.041 A 
ATOM      8  C   UNL     1       0.206   5.545  -7.696  0.00  0.00    +0.003 A 
ATOM      9  C   UNL     1      -1.073   5.316  -7.218  0.00  0.00    +0.000 A 
ATOM     10  C   UNL     1      -1.392   5.658  -5.919  0.00  0.00    +0.002 A 
ATOM     11  C   UNL     1       2.541   5.958  -6.834  0.00  0.00    +0.157 A 
ATOM     12  C   UNL     1      -0.399   5.799  -4.961  0.00  0.00    +0.019 A 
ATOM     13  N   UNL     1       3.002   6.263  -5.614  0.00  0.00    -0.165 NA
ENDBRANCH   1  11
BRANCH   2  14
ATOM     14  C   UNL     1       4.725   5.502  -9.796  0.00  0.00    +0.098 C 
ATOM     15  C   UNL     1       6.177   5.693  -9.295  0.00  0.00    +0.038 C 
ATOM     16  C   UNL     1       6.548   5.629 -10.879  0.00  0.00    +0.059 C 
ATOM     17  N   UNL     1       5.806   7.017 -11.057  0.00  0.00    -0.274 NA
ATOM     18  C   UNL     1       5.003   6.368 -12.221  0.00  0.00    +0.059 C 
ATOM     19  C   UNL     1       6.331   5.692 -12.921  0.00  0.00    +0.016 C 
ATOM     20  C   UNL     1       7.615   6.351 -12.553  0.00  0.00    +0.003 C 
ATOM     21  C   UNL     1       6.421   8.125 -11.300  0.00  0.00    +0.090 C 
ATOM     22  C   UNL     1       7.984   6.362 -11.037  0.00  0.00    +0.016 C 
ATOM     23  C   UNL     1       4.541   5.121 -11.227  0.00  0.00    +0.038 C 
ENDBRANCH   2  14
TORSDOF 2
ENDMDL
MODEL 2
REMARK VINA RESULT:      -8.6      1.392      2.772
REMARK  Name = 
REMARK  2 active torsions:
REMARK  status: ('A' for Active; 'I' for Inactive)
REMARK    1  A    between atoms: C_4  and  C_5
REMARK    2  A    between atoms: N_7  and  C_8
REMARK                            x       y       z     vdW  Elec       q    Type
REMARK                         _______ _______ _______ _____ _____    ______ ____
ROOT
ATOM      1  C   UNL     1       3.178   6.847  -7.713  0.00  0.00    +0.284 C 
ATOM      2  N   UNL     1       3.832   5.681  -8.169  0.00  0.00    -0.202 NA
ATOM      3  O   UNL     1       2.692   7.615  -8.591  0.00  0.00    -0.267 OA
ENDROOT
BRANCH   1  11
ATOM      4  C   UNL     1       0.433   5.372  -4.079  0.00  0.00    +0.154 C 
ATOM      5  N   UNL     1       1.457   6.101  -4.676  0.00  0.00    -0.249 N 
ATOM      6  C   UNL     1       2.639   6.521  -4.183  0.00  0.00    +0.080 A 
ATOM      7  C   UNL     1       3.406   7.086  -5.195  0.00  0.00    +0.041 A 
ATOM      8  C   UNL     1       4.771   7.283  -5.030  0.00  0.00    +0.003 A 
ATOM      9  C   UNL     1       5.219   7.300  -3.719  0.00  0.00    +0.000 A 
ATOM     10  C   UNL     1       4.503   6.637  -2.742  0.00  0.00    +0.002 A 
ATOM     11  C   UNL     1       2.662   6.849  -6.342  0.00  0.00    +0.157 A 
ATOM     12  C   UNL     1       3.160   6.344  -2.925  0.00  0.00    +0.019 A 
ATOM     13  N   UNL     1       1.492   6.296  -5.994  0.00  0.00    -0.165 NA
ENDBRANCH   1  11
BRANCH   2  14
ATOM     14  C   UNL     1       4.657   5.720  -9.257  0.00  0.00    +0.098 C 
ATOM     15  C   UNL     1       6.181   5.788  -8.997  0.00  0.00    +0.038 C 
ATOM     16  C   UNL     1       6.291   5.537 -10.602  0.00  0.00    +0.059 C 
ATOM     17  N   UNL     1       5.671   6.978 -10.819  0.00  0.00    -0.274 NA
ATOM     18  C   UNL     1       4.635   6.320 -11.775  0.00  0.00    +0.059 C 
ATOM     19  C   UNL     1       5.763   5.435 -12.585  0.00  0.00    +0.016 C 
ATOM     20  C   UNL     1       7.148   5.973 -12.483  0.00  0.00    +0.003 C 
ATOM     21  C   UNL     1       6.348   7.981 -11.269  0.00  0.00    +0.090 C 
ATOM     22  C   UNL     1       7.750   6.082 -11.047  0.00  0.00    +0.016 C 
ATOM     23  C   UNL     1       4.214   5.231 -10.595  0.00  0.00    +0.038 C 
ENDBRANCH   2  14
TORSDOF 2
ENDMDL
MODEL 3
REMARK VINA RESULT:      -8.3      1.697      7.960
REMARK  Name = 
REMARK  2 active torsions:
REMARK  status: ('A' for Active; 'I' for Inactive)
REMARK    1  A    between atoms: C_4  and  C_5
REMARK    2  A    between atoms: N_7  and  C_8
REMARK                            x       y       z     vdW  Elec       q    Type
REMARK                         _______ _______ _______ _____ _____    ______ ____
ROOT
ATOM      1  C   UNL     1       1.869   6.119  -8.176  0.00  0.00    +0.284 C 
ATOM      2  N   UNL     1       1.565   5.129  -7.215  0.00  0.00    -0.202 NA
ATOM      3  O   UNL     1       1.932   7.314  -7.771  0.00  0.00    -0.267 OA
ENDROOT
BRANCH   1  11
ATOM      4  C   UNL     1       2.761   5.976 -12.878  0.00  0.00    +0.154 C 
ATOM      5  N   UNL     1       3.011   5.715 -11.534  0.00  0.00    -0.249 N 
ATOM      6  C   UNL     1       4.175   5.578 -10.868  0.00  0.00    +0.080 A 
ATOM      7  C   UNL     1       3.936   5.474  -9.503  0.00  0.00    +0.041 A 
ATOM      8  C   UNL     1       4.960   5.664  -8.583  0.00  0.00    +0.003 A 
ATOM      9  C   UNL     1       6.245   5.527  -9.082  0.00  0.00    +0.000 A 
ATOM     10  C   UNL     1       6.486   5.744 -10.424  0.00  0.00    +0.002 A 
ATOM     11  C   UNL     1       2.571   5.698  -9.391  0.00  0.00    +0.157 A 
ATOM     12  C   UNL     1       5.458   5.654 -11.351  0.00  0.00    +0.019 A 
ATOM     13  N   UNL     1       2.045   5.799 -10.619  0.00  0.00    -0.165 NA
ENDBRANCH   1  11
BRANCH   2  14
ATOM     14  C   UNL     1       0.609   5.345  -6.264  0.00  0.00    +0.098 C 
ATOM     15  C   UNL     1      -0.865   5.411  -6.733  0.00  0.00    +0.038 C 
ATOM     16  C   UNL     1      -1.192   5.399  -5.138  0.00  0.00    +0.059 C 
ATOM     17  N   UNL     1      -0.545   6.842  -5.046  0.00  0.00    -0.274 NA
ATOM     18  C   UNL     1       0.330   6.306  -3.876  0.00  0.00    +0.059 C 
ATOM     19  C   UNL     1      -0.930   5.575  -3.108  0.00  0.00    +0.016 C 
ATOM     20  C   UNL     1      -2.265   6.125  -3.470  0.00  0.00    +0.003 C 
ATOM     21  C   UNL     1      -1.230   7.915  -4.837  0.00  0.00    +0.090 C 
ATOM     22  C   UNL     1      -2.672   6.038  -4.975  0.00  0.00    +0.016 C 
ATOM     23  C   UNL     1       0.854   5.047  -4.823  0.00  0.00    +0.038 C 
ENDBRANCH   2  14
TORSDOF 2
ENDMDL
MODEL 4
REMARK VINA RESULT:      -8.3      2.750      8.513
REMARK  Name = 
REMARK  2 active torsions:
REMARK  status: ('A' for Active; 'I' for Inactive)
REMARK    1  A    between atoms: C_4  and  C_5
REMARK    2  A    between atoms: N_7  and  C_8
REMARK                            x       y       z     vdW  Elec       q    Type
REMARK                         _______ _______ _______ _____ _____    ______ ____
ROOT
ATOM      1  C   UNL     1       0.514   5.071  -6.862  0.00  0.00    +0.284 C 
ATOM      2  N   UNL     1      -0.787   5.617  -6.806  0.00  0.00    -0.202 NA
ATOM      3  O   UNL     1       0.820   4.219  -5.980  0.00  0.00    -0.267 OA
ENDROOT
BRANCH   1  11
ATOM      4  C   UNL     1       1.232   6.388 -11.409  0.00  0.00    +0.154 C 
ATOM      5  N   UNL     1       1.565   5.789 -10.197  0.00  0.00    -0.249 N 
ATOM      6  C   UNL     1       2.762   5.618  -9.602  0.00  0.00    +0.080 A 
ATOM      7  C   UNL     1       2.591   5.100  -8.324  0.00  0.00    +0.041 A 
ATOM      8  C   UNL     1       3.619   5.150  -7.390  0.00  0.00    +0.003 A 
ATOM      9  C   UNL     1       4.891   5.326  -7.911  0.00  0.00    +0.000 A 
ATOM     10  C   UNL     1       5.051   5.946  -9.135  0.00  0.00    +0.002 A 
ATOM     11  C   UNL     1       1.214   5.106  -8.149  0.00  0.00    +0.157 A 
ATOM     12  C   UNL     1       4.007   5.992 -10.046  0.00  0.00    +0.019 A 
ATOM     13  N   UNL     1       0.632   5.485  -9.295  0.00  0.00    -0.165 NA
ENDBRANCH   1  11
BRANCH   2  14
ATOM     14  C   UNL     1      -1.349   5.967  -5.611  0.00  0.00    +0.098 C 
ATOM     15  C   UNL     1      -0.782   7.214  -4.892  0.00  0.00    +0.038 C 
ATOM     16  C   UNL     1      -2.063   7.015  -3.907  0.00  0.00    +0.059 C 
ATOM     17  N   UNL     1      -1.388   5.682  -3.382  0.00  0.00    -0.274 NA
ATOM     18  C   UNL     1      -2.735   4.959  -3.670  0.00  0.00    +0.059 C 
ATOM     19  C   UNL     1      -3.652   6.126  -2.956  0.00  0.00    +0.016 C 
ATOM     20  C   UNL     1      -2.913   6.966  -1.973  0.00  0.00    +0.003 C 
ATOM     21  C   UNL     1      -0.884   5.559  -2.200  0.00  0.00    +0.090 C 
ATOM     22  C   UNL     1      -1.689   7.766  -2.520  0.00  0.00    +0.016 C 
ATOM     23  C   UNL     1      -2.723   5.525  -5.231  0.00  0.00    +0.038 C 
ENDBRANCH   2  14
TORSDOF 2
ENDMDL
MODEL 5
REMARK VINA RESULT:      -8.3      2.362      7.516
REMARK  Name = 
REMARK  2 active torsions:
REMARK  status: ('A' for Active; 'I' for Inactive)
REMARK    1  A    between atoms: C_4  and  C_5
REMARK    2  A    between atoms: N_7  and  C_8
REMARK                            x       y       z     vdW  Elec       q    Type
REMARK                         _______ _______ _______ _____ _____    ______ ____
ROOT
ATOM      1  C   UNL     1       3.622   6.289  -7.144  0.00  0.00    +0.284 C 
ATOM      2  N   UNL     1       4.620   5.830  -6.256  0.00  0.00    -0.202 NA
ATOM      3  O   UNL     1       3.076   7.395  -6.874  0.00  0.00    -0.267 OA
ENDROOT
BRANCH   1  11
ATOM      4  C   UNL     1       2.040   5.759 -11.631  0.00  0.00    +0.154 C 
ATOM      5  N   UNL     1       2.942   5.612 -10.582  0.00  0.00    -0.249 N 
ATOM      6  C   UNL     1       4.288   5.536 -10.586  0.00  0.00    +0.080 A 
ATOM      7  C   UNL     1       4.771   5.545  -9.283  0.00  0.00    +0.041 A 
ATOM      8  C   UNL     1       6.109   5.815  -9.020  0.00  0.00    +0.003 A 
ATOM      9  C   UNL     1       6.974   5.643 -10.087  0.00  0.00    +0.000 A 
ATOM     10  C   UNL     1       6.499   5.749 -11.380  0.00  0.00    +0.002 A 
ATOM     11  C   UNL     1       3.638   5.771  -8.514  0.00  0.00    +0.157 A 
ATOM     12  C   UNL     1       5.150   5.577 -11.654  0.00  0.00    +0.019 A 
ATOM     13  N   UNL     1       2.563   5.767  -9.314  0.00  0.00    -0.165 NA
ENDBRANCH   1  11
BRANCH   2  14
ATOM     14  C   UNL     1       4.466   5.951  -4.904  0.00  0.00    +0.098 C 
ATOM     15  C   UNL     1       4.159   4.664  -4.101  0.00  0.00    +0.038 C 
ATOM     16  C   UNL     1       4.407   5.621  -2.807  0.00  0.00    +0.059 C 
ATOM     17  N   UNL     1       3.082   6.398  -3.190  0.00  0.00    -0.274 NA
ATOM     18  C   UNL     1       3.902   7.717  -3.096  0.00  0.00    +0.059 C 
ATOM     19  C   UNL     1       4.610   7.316  -1.664  0.00  0.00    +0.016 C 
ATOM     20  C   UNL     1       3.863   6.295  -0.880  0.00  0.00    +0.003 C 
ATOM     21  C   UNL     1       1.991   6.322  -2.505  0.00  0.00    +0.090 C 
ATOM     22  C   UNL     1       3.647   4.909  -1.566  0.00  0.00    +0.016 C 
ATOM     23  C   UNL     1       5.031   7.108  -4.150  0.00  0.00    +0.038 C 
ENDBRANCH   2  14
TORSDOF 2
ENDMDL
MODEL 6
REMARK VINA RESULT:      -8.2      2.089      7.505
REMARK  Name = 
REMARK  2 active torsions:
REMARK  status: ('A' for Active; 'I' for Inactive)
REMARK    1  A    between atoms: C_4  and  C_5
REMARK    2  A    between atoms: N_7  and  C_8
REMARK                            x       y       z     vdW  Elec       q    Type
REMARK                         _______ _______ _______ _____ _____    ______ ____
ROOT
ATOM      1  C   UNL     1       3.044   4.773  -7.584  0.00  0.00    +0.284 C 
ATOM      2  N   UNL     1       3.042   5.930  -6.774  0.00  0.00    -0.202 NA
ATOM      3  O   UNL     1       2.305   3.815  -7.222  0.00  0.00    -0.267 OA
ENDROOT
BRANCH   1  11
ATOM      4  C   UNL     1       2.602   6.165 -12.144  0.00  0.00    +0.154 C 
ATOM      5  N   UNL     1       3.267   5.640 -11.040  0.00  0.00    -0.249 N 
ATOM      6  C   UNL     1       4.571   5.679 -10.700  0.00  0.00    +0.080 A 
ATOM      7  C   UNL     1       4.750   5.148  -9.428  0.00  0.00    +0.041 A 
ATOM      8  C   UNL     1       5.922   5.378  -8.717  0.00  0.00    +0.003 A 
ATOM      9  C   UNL     1       7.014   5.765  -9.475  0.00  0.00    +0.000 A 
ATOM     10  C   UNL     1       6.819   6.395 -10.689  0.00  0.00    +0.002 A 
ATOM     11  C   UNL     1       3.455   4.920  -8.983  0.00  0.00    +0.157 A 
ATOM     12  C   UNL     1       5.620   6.257 -11.372  0.00  0.00    +0.019 A 
ATOM     13  N   UNL     1       2.600   5.186  -9.979  0.00  0.00    -0.165 NA
ENDBRANCH   1  11
BRANCH   2  14
ATOM     14  C   UNL     1       3.047   5.833  -5.412  0.00  0.00    +0.098 C 
ATOM     15  C   UNL     1       1.745   6.208  -4.663  0.00  0.00    +0.038 C 
ATOM     16  C   UNL     1       2.518   5.591  -3.369  0.00  0.00    +0.059 C 
ATOM     17  N   UNL     1       3.519   6.816  -3.446  0.00  0.00    -0.274 NA
ATOM     18  C   UNL     1       4.684   5.786  -3.406  0.00  0.00    +0.059 C 
ATOM     19  C   UNL     1       4.039   4.923  -2.161  0.00  0.00    +0.016 C 
ATOM     20  C   UNL     1       3.066   5.685  -1.331  0.00  0.00    +0.003 C 
ATOM     21  C   UNL     1       3.537   7.773  -2.581  0.00  0.00    +0.090 C 
ATOM     22  C   UNL     1       1.805   6.239  -2.066  0.00  0.00    +0.016 C 
ATOM     23  C   UNL     1       4.024   4.966  -4.690  0.00  0.00    +0.038 C 
ENDBRANCH   2  14
TORSDOF 2
ENDMDL
MODEL 7
REMARK VINA RESULT:      -8.1      2.255      7.711
REMARK  Name = 
REMARK  2 active torsions:
REMARK  status: ('A' for Active; 'I' for Inactive)
REMARK    1  A    between atoms: C_4  and  C_5
REMARK    2  A    between atoms: N_7  and  C_8
REMARK                            x       y       z     vdW  Elec       q    Type
REMARK                         _______ _______ _______ _____ _____    ______ ____
ROOT
ATOM      1  C   UNL     1       1.844   6.791  -7.779  0.00  0.00    +0.284 C 
ATOM      2  N   UNL     1       1.272   5.609  -7.260  0.00  0.00    -0.202 NA
ATOM      3  O   UNL     1       2.231   7.657  -6.946  0.00  0.00    -0.267 OA
ENDROOT
BRANCH   1  11
ATOM      4  C   UNL     1       5.018   5.541 -11.139  0.00  0.00    +0.154 C 
ATOM      5  N   UNL     1       3.830   6.085 -10.661  0.00  0.00    -0.249 N 
ATOM      6  C   UNL     1       2.608   6.158 -11.225  0.00  0.00    +0.080 A 
ATOM      7  C   UNL     1       1.687   6.654 -10.310  0.00  0.00    +0.041 A 
ATOM      8  C   UNL     1       0.321   6.510 -10.524  0.00  0.00    +0.003 A 
ATOM      9  C   UNL     1      -0.056   6.260 -11.832  0.00  0.00    +0.000 A 
ATOM     10  C   UNL     1       0.835   5.661 -12.701  0.00  0.00    +0.002 A 
ATOM     11  C   UNL     1       2.411   6.739  -9.129  0.00  0.00    +0.157 A 
ATOM     12  C   UNL     1       2.200   5.710 -12.458  0.00  0.00    +0.019 A 
ATOM     13  N   UNL     1       3.690   6.430  -9.381  0.00  0.00    -0.165 NA
ENDBRANCH   1  11
BRANCH   2  14
ATOM     14  C   UNL     1       0.405   5.653  -6.205  0.00  0.00    +0.098 C 
ATOM     15  C   UNL     1      -1.108   5.573  -6.518  0.00  0.00    +0.038 C 
ATOM     16  C   UNL     1      -1.258   5.428  -4.903  0.00  0.00    +0.059 C 
ATOM     17  N   UNL     1      -0.769   6.929  -4.773  0.00  0.00    -0.274 NA
ATOM     18  C   UNL     1       0.281   6.431  -3.739  0.00  0.00    +0.059 C 
ATOM     19  C   UNL     1      -0.800   5.513  -2.902  0.00  0.00    +0.016 C 
ATOM     20  C   UNL     1      -2.220   5.922  -3.089  0.00  0.00    +0.003 C 
ATOM     21  C   UNL     1      -1.543   7.900  -4.421  0.00  0.00    +0.090 C 
ATOM     22  C   UNL     1      -2.774   5.877  -4.547  0.00  0.00    +0.016 C 
ATOM     23  C   UNL     1       0.836   5.301  -4.821  0.00  0.00    +0.038 C 
ENDBRANCH   2  14
TORSDOF 2
ENDMDL
MODEL 8
REMARK VINA RESULT:      -8.1      2.974      4.849
REMARK  Name = 
REMARK  2 active torsions:
REMARK  status: ('A' for Active; 'I' for Inactive)
REMARK    1  A    between atoms: C_4  and  C_5
REMARK    2  A    between atoms: N_7  and  C_8
REMARK                            x       y       z     vdW  Elec       q    Type
REMARK                         _______ _______ _______ _____ _____    ______ ____
ROOT
ATOM      1  C   UNL     1       1.289   5.580  -4.305  0.00  0.00    +0.284 C 
ATOM      2  N   UNL     1       1.035   6.546  -5.303  0.00  0.00    -0.202 NA
ATOM      3  O   UNL     1       2.411   5.000  -4.337  0.00  0.00    -0.267 OA
ENDROOT
BRANCH   1  11
ATOM      4  C   UNL     1       0.320   7.106   0.129  0.00  0.00    +0.154 C 
ATOM      5  N   UNL     1       0.058   6.444  -1.067  0.00  0.00    -0.249 N 
ATOM      6  C   UNL     1      -1.104   6.228  -1.714  0.00  0.00    +0.080 A 
ATOM      7  C   UNL     1      -0.861   5.651  -2.955  0.00  0.00    +0.041 A 
ATOM      8  C   UNL     1      -1.840   5.641  -3.941  0.00  0.00    +0.003 A 
ATOM      9  C   UNL     1      -3.139   5.824  -3.496  0.00  0.00    +0.000 A 
ATOM     10  C   UNL     1      -3.370   6.500  -2.314  0.00  0.00    +0.002 A 
ATOM     11  C   UNL     1       0.523   5.668  -3.059  0.00  0.00    +0.157 A 
ATOM     12  C   UNL     1      -2.375   6.605  -1.354  0.00  0.00    +0.019 A 
ATOM     13  N   UNL     1       1.040   6.110  -1.904  0.00  0.00    -0.165 NA
ENDBRANCH   1  11
BRANCH   2  14
ATOM     14  C   UNL     1       1.405   6.328  -6.600  0.00  0.00    +0.098 C 
ATOM     15  C   UNL     1       0.387   5.618  -7.525  0.00  0.00    +0.038 C 
ATOM     16  C   UNL     1       1.438   6.021  -8.702  0.00  0.00    +0.059 C 
ATOM     17  N   UNL     1       2.463   4.994  -8.067  0.00  0.00    -0.274 NA
ATOM     18  C   UNL     1       3.520   6.136  -8.081  0.00  0.00    +0.059 C 
ATOM     19  C   UNL     1       3.180   6.595  -9.626  0.00  0.00    +0.016 C 
ATOM     20  C   UNL     1       2.527   5.538 -10.446  0.00  0.00    +0.003 C 
ATOM     21  C   UNL     1       2.784   3.875  -8.625  0.00  0.00    +0.090 C 
ATOM     22  C   UNL     1       1.155   5.001  -9.929  0.00  0.00    +0.016 C 
ATOM     23  C   UNL     1       2.479   7.131  -7.255  0.00  0.00    +0.038 C 
ENDBRANCH   2  14
TORSDOF 2
ENDMDL
MODEL 9
REMARK VINA RESULT:      -8.1      1.297      1.845
REMARK  Name = 
REMARK  2 active torsions:
REMARK  status: ('A' for Active; 'I' for Inactive)
REMARK    1  A    between atoms: C_4  and  C_5
REMARK    2  A    between atoms: N_7  and  C_8
REMARK                            x       y       z     vdW  Elec       q    Type
REMARK                         _______ _______ _______ _____ _____    ______ ____
ROOT
ATOM      1  C   UNL     1       3.622   4.744  -8.099  0.00  0.00    +0.284 C 
ATOM      2  N   UNL     1       4.871   5.397  -8.013  0.00  0.00    -0.202 NA
ATOM      3  O   UNL     1       3.481   3.888  -9.017  0.00  0.00    -0.267 OA
ENDROOT
BRANCH   1  11
ATOM      4  C   UNL     1       2.566   5.509  -3.492  0.00  0.00    +0.154 C 
ATOM      5  N   UNL     1       2.301   5.131  -4.805  0.00  0.00    -0.249 N 
ATOM      6  C   UNL     1       1.166   5.203  -5.527  0.00  0.00    +0.080 A 
ATOM      7  C   UNL     1       1.415   4.847  -6.847  0.00  0.00    +0.041 A 
ATOM      8  C   UNL     1       0.508   5.159  -7.853  0.00  0.00    +0.003 A 
ATOM      9  C   UNL     1      -0.783   5.429  -7.432  0.00  0.00    +0.000 A 
ATOM     10  C   UNL     1      -1.004   5.890  -6.149  0.00  0.00    +0.002 A 
ATOM     11  C   UNL     1       2.794   4.695  -6.891  0.00  0.00    +0.157 A 
ATOM     12  C   UNL     1      -0.068   5.673  -5.149  0.00  0.00    +0.019 A 
ATOM     13  N   UNL     1       3.286   4.833  -5.653  0.00  0.00    -0.165 NA
ENDBRANCH   1  11
BRANCH   2  14
ATOM     14  C   UNL     1       5.521   5.817  -9.139  0.00  0.00    +0.098 C 
ATOM     15  C   UNL     1       4.820   6.884 -10.014  0.00  0.00    +0.038 C 
ATOM     16  C   UNL     1       6.249   6.932 -10.795  0.00  0.00    +0.059 C 
ATOM     17  N   UNL     1       5.955   5.466 -11.316  0.00  0.00    -0.274 NA
ATOM     18  C   UNL     1       7.364   5.064 -10.794  0.00  0.00    +0.059 C 
ATOM     19  C   UNL     1       8.114   6.376 -11.451  0.00  0.00    +0.016 C 
ATOM     20  C   UNL     1       7.371   6.998 -12.582  0.00  0.00    +0.003 C 
ATOM     21  C   UNL     1       5.672   5.193 -12.546  0.00  0.00    +0.090 C 
ATOM     22  C   UNL     1       5.939   7.532 -12.267  0.00  0.00    +0.016 C 
ATOM     23  C   UNL     1       6.998   5.671  -9.293  0.00  0.00    +0.038 C 
ENDBRANCH   2  14
TORSDOF 2
ENDMDL
