MODEL 1
REMARK VINA RESULT:      -8.9      0.000      0.000
REMARK  Name = 
REMARK  15 active torsions:
REMARK  status: ('A' for Active; 'I' for Inactive)
REMARK    1  A    between atoms: N_2  and  C_3
REMARK    2  A    between atoms: C_3  and  C_4
REMARK    3  A    between atoms: C_4  and  O_6
REMARK    4  A    between atoms: O_6  and  C_7
REMARK    5  A    between atoms: C_7  and  C_8
REMARK    6  A    between atoms: C_16  and  O_18
REMARK    7  A    between atoms: O_18  and  C_19
REMARK    8  A    between atoms: C_19  and  N_21
REMARK    9  A    between atoms: N_24  and  C_25
REMARK   10  A    between atoms: C_25  and  C_26
REMARK   11  A    between atoms: C_26  and  C_28
REMARK   12  A    between atoms: C_26  and  C_36
REMARK   13  A    between atoms: C_36  and  C_38
REMARK   14  A    between atoms: C_40  and  C_41
REMARK   15  A    between atoms: C_44  and  C_45
REMARK                            x       y       z     vdW  Elec       q    Type
REMARK                         _______ _______ _______ _____ _____    ______ ____
ROOT
ATOM      1  C   UNL     1       2.418   5.306  -6.268  0.00  0.00    +0.169 C 
ENDROOT
BRANCH   1   4
ATOM      2  N   UNL     1       4.402   5.528  -3.265  0.00  0.00    -0.091 N 
ATOM      3  C   UNL     1       3.405   4.927  -3.962  0.00  0.00    +0.402 A 
ATOM      4  N   UNL     1       3.469   5.351  -5.250  0.00  0.00    -0.181 N 
ATOM      5  N   UNL     1       4.623   6.021  -5.293  0.00  0.00    -0.092 NA
ATOM      6  C   UNL     1       4.820   6.491  -4.032  0.00  0.00    +0.423 A 
BRANCH   2   7
ATOM      7  C   UNL     1       4.229   5.544  -1.696  0.00  0.00    +0.437 C 
ATOM      8  C   UNL     1       2.996   4.436  -1.697  0.00  0.00    +0.141 C 
BRANCH   7   9
ATOM      9  O   UNL     1       3.234   6.730  -1.746  0.00  0.00    -0.375 OA
BRANCH   9  13
ATOM     10  C   UNL     1      -0.009   8.331   0.402  0.00  0.00    +0.053 A 
ATOM     11  C   UNL     1       1.043   7.437   0.232  0.00  0.00    +0.139 A 
ATOM     12  N   UNL     1       2.358   7.956   0.230  0.00  0.00    -0.208 N 
ATOM     13  C   UNL     1       3.378   7.573  -0.666  0.00  0.00    +0.414 C 
ATOM     14  O   UNL     1       4.519   8.083  -0.530  0.00  0.00    -0.226 OA
ATOM     15  C   UNL     1       2.597   9.077   1.137  0.00  0.00    +0.125 C 
ATOM     16  N   UNL     1       0.740   6.152  -0.037  0.00  0.00    -0.229 NA
ATOM     17  C   UNL     1      -0.541   5.853  -0.352  0.00  0.00    +0.100 A 
ATOM     18  C   UNL     1      -1.408   6.856  -0.759  0.00  0.00    +0.021 A 
ATOM     19  C   UNL     1      -1.246   8.091  -0.157  0.00  0.00    +0.004 A 
BRANCH  10  20
ATOM     20  C   UNL     1       0.294   9.582   1.165  0.00  0.00    +0.238 C 
BRANCH  20  21
ATOM     21  O   UNL     1      -0.891  10.247   1.543  0.00  0.00    -0.442 OA
BRANCH  21  22
ATOM     22  C   UNL     1      -1.179  10.445   2.877  0.00  0.00    +0.335 C 
ATOM     23  O   UNL     1      -0.370  11.147   3.542  0.00  0.00    -0.248 OA
BRANCH  22  24
ATOM     24  C   UNL     1      -2.314   9.838   3.596  0.00  0.00    +0.198 C 
BRANCH  24  26
ATOM     25  C   UNL     1      -3.540   8.492   2.646  0.00  0.00    +0.108 C 
ATOM     26  N   UNL     1      -3.176   9.178   2.621  0.00  0.00    -0.205 NA
ENDBRANCH  24  26
ENDBRANCH  22  24
ENDBRANCH  21  22
ENDBRANCH  20  21
ENDBRANCH  10  20
ENDBRANCH   9  13
ENDBRANCH   7   9
ENDBRANCH   2   7
ENDBRANCH   1   4
BRANCH   1  27
ATOM     27  C   UNL     1       1.416   6.308  -6.095  0.00  0.00    +0.176 C 
ATOM     28  O   UNL     1       1.987   7.391  -5.402  0.00  0.00    -0.219 OA
BRANCH  27  29
ATOM     29  C   UNL     1       0.127   6.016  -5.490  0.00  0.00    +0.037 A 
ATOM     30  C   UNL     1      -0.244   6.719  -4.348  0.00  0.00    +0.139 A 
ATOM     31  F   UNL     1       0.659   6.598  -3.331  0.00  0.00    -0.204 F 
ATOM     32  C   UNL     1      -1.568   7.085  -4.127  0.00  0.00    +0.032 A 
ATOM     33  C   UNL     1      -2.497   6.986  -5.156  0.00  0.00    +0.032 A 
ATOM     34  C   UNL     1      -2.228   6.014  -6.112  0.00  0.00    +0.140 A 
ATOM     35  F   UNL     1      -3.211   5.207  -6.609  0.00  0.00    -0.204 F 
ATOM     36  C   UNL     1      -0.926   5.650  -6.322  0.00  0.00    +0.030 A 
ENDBRANCH  27  29
BRANCH  27  37
ATOM     37  C   UNL     1       0.996   7.053  -7.480  0.00  0.00    +0.080 C 
ATOM     38  C   UNL     1       2.363   7.953  -7.525  0.00  0.00    +0.010 C 
BRANCH  37  39
ATOM     39  C   UNL     1       1.619   5.934  -8.447  0.00  0.00    +0.091 A 
ATOM     40  S   UNL     1       0.835   4.937  -9.561  0.00  0.00    -0.070 S 
ATOM     41  C   UNL     1       2.143   4.754 -10.668  0.00  0.00    +0.056 A 
ATOM     42  C   UNL     1       3.069   5.644 -10.132  0.00  0.00    +0.088 A 
ATOM     43  N   UNL     1       2.480   6.525  -9.322  0.00  0.00    -0.243 NA
BRANCH  42  44
ATOM     44  C   UNL     1       4.496   5.774 -10.475  0.00  0.00    +0.018 A 
ATOM     45  C   UNL     1       5.493   5.712  -9.510  0.00  0.00    +0.002 A 
ATOM     46  C   UNL     1       6.826   5.696  -9.908  0.00  0.00    +0.010 A 
ATOM     47  C   UNL     1       7.122   5.697 -11.263  0.00  0.00    +0.068 A 
ATOM     48  C   UNL     1       6.147   5.401 -12.209  0.00  0.00    +0.010 A 
ATOM     49  C   UNL     1       4.881   5.285 -11.719  0.00  0.00    +0.002 A 
BRANCH  47  50
ATOM     50  C   UNL     1       8.445   5.917 -11.758  0.00  0.00    +0.100 C 
ATOM     51  N   UNL     1       9.517   5.956 -12.193  0.00  0.00    -0.191 NA
ENDBRANCH  47  50
ENDBRANCH  42  44
ENDBRANCH  37  39
ENDBRANCH  27  37
ENDBRANCH   1  27
TORSDOF 15
ENDMDL
MODEL 2
REMARK VINA RESULT:      -8.6      3.611     11.125
REMARK  Name = 
REMARK  15 active torsions:
REMARK  status: ('A' for Active; 'I' for Inactive)
REMARK    1  A    between atoms: N_2  and  C_3
REMARK    2  A    between atoms: C_3  and  C_4
REMARK    3  A    between atoms: C_4  and  O_6
REMARK    4  A    between atoms: O_6  and  C_7
REMARK    5  A    between atoms: C_7  and  C_8
REMARK    6  A    between atoms: C_16  and  O_18
REMARK    7  A    between atoms: O_18  and  C_19
REMARK    8  A    between atoms: C_19  and  N_21
REMARK    9  A    between atoms: N_24  and  C_25
REMARK   10  A    between atoms: C_25  and  C_26
REMARK   11  A    between atoms: C_26  and  C_28
REMARK   12  A    between atoms: C_26  and  C_36
REMARK   13  A    between atoms: C_36  and  C_38
REMARK   14  A    between atoms: C_40  and  C_41
REMARK   15  A    between atoms: C_44  and  C_45
REMARK                            x       y       z     vdW  Elec       q    Type
REMARK                         _______ _______ _______ _____ _____    ______ ____
ROOT
ATOM      1  C   UNL     1       1.482   5.930  -1.863  0.00  0.00    +0.169 C 
ENDROOT
BRANCH   1   4
ATOM      2  N   UNL     1       0.590   5.763  -5.353  0.00  0.00    -0.091 N 
ATOM      3  C   UNL     1       0.550   5.217  -4.112  0.00  0.00    +0.402 A 
ATOM      4  N   UNL     1       0.982   6.146  -3.222  0.00  0.00    -0.181 N 
ATOM      5  N   UNL     1       1.063   7.258  -3.957  0.00  0.00    -0.092 NA
ATOM      6  C   UNL     1       1.310   6.839  -5.227  0.00  0.00    +0.423 A 
BRANCH   2   7
ATOM      7  C   UNL     1       0.579   4.740  -6.554  0.00  0.00    +0.437 C 
ATOM      8  C   UNL     1       1.910   3.909  -6.022  0.00  0.00    +0.141 C 
BRANCH   7   9
ATOM      9  O   UNL     1       1.447   5.665  -7.445  0.00  0.00    -0.375 OA
BRANCH   9  13
ATOM     10  C   UNL     1       4.306   5.851 -10.524  0.00  0.00    +0.053 A 
ATOM     11  C   UNL     1       3.447   5.165  -9.671  0.00  0.00    +0.139 A 
ATOM     12  N   UNL     1       2.057   5.363  -9.834  0.00  0.00    -0.208 N 
ATOM     13  C   UNL     1       1.136   5.540  -8.780  0.00  0.00    +0.414 C 
ATOM     14  O   UNL     1      -0.083   5.663  -9.063  0.00  0.00    -0.226 OA
ATOM     15  C   UNL     1       1.600   5.543 -11.211  0.00  0.00    +0.125 C 
ATOM     16  N   UNL     1       3.994   4.447  -8.671  0.00  0.00    -0.229 NA
ATOM     17  C   UNL     1       5.311   4.617  -8.412  0.00  0.00    +0.100 A 
ATOM     18  C   UNL     1       5.970   5.743  -8.881  0.00  0.00    +0.021 A 
ATOM     19  C   UNL     1       5.570   6.221 -10.116  0.00  0.00    +0.004 A 
BRANCH  10  20
ATOM     20  C   UNL     1       3.763   6.214 -11.869  0.00  0.00    +0.238 C 
BRANCH  20  21
ATOM     21  O   UNL     1       4.804   6.469 -12.787  0.00  0.00    -0.442 OA
BRANCH  21  22
ATOM     22  C   UNL     1       5.414   5.425 -13.450  0.00  0.00    +0.335 C 
ATOM     23  O   UNL     1       4.755   4.358 -13.575  0.00  0.00    -0.248 OA
BRANCH  22  24
ATOM     24  C   UNL     1       6.801   5.439 -13.951  0.00  0.00    +0.198 C 
BRANCH  24  26
ATOM     25  C   UNL     1       8.174   5.260 -12.434  0.00  0.00    +0.108 C 
ATOM     26  N   UNL     1       7.671   4.905 -12.909  0.00  0.00    -0.205 NA
ENDBRANCH  24  26
ENDBRANCH  22  24
ENDBRANCH  21  22
ENDBRANCH  20  21
ENDBRANCH  10  20
ENDBRANCH   9  13
ENDBRANCH   7   9
ENDBRANCH   2   7
ENDBRANCH   1   4
BRANCH   1  27
ATOM     27  C   UNL     1       2.722   6.587  -1.602  0.00  0.00    +0.176 C 
ATOM     28  O   UNL     1       2.514   7.975  -1.691  0.00  0.00    -0.219 OA
BRANCH  27  29
ATOM     29  C   UNL     1       3.937   6.267  -2.333  0.00  0.00    +0.037 A 
ATOM     30  C   UNL     1       4.092   4.977  -2.830  0.00  0.00    +0.139 A 
ATOM     31  F   UNL     1       3.999   4.018  -1.863  0.00  0.00    -0.204 F 
ATOM     32  C   UNL     1       4.726   4.746  -4.047  0.00  0.00    +0.032 A 
ATOM     33  C   UNL     1       4.984   5.806  -4.908  0.00  0.00    +0.032 A 
ATOM     34  C   UNL     1       5.148   7.044  -4.298  0.00  0.00    +0.140 A 
ATOM     35  F   UNL     1       6.131   7.909  -4.687  0.00  0.00    -0.204 F 
ATOM     36  C   UNL     1       4.531   7.266  -3.098  0.00  0.00    +0.030 A 
ENDBRANCH  27  29
BRANCH  27  37
ATOM     37  C   UNL     1       3.203   6.476  -0.051  0.00  0.00    +0.080 C 
ATOM     38  C   UNL     1       4.621   7.243  -0.334  0.00  0.00    +0.010 C 
BRANCH  37  39
ATOM     39  C   UNL     1       2.485   7.830   0.425  0.00  0.00    +0.091 A 
ATOM     40  S   UNL     1       1.408   8.070   1.702  0.00  0.00    -0.070 S 
ATOM     41  C   UNL     1       1.815   9.708   2.045  0.00  0.00    +0.056 A 
ATOM     42  C   UNL     1       2.907   9.891   1.201  0.00  0.00    +0.088 A 
ATOM     43  N   UNL     1       3.433   8.722   0.830  0.00  0.00    -0.243 NA
BRANCH  42  44
ATOM     44  C   UNL     1       3.563  11.159   0.839  0.00  0.00    +0.018 A 
ATOM     45  C   UNL     1       4.649  11.655   1.550  0.00  0.00    +0.002 A 
ATOM     46  C   UNL     1       5.317  12.779   1.076  0.00  0.00    +0.010 A 
ATOM     47  C   UNL     1       4.908  13.348  -0.121  0.00  0.00    +0.068 A 
ATOM     48  C   UNL     1       4.077  12.658  -0.996  0.00  0.00    +0.010 A 
ATOM     49  C   UNL     1       3.576  11.485  -0.513  0.00  0.00    +0.002 A 
BRANCH  47  50
ATOM     50  C   UNL     1       5.375  14.626  -0.561  0.00  0.00    +0.100 C 
ATOM     51  N   UNL     1       5.874  15.631  -0.846  0.00  0.00    -0.191 NA
ENDBRANCH  47  50
ENDBRANCH  42  44
ENDBRANCH  37  39
ENDBRANCH  27  37
ENDBRANCH   1  27
TORSDOF 15
ENDMDL
MODEL 3
REMARK VINA RESULT:      -8.6      2.528      6.128
REMARK  Name = 
REMARK  15 active torsions:
REMARK  status: ('A' for Active; 'I' for Inactive)
REMARK    1  A    between atoms: N_2  and  C_3
REMARK    2  A    between atoms: C_3  and  C_4
REMARK    3  A    between atoms: C_4  and  O_6
REMARK    4  A    between atoms: O_6  and  C_7
REMARK    5  A    between atoms: C_7  and  C_8
REMARK    6  A    between atoms: C_16  and  O_18
REMARK    7  A    between atoms: O_18  and  C_19
REMARK    8  A    between atoms: C_19  and  N_21
REMARK    9  A    between atoms: N_24  and  C_25
REMARK   10  A    between atoms: C_25  and  C_26
REMARK   11  A    between atoms: C_26  and  C_28
REMARK   12  A    between atoms: C_26  and  C_36
REMARK   13  A    between atoms: C_36  and  C_38
REMARK   14  A    between atoms: C_40  and  C_41
REMARK   15  A    between atoms: C_44  and  C_45
REMARK                            x       y       z     vdW  Elec       q    Type
REMARK                         _______ _______ _______ _____ _____    ______ ____
ROOT
ATOM      1  C   UNL     1       3.297   6.879  -8.058  0.00  0.00    +0.169 C 
ENDROOT
BRANCH   1   4
ATOM      2  N   UNL     1       4.054   6.958  -4.533  0.00  0.00    -0.091 N 
ATOM      3  C   UNL     1       4.462   7.115  -5.818  0.00  0.00    +0.402 A 
ATOM      4  N   UNL     1       3.366   7.125  -6.617  0.00  0.00    -0.181 N 
ATOM      5  N   UNL     1       2.355   7.179  -5.746  0.00  0.00    -0.092 NA
ATOM      6  C   UNL     1       2.814   6.576  -4.616  0.00  0.00    +0.423 A 
BRANCH   2   7
ATOM      7  C   UNL     1       5.155   6.461  -3.518  0.00  0.00    +0.437 C 
ATOM      8  C   UNL     1       5.210   4.925  -4.138  0.00  0.00    +0.141 C 
BRANCH   7   9
ATOM      9  O   UNL     1       4.099   6.053  -2.461  0.00  0.00    -0.375 OA
BRANCH   9  13
ATOM     10  C   UNL     1       0.826   7.177  -0.069  0.00  0.00    +0.053 A 
ATOM     11  C   UNL     1       1.930   6.384  -0.363  0.00  0.00    +0.139 A 
ATOM     12  N   UNL     1       3.206   6.993  -0.341  0.00  0.00    -0.208 N 
ATOM     13  C   UNL     1       4.220   6.783  -1.299  0.00  0.00    +0.414 C 
ATOM     14  O   UNL     1       5.327   7.356  -1.137  0.00  0.00    -0.226 OA
ATOM     15  C   UNL     1       3.398   8.024   0.678  0.00  0.00    +0.125 C 
ATOM     16  N   UNL     1       1.707   5.117  -0.763  0.00  0.00    -0.229 NA
ATOM     17  C   UNL     1       0.440   4.763  -1.077  0.00  0.00    +0.100 A 
ATOM     18  C   UNL     1      -0.506   5.739  -1.349  0.00  0.00    +0.021 A 
ATOM     19  C   UNL     1      -0.410   6.911  -0.620  0.00  0.00    +0.004 A 
BRANCH  10  20
ATOM     20  C   UNL     1       1.067   8.356   0.818  0.00  0.00    +0.238 C 
BRANCH  20  21
ATOM     21  O   UNL     1      -0.006   9.270   0.754  0.00  0.00    -0.442 OA
BRANCH  21  22
ATOM     22  C   UNL     1      -0.382   9.978   1.875  0.00  0.00    +0.335 C 
ATOM     23  O   UNL     1       0.521  10.255   2.711  0.00  0.00    -0.248 OA
BRANCH  22  24
ATOM     24  C   UNL     1      -1.766  10.365   2.205  0.00  0.00    +0.198 C 
BRANCH  24  26
ATOM     25  C   UNL     1      -2.986   8.741   2.506  0.00  0.00    +0.108 C 
ATOM     26  N   UNL     1      -2.629   9.207   1.998  0.00  0.00    -0.205 NA
ENDBRANCH  24  26
ENDBRANCH  22  24
ENDBRANCH  21  22
ENDBRANCH  20  21
ENDBRANCH  10  20
ENDBRANCH   9  13
ENDBRANCH   7   9
ENDBRANCH   2   7
ENDBRANCH   1   4
BRANCH   1  27
ATOM     27  C   UNL     1       4.064   5.752  -8.480  0.00  0.00    +0.176 C 
ATOM     28  O   UNL     1       4.723   5.220  -7.356  0.00  0.00    -0.219 OA
BRANCH  27  29
ATOM     29  C   UNL     1       5.025   5.833  -9.568  0.00  0.00    +0.037 A 
ATOM     30  C   UNL     1       4.913   6.881 -10.475  0.00  0.00    +0.139 A 
ATOM     31  F   UNL     1       3.691   6.936 -11.079  0.00  0.00    -0.204 F 
ATOM     32  C   UNL     1       6.043   7.477 -11.028  0.00  0.00    +0.032 A 
ATOM     33  C   UNL     1       7.299   7.215 -10.493  0.00  0.00    +0.032 A 
ATOM     34  C   UNL     1       7.437   5.980  -9.872  0.00  0.00    +0.140 A 
ATOM     35  F   UNL     1       8.551   5.209 -10.049  0.00  0.00    -0.204 F 
ATOM     36  C   UNL     1       6.324   5.392  -9.336  0.00  0.00    +0.030 A 
ENDBRANCH  27  29
BRANCH  27  37
ATOM     37  C   UNL     1       3.156   4.470  -8.904  0.00  0.00    +0.080 C 
ATOM     38  C   UNL     1       2.897   4.016  -7.352  0.00  0.00    +0.010 C 
BRANCH  37  39
ATOM     39  C   UNL     1       1.773   5.282  -8.970  0.00  0.00    +0.091 A 
ATOM     40  S   UNL     1       0.683   5.422 -10.251  0.00  0.00    -0.070 S 
ATOM     41  C   UNL     1      -0.748   5.634  -9.316  0.00  0.00    +0.056 A 
ATOM     42  C   UNL     1      -0.259   5.416  -8.031  0.00  0.00    +0.088 A 
ATOM     43  N   UNL     1       0.901   4.759  -8.060  0.00  0.00    -0.243 NA
BRANCH  42  44
ATOM     44  C   UNL     1      -0.933   5.694  -6.752  0.00  0.00    +0.018 A 
ATOM     45  C   UNL     1      -0.559   6.756  -5.937  0.00  0.00    +0.002 A 
ATOM     46  C   UNL     1      -1.324   7.056  -4.814  0.00  0.00    +0.010 A 
ATOM     47  C   UNL     1      -2.468   6.313  -4.563  0.00  0.00    +0.068 A 
ATOM     48  C   UNL     1      -3.029   5.507  -5.548  0.00  0.00    +0.010 A 
ATOM     49  C   UNL     1      -2.287   5.379  -6.684  0.00  0.00    +0.002 A 
BRANCH  47  50
ATOM     50  C   UNL     1      -3.177   6.393  -3.324  0.00  0.00    +0.100 C 
ATOM     51  N   UNL     1      -3.764   6.597  -2.348  0.00  0.00    -0.191 NA
ENDBRANCH  47  50
ENDBRANCH  42  44
ENDBRANCH  37  39
ENDBRANCH  27  37
ENDBRANCH   1  27
TORSDOF 15
ENDMDL
MODEL 4
REMARK VINA RESULT:      -8.4      1.683      2.822
REMARK  Name = 
REMARK  15 active torsions:
REMARK  status: ('A' for Active; 'I' for Inactive)
REMARK    1  A    between atoms: N_2  and  C_3
REMARK    2  A    between atoms: C_3  and  C_4
REMARK    3  A    between atoms: C_4  and  O_6
REMARK    4  A    between atoms: O_6  and  C_7
REMARK    5  A    between atoms: C_7  and  C_8
REMARK    6  A    between atoms: C_16  and  O_18
REMARK    7  A    between atoms: O_18  and  C_19
REMARK    8  A    between atoms: C_19  and  N_21
REMARK    9  A    between atoms: N_24  and  C_25
REMARK   10  A    between atoms: C_25  and  C_26
REMARK   11  A    between atoms: C_26  and  C_28
REMARK   12  A    between atoms: C_26  and  C_36
REMARK   13  A    between atoms: C_36  and  C_38
REMARK   14  A    between atoms: C_40  and  C_41
REMARK   15  A    between atoms: C_44  and  C_45
REMARK                            x       y       z     vdW  Elec       q    Type
REMARK                         _______ _______ _______ _____ _____    ______ ____
ROOT
ATOM      1  C   UNL     1       2.417   5.238  -6.242  0.00  0.00    +0.169 C 
ENDROOT
BRANCH   1   4
ATOM      2  N   UNL     1       4.236   5.105  -3.131  0.00  0.00    -0.091 N 
ATOM      3  C   UNL     1       3.252   4.618  -3.929  0.00  0.00    +0.402 A 
ATOM      4  N   UNL     1       3.410   5.143  -5.170  0.00  0.00    -0.181 N 
ATOM      5  N   UNL     1       4.596   5.752  -5.096  0.00  0.00    -0.092 NA
ATOM      6  C   UNL     1       4.743   6.105  -3.790  0.00  0.00    +0.423 A 
BRANCH   2   7
ATOM      7  C   UNL     1       3.976   5.000  -1.578  0.00  0.00    +0.437 C 
ATOM      8  C   UNL     1       2.365   4.649  -1.746  0.00  0.00    +0.141 C 
BRANCH   7   9
ATOM      9  O   UNL     1       3.687   6.517  -1.452  0.00  0.00    -0.375 OA
BRANCH   9  13
ATOM     10  C   UNL     1       1.954   9.114   1.367  0.00  0.00    +0.053 A 
ATOM     11  C   UNL     1       2.449   7.879   0.961  0.00  0.00    +0.139 A 
ATOM     12  N   UNL     1       3.831   7.779   0.684  0.00  0.00    -0.208 N 
ATOM     13  C   UNL     1       4.388   7.094  -0.417  0.00  0.00    +0.414 C 
ATOM     14  O   UNL     1       5.641   7.046  -0.523  0.00  0.00    -0.226 OA
ATOM     15  C   UNL     1       4.707   8.583   1.534  0.00  0.00    +0.125 C 
ATOM     16  N   UNL     1       1.563   6.886   0.747  0.00  0.00    -0.229 NA
ATOM     17  C   UNL     1       0.249   7.203   0.711  0.00  0.00    +0.100 A 
ATOM     18  C   UNL     1      -0.143   8.518   0.514  0.00  0.00    +0.021 A 
ATOM     19  C   UNL     1       0.658   9.491   1.085  0.00  0.00    +0.004 A 
BRANCH  10  20
ATOM     20  C   UNL     1       2.917  10.023   2.064  0.00  0.00    +0.238 C 
BRANCH  20  21
ATOM     21  O   UNL     1       2.891  11.318   1.504  0.00  0.00    -0.442 OA
BRANCH  21  22
ATOM     22  C   UNL     1       3.788  11.664   0.516  0.00  0.00    +0.335 C 
ATOM     23  O   UNL     1       3.501  11.329  -0.665  0.00  0.00    -0.248 OA
BRANCH  22  24
ATOM     24  C   UNL     1       5.086  12.322   0.747  0.00  0.00    +0.198 C 
BRANCH  24  26
ATOM     25  C   UNL     1       5.085  14.267   0.087  0.00  0.00    +0.108 C 
ATOM     26  N   UNL     1       5.153  13.514  -0.092  0.00  0.00    -0.205 NA
ENDBRANCH  24  26
ENDBRANCH  22  24
ENDBRANCH  21  22
ENDBRANCH  20  21
ENDBRANCH  10  20
ENDBRANCH   9  13
ENDBRANCH   7   9
ENDBRANCH   2   7
ENDBRANCH   1   4
BRANCH   1  27
ATOM     27  C   UNL     1       1.446   6.261  -6.027  0.00  0.00    +0.176 C 
ATOM     28  O   UNL     1       2.054   7.308  -5.311  0.00  0.00    -0.219 OA
BRANCH  27  29
ATOM     29  C   UNL     1       0.157   5.987  -5.413  0.00  0.00    +0.037 A 
ATOM     30  C   UNL     1      -0.216   6.726  -4.295  0.00  0.00    +0.139 A 
ATOM     31  F   UNL     1       0.686   6.640  -3.274  0.00  0.00    -0.204 F 
ATOM     32  C   UNL     1      -1.541   7.097  -4.086  0.00  0.00    +0.032 A 
ATOM     33  C   UNL     1      -2.470   6.963  -5.112  0.00  0.00    +0.032 A 
ATOM     34  C   UNL     1      -2.198   5.961  -6.036  0.00  0.00    +0.140 A 
ATOM     35  F   UNL     1      -3.180   5.137  -6.507  0.00  0.00    -0.204 F 
ATOM     36  C   UNL     1      -0.896   5.592  -6.234  0.00  0.00    +0.030 A 
ENDBRANCH  27  29
BRANCH  27  37
ATOM     37  C   UNL     1       1.029   7.057  -7.384  0.00  0.00    +0.080 C 
ATOM     38  C   UNL     1       2.414   7.929  -7.415  0.00  0.00    +0.010 C 
BRANCH  37  39
ATOM     39  C   UNL     1       1.617   5.955  -8.391  0.00  0.00    +0.091 A 
ATOM     40  S   UNL     1       0.801   5.004  -9.521  0.00  0.00    -0.070 S 
ATOM     41  C   UNL     1       2.089   4.829 -10.651  0.00  0.00    +0.056 A 
ATOM     42  C   UNL     1       3.038   5.687 -10.104  0.00  0.00    +0.088 A 
ATOM     43  N   UNL     1       2.477   6.556  -9.262  0.00  0.00    -0.243 NA
BRANCH  42  44
ATOM     44  C   UNL     1       4.462   5.802 -10.464  0.00  0.00    +0.018 A 
ATOM     45  C   UNL     1       5.471   5.712  -9.513  0.00  0.00    +0.002 A 
ATOM     46  C   UNL     1       6.799   5.683  -9.930  0.00  0.00    +0.010 A 
ATOM     47  C   UNL     1       7.077   5.699 -11.288  0.00  0.00    +0.068 A 
ATOM     48  C   UNL     1       6.085   5.430 -12.226  0.00  0.00    +0.010 A 
ATOM     49  C   UNL     1       4.824   5.325 -11.720  0.00  0.00    +0.002 A 
BRANCH  47  50
ATOM     50  C   UNL     1       8.396   5.907 -11.798  0.00  0.00    +0.100 C 
ATOM     51  N   UNL     1       9.488   5.938 -12.180  0.00  0.00    -0.191 NA
ENDBRANCH  47  50
ENDBRANCH  42  44
ENDBRANCH  37  39
ENDBRANCH  27  37
ENDBRANCH   1  27
TORSDOF 15
ENDMDL
MODEL 5
REMARK VINA RESULT:      -8.4      4.727      7.646
REMARK  Name = 
REMARK  15 active torsions:
REMARK  status: ('A' for Active; 'I' for Inactive)
REMARK    1  A    between atoms: N_2  and  C_3
REMARK    2  A    between atoms: C_3  and  C_4
REMARK    3  A    between atoms: C_4  and  O_6
REMARK    4  A    between atoms: O_6  and  C_7
REMARK    5  A    between atoms: C_7  and  C_8
REMARK    6  A    between atoms: C_16  and  O_18
REMARK    7  A    between atoms: O_18  and  C_19
REMARK    8  A    between atoms: C_19  and  N_21
REMARK    9  A    between atoms: N_24  and  C_25
REMARK   10  A    between atoms: C_25  and  C_26
REMARK   11  A    between atoms: C_26  and  C_28
REMARK   12  A    between atoms: C_26  and  C_36
REMARK   13  A    between atoms: C_36  and  C_38
REMARK   14  A    between atoms: C_40  and  C_41
REMARK   15  A    between atoms: C_44  and  C_45
REMARK                            x       y       z     vdW  Elec       q    Type
REMARK                         _______ _______ _______ _____ _____    ______ ____
ROOT
ATOM      1  C   UNL     1       3.532   6.503 -11.983  0.00  0.00    +0.169 C 
ENDROOT
BRANCH   1   4
ATOM      2  N   UNL     1       2.888   6.090  -8.459  0.00  0.00    -0.091 N 
ATOM      3  C   UNL     1       3.395   6.836  -9.472  0.00  0.00    +0.402 A 
ATOM      4  N   UNL     1       2.965   6.311 -10.647  0.00  0.00    -0.181 N 
ATOM      5  N   UNL     1       2.062   5.406 -10.264  0.00  0.00    -0.092 NA
ATOM      6  C   UNL     1       2.452   5.003  -9.024  0.00  0.00    +0.423 A 
BRANCH   2   7
ATOM      7  C   UNL     1       3.619   6.233  -7.068  0.00  0.00    +0.437 C 
ATOM      8  C   UNL     1       5.029   5.542  -7.598  0.00  0.00    +0.141 C 
BRANCH   7   9
ATOM      9  O   UNL     1       3.079   4.870  -6.564  0.00  0.00    -0.375 OA
BRANCH   9  13
ATOM     10  C   UNL     1      -0.441   6.106  -4.622  0.00  0.00    +0.053 A 
ATOM     11  C   UNL     1       0.430   5.137  -5.108  0.00  0.00    +0.139 A 
ATOM     12  N   UNL     1       1.702   5.028  -4.502  0.00  0.00    -0.208 N 
ATOM     13  C   UNL     1       2.917   4.850  -5.197  0.00  0.00    +0.414 C 
ATOM     14  O   UNL     1       3.977   4.726  -4.531  0.00  0.00    -0.226 OA
ATOM     15  C   UNL     1       1.741   5.275  -3.062  0.00  0.00    +0.125 C 
ATOM     16  N   UNL     1       0.053   4.441  -6.198  0.00  0.00    -0.229 NA
ATOM     17  C   UNL     1      -1.027   4.875  -6.888  0.00  0.00    +0.100 A 
ATOM     18  C   UNL     1      -1.483   6.173  -6.718  0.00  0.00    +0.021 A 
ATOM     19  C   UNL     1      -1.375   6.702  -5.444  0.00  0.00    +0.004 A 
BRANCH  10  20
ATOM     20  C   UNL     1      -0.267   6.505  -3.191  0.00  0.00    +0.238 C 
BRANCH  20  21
ATOM     21  O   UNL     1      -1.512   6.756  -2.577  0.00  0.00    -0.442 OA
BRANCH  21  22
ATOM     22  C   UNL     1      -1.935   5.975  -1.523  0.00  0.00    +0.335 C 
ATOM     23  O   UNL     1      -2.649   4.972  -1.799  0.00  0.00    -0.248 OA
BRANCH  22  24
ATOM     24  C   UNL     1      -1.682   6.266  -0.101  0.00  0.00    +0.198 C 
BRANCH  24  26
ATOM     25  C   UNL     1      -1.663   8.249   0.437  0.00  0.00    +0.108 C 
ATOM     26  N   UNL     1      -2.072   7.647   0.163  0.00  0.00    -0.205 NA
ENDBRANCH  24  26
ENDBRANCH  22  24
ENDBRANCH  21  22
ENDBRANCH  20  21
ENDBRANCH  10  20
ENDBRANCH   9  13
ENDBRANCH   7   9
ENDBRANCH   2   7
ENDBRANCH   1   4
BRANCH   1  27
ATOM     27  C   UNL     1       4.734   5.765 -12.202  0.00  0.00    +0.176 C 
ATOM     28  O   UNL     1       4.691   4.603 -11.410  0.00  0.00    -0.219 OA
BRANCH  27  29
ATOM     29  C   UNL     1       6.049   6.365 -12.048  0.00  0.00    +0.037 A 
ATOM     30  C   UNL     1       6.224   7.340 -11.072  0.00  0.00    +0.139 A 
ATOM     31  F   UNL     1       5.370   8.395 -11.213  0.00  0.00    -0.204 F 
ATOM     32  C   UNL     1       7.415   7.438 -10.358  0.00  0.00    +0.032 A 
ATOM     33  C   UNL     1       8.349   6.411 -10.421  0.00  0.00    +0.032 A 
ATOM     34  C   UNL     1       8.338   5.665 -11.593  0.00  0.00    +0.140 A 
ATOM     35  F   UNL     1       9.495   5.289 -12.214  0.00  0.00    -0.204 F 
ATOM     36  C   UNL     1       7.168   5.576 -12.298  0.00  0.00    +0.030 A 
ENDBRANCH  27  29
BRANCH  27  37
ATOM     37  C   UNL     1       4.823   5.092 -13.681  0.00  0.00    +0.080 C 
ATOM     38  C   UNL     1       3.198   5.081 -13.881  0.00  0.00    +0.010 C 
BRANCH  37  39
ATOM     39  C   UNL     1       4.981   6.481 -14.469  0.00  0.00    +0.091 A 
ATOM     40  S   UNL     1       6.281   7.040 -15.388  0.00  0.00    -0.070 S 
ATOM     41  C   UNL     1       5.387   8.026 -16.480  0.00  0.00    +0.056 A 
ATOM     42  C   UNL     1       4.082   7.705 -16.118  0.00  0.00    +0.088 A 
ATOM     43  N   UNL     1       4.036   6.552 -15.449  0.00  0.00    -0.243 NA
BRANCH  42  44
ATOM     44  C   UNL     1       2.842   8.395 -16.512  0.00  0.00    +0.018 A 
ATOM     45  C   UNL     1       1.602   8.028 -16.004  0.00  0.00    +0.002 A 
ATOM     46  C   UNL     1       0.487   8.807 -16.299  0.00  0.00    +0.010 A 
ATOM     47  C   UNL     1       0.653   9.957 -17.056  0.00  0.00    +0.068 A 
ATOM     48  C   UNL     1       1.914  10.508 -17.256  0.00  0.00    +0.010 A 
ATOM     49  C   UNL     1       2.954   9.750 -16.805  0.00  0.00    +0.002 A 
BRANCH  47  50
ATOM     50  C   UNL     1      -0.453  10.682 -17.600  0.00  0.00    +0.100 C 
ATOM     51  N   UNL     1      -1.313  11.210 -18.167  0.00  0.00    -0.191 NA
ENDBRANCH  47  50
ENDBRANCH  42  44
ENDBRANCH  37  39
ENDBRANCH  27  37
ENDBRANCH   1  27
TORSDOF 15
ENDMDL
MODEL 6
REMARK VINA RESULT:      -8.3      1.805      2.475
REMARK  Name = 
REMARK  15 active torsions:
REMARK  status: ('A' for Active; 'I' for Inactive)
REMARK    1  A    between atoms: N_2  and  C_3
REMARK    2  A    between atoms: C_3  and  C_4
REMARK    3  A    between atoms: C_4  and  O_6
REMARK    4  A    between atoms: O_6  and  C_7
REMARK    5  A    between atoms: C_7  and  C_8
REMARK    6  A    between atoms: C_16  and  O_18
REMARK    7  A    between atoms: O_18  and  C_19
REMARK    8  A    between atoms: C_19  and  N_21
REMARK    9  A    between atoms: N_24  and  C_25
REMARK   10  A    between atoms: C_25  and  C_26
REMARK   11  A    between atoms: C_26  and  C_28
REMARK   12  A    between atoms: C_26  and  C_36
REMARK   13  A    between atoms: C_36  and  C_38
REMARK   14  A    between atoms: C_40  and  C_41
REMARK   15  A    between atoms: C_44  and  C_45
REMARK                            x       y       z     vdW  Elec       q    Type
REMARK                         _______ _______ _______ _____ _____    ______ ____
ROOT
ATOM      1  C   UNL     1       1.858   4.614  -5.926  0.00  0.00    +0.169 C 
ENDROOT
BRANCH   1   4
ATOM      2  N   UNL     1       3.451   6.446  -3.260  0.00  0.00    -0.091 N 
ATOM      3  C   UNL     1       2.382   6.269  -4.076  0.00  0.00    +0.402 A 
ATOM      4  N   UNL     1       2.515   5.071  -4.701  0.00  0.00    -0.181 N 
ATOM      5  N   UNL     1       3.551   4.512  -4.069  0.00  0.00    -0.092 NA
ATOM      6  C   UNL     1       4.315   5.549  -3.632  0.00  0.00    +0.423 A 
BRANCH   2   7
ATOM      7  C   UNL     1       3.730   7.932  -2.808  0.00  0.00    +0.437 C 
ATOM      8  C   UNL     1       5.317   7.910  -3.283  0.00  0.00    +0.141 C 
BRANCH   7   9
ATOM      9  O   UNL     1       4.101   7.500  -1.367  0.00  0.00    -0.375 OA
BRANCH   9  13
ATOM     10  C   UNL     1       0.023   6.892  -0.531  0.00  0.00    +0.053 A 
ATOM     11  C   UNL     1       1.379   6.746  -0.256  0.00  0.00    +0.139 A 
ATOM     12  N   UNL     1       2.116   7.908   0.071  0.00  0.00    -0.208 N 
ATOM     13  C   UNL     1       3.404   8.213  -0.416  0.00  0.00    +0.414 C 
ATOM     14  O   UNL     1       3.966   9.262  -0.011  0.00  0.00    -0.226 OA
ATOM     15  C   UNL     1       1.398   8.915   0.850  0.00  0.00    +0.125 C 
ATOM     16  N   UNL     1       1.929   5.529  -0.429  0.00  0.00    -0.229 NA
ATOM     17  C   UNL     1       1.203   4.588  -1.074  0.00  0.00    +0.100 A 
ATOM     18  C   UNL     1       0.119   4.962  -1.853  0.00  0.00    +0.021 A 
ATOM     19  C   UNL     1      -0.623   6.039  -1.401  0.00  0.00    +0.004 A 
BRANCH  10  20
ATOM     20  C   UNL     1      -0.669   8.050   0.113  0.00  0.00    +0.238 C 
BRANCH  20  21
ATOM     21  O   UNL     1      -1.950   7.684   0.577  0.00  0.00    -0.442 OA
BRANCH  21  22
ATOM     22  C   UNL     1      -2.308   7.921   1.887  0.00  0.00    +0.335 C 
ATOM     23  O   UNL     1      -2.048   7.016   2.727  0.00  0.00    -0.248 OA
BRANCH  22  24
ATOM     24  C   UNL     1      -3.036   9.111   2.362  0.00  0.00    +0.198 C 
BRANCH  24  26
ATOM     25  C   UNL     1      -1.616  10.490   2.913  0.00  0.00    +0.108 C 
ATOM     26  N   UNL     1      -2.114  10.242   2.369  0.00  0.00    -0.205 NA
ENDBRANCH  24  26
ENDBRANCH  22  24
ENDBRANCH  21  22
ENDBRANCH  20  21
ENDBRANCH  10  20
ENDBRANCH   9  13
ENDBRANCH   7   9
ENDBRANCH   2   7
ENDBRANCH   1   4
BRANCH   1  27
ATOM     27  C   UNL     1       1.361   5.679  -6.735  0.00  0.00    +0.176 C 
ATOM     28  O   UNL     1       2.264   6.754  -6.657  0.00  0.00    -0.219 OA
BRANCH  27  29
ATOM     29  C   UNL     1       0.017   6.209  -6.576  0.00  0.00    +0.037 A 
ATOM     30  C   UNL     1      -1.059   5.333  -6.675  0.00  0.00    +0.139 A 
ATOM     31  F   UNL     1      -1.085   4.654  -7.859  0.00  0.00    -0.204 F 
ATOM     32  C   UNL     1      -2.193   5.492  -5.885  0.00  0.00    +0.032 A 
ATOM     33  C   UNL     1      -2.169   6.366  -4.804  0.00  0.00    +0.032 A 
ATOM     34  C   UNL     1      -1.284   7.431  -4.917  0.00  0.00    +0.140 A 
ATOM     35  F   UNL     1      -1.634   8.696  -4.539  0.00  0.00    -0.204 F 
ATOM     36  C   UNL     1      -0.174   7.276  -5.702  0.00  0.00    +0.030 A 
ENDBRANCH  27  29
BRANCH  27  37
ATOM     37  C   UNL     1       1.432   5.370  -8.332  0.00  0.00    +0.080 C 
ATOM     38  C   UNL     1       1.057   6.909  -8.745  0.00  0.00    +0.010 C 
BRANCH  37  39
ATOM     39  C   UNL     1       3.008   5.644  -8.466  0.00  0.00    +0.091 A 
ATOM     40  S   UNL     1       4.288   4.914  -7.644  0.00  0.00    -0.070 S 
ATOM     41  C   UNL     1       5.480   5.078  -8.876  0.00  0.00    +0.056 A 
ATOM     42  C   UNL     1       4.709   5.572  -9.925  0.00  0.00    +0.088 A 
ATOM     43  N   UNL     1       3.412   5.327  -9.729  0.00  0.00    -0.243 NA
BRANCH  42  44
ATOM     44  C   UNL     1       5.180   6.155 -11.193  0.00  0.00    +0.018 A 
ATOM     45  C   UNL     1       6.162   7.138 -11.231  0.00  0.00    +0.002 A 
ATOM     46  C   UNL     1       6.669   7.546 -12.461  0.00  0.00    +0.010 A 
ATOM     47  C   UNL     1       6.213   6.927 -13.614  0.00  0.00    +0.068 A 
ATOM     48  C   UNL     1       5.515   5.726 -13.555  0.00  0.00    +0.010 A 
ATOM     49  C   UNL     1       5.180   5.313 -12.300  0.00  0.00    +0.002 A 
BRANCH  47  50
ATOM     50  C   UNL     1       6.497   7.435 -14.920  0.00  0.00    +0.100 C 
ATOM     51  N   UNL     1       6.627   7.756 -16.025  0.00  0.00    -0.191 NA
ENDBRANCH  47  50
ENDBRANCH  42  44
ENDBRANCH  37  39
ENDBRANCH  27  37
ENDBRANCH   1  27
TORSDOF 15
ENDMDL
MODEL 7
REMARK VINA RESULT:      -8.2      3.668     12.391
REMARK  Name = 
REMARK  15 active torsions:
REMARK  status: ('A' for Active; 'I' for Inactive)
REMARK    1  A    between atoms: N_2  and  C_3
REMARK    2  A    between atoms: C_3  and  C_4
REMARK    3  A    between atoms: C_4  and  O_6
REMARK    4  A    between atoms: O_6  and  C_7
REMARK    5  A    between atoms: C_7  and  C_8
REMARK    6  A    between atoms: C_16  and  O_18
REMARK    7  A    between atoms: O_18  and  C_19
REMARK    8  A    between atoms: C_19  and  N_21
REMARK    9  A    between atoms: N_24  and  C_25
REMARK   10  A    between atoms: C_25  and  C_26
REMARK   11  A    between atoms: C_26  and  C_28
REMARK   12  A    between atoms: C_26  and  C_36
REMARK   13  A    between atoms: C_36  and  C_38
REMARK   14  A    between atoms: C_40  and  C_41
REMARK   15  A    between atoms: C_44  and  C_45
REMARK                            x       y       z     vdW  Elec       q    Type
REMARK                         _______ _______ _______ _____ _____    ______ ____
ROOT
ATOM      1  C   UNL     1       0.391   5.161  -5.813  0.00  0.00    +0.169 C 
ENDROOT
BRANCH   1   4
ATOM      2  N   UNL     1       0.627   6.541  -9.136  0.00  0.00    -0.091 N 
ATOM      3  C   UNL     1      -0.068   5.824  -8.218  0.00  0.00    +0.402 A 
ATOM      4  N   UNL     1       0.517   6.000  -7.006  0.00  0.00    -0.181 N 
ATOM      5  N   UNL     1       1.404   6.972  -7.234  0.00  0.00    -0.092 NA
ATOM      6  C   UNL     1       1.742   6.857  -8.546  0.00  0.00    +0.423 A 
BRANCH   2   7
ATOM      7  C   UNL     1       0.412   6.120 -10.642  0.00  0.00    +0.437 C 
ATOM      8  C   UNL     1       0.663   4.507 -10.357  0.00  0.00    +0.141 C 
BRANCH   7   9
ATOM      9  O   UNL     1       1.905   6.344 -10.992  0.00  0.00    -0.375 OA
BRANCH   9  13
ATOM     10  C   UNL     1       5.781   6.442 -12.622  0.00  0.00    +0.053 A 
ATOM     11  C   UNL     1       4.688   5.786 -12.067  0.00  0.00    +0.139 A 
ATOM     12  N   UNL     1       3.488   5.753 -12.814  0.00  0.00    -0.208 N 
ATOM     13  C   UNL     1       2.198   5.962 -12.282  0.00  0.00    +0.414 C 
ATOM     14  O   UNL     1       1.208   5.862 -13.052  0.00  0.00    -0.226 OA
ATOM     15  C   UNL     1       3.647   5.641 -14.263  0.00  0.00    +0.125 C 
ATOM     16  N   UNL     1       4.804   5.325 -10.807  0.00  0.00    -0.229 NA
ATOM     17  C   UNL     1       5.873   5.722 -10.080  0.00  0.00    +0.100 A 
ATOM     18  C   UNL     1       6.597   6.840 -10.465  0.00  0.00    +0.021 A 
ATOM     19  C   UNL     1       6.728   7.051 -11.826  0.00  0.00    +0.004 A 
BRANCH  10  20
ATOM     20  C   UNL     1       5.837   6.501 -14.116  0.00  0.00    +0.238 C 
BRANCH  20  21
ATOM     21  O   UNL     1       6.474   7.682 -14.555  0.00  0.00    -0.442 OA
BRANCH  21  22
ATOM     22  C   UNL     1       6.475   8.012 -15.893  0.00  0.00    +0.335 C 
ATOM     23  O   UNL     1       5.501   8.692 -16.319  0.00  0.00    -0.248 OA
BRANCH  22  24
ATOM     24  C   UNL     1       7.483   7.567 -16.873  0.00  0.00    +0.198 C 
BRANCH  24  26
ATOM     25  C   UNL     1       7.066   6.132 -18.282  0.00  0.00    +0.108 C 
ATOM     26  N   UNL     1       6.816   6.749 -17.879  0.00  0.00    -0.205 NA
ENDBRANCH  24  26
ENDBRANCH  22  24
ENDBRANCH  21  22
ENDBRANCH  20  21
ENDBRANCH  10  20
ENDBRANCH   9  13
ENDBRANCH   7   9
ENDBRANCH   2   7
ENDBRANCH   1   4
BRANCH   1  27
ATOM     27  C   UNL     1       1.050   5.700  -4.668  0.00  0.00    +0.176 C 
ATOM     28  O   UNL     1       0.533   6.985  -4.422  0.00  0.00    -0.219 OA
BRANCH  27  29
ATOM     29  C   UNL     1       2.499   5.773  -4.572  0.00  0.00    +0.037 A 
ATOM     30  C   UNL     1       3.261   4.928  -5.372  0.00  0.00    +0.139 A 
ATOM     31  F   UNL     1       2.961   3.609  -5.191  0.00  0.00    -0.204 F 
ATOM     32  C   UNL     1       4.473   5.348  -5.912  0.00  0.00    +0.032 A 
ATOM     33  C   UNL     1       4.819   6.694  -5.879  0.00  0.00    +0.032 A 
ATOM     34  C   UNL     1       4.269   7.426  -4.834  0.00  0.00    +0.140 A 
ATOM     35  F   UNL     1       5.006   8.337  -4.133  0.00  0.00    -0.204 F 
ATOM     36  C   UNL     1       3.082   7.007  -4.299  0.00  0.00    +0.030 A 
ENDBRANCH  27  29
BRANCH  27  37
ATOM     37  C   UNL     1       0.640   4.963  -3.275  0.00  0.00    +0.080 C 
ATOM     38  C   UNL     1       1.642   5.893  -2.374  0.00  0.00    +0.010 C 
BRANCH  37  39
ATOM     39  C   UNL     1      -0.622   5.908  -2.973  0.00  0.00    +0.091 A 
ATOM     40  S   UNL     1      -2.252   5.649  -3.324  0.00  0.00    -0.070 S 
ATOM     41  C   UNL     1      -2.917   6.553  -2.018  0.00  0.00    +0.056 A 
ATOM     42  C   UNL     1      -1.767   6.867  -1.301  0.00  0.00    +0.088 A 
ATOM     43  N   UNL     1      -0.759   6.056  -1.624  0.00  0.00    -0.243 NA
BRANCH  42  44
ATOM     44  C   UNL     1      -1.627   7.838  -0.202  0.00  0.00    +0.018 A 
ATOM     45  C   UNL     1      -2.554   7.919   0.831  0.00  0.00    +0.002 A 
ATOM     46  C   UNL     1      -2.294   8.753   1.914  0.00  0.00    +0.010 A 
ATOM     47  C   UNL     1      -1.095   9.446   1.956  0.00  0.00    +0.068 A 
ATOM     48  C   UNL     1      -0.036   9.098   1.124  0.00  0.00    +0.010 A 
ATOM     49  C   UNL     1      -0.328   8.162   0.177  0.00  0.00    +0.002 A 
BRANCH  47  50
ATOM     50  C   UNL     1      -0.847  10.492   2.898  0.00  0.00    +0.100 C 
ATOM     51  N   UNL     1      -0.733  11.268   3.750  0.00  0.00    -0.191 NA
ENDBRANCH  47  50
ENDBRANCH  42  44
ENDBRANCH  37  39
ENDBRANCH  27  37
ENDBRANCH   1  27
TORSDOF 15
ENDMDL
MODEL 8
REMARK VINA RESULT:      -8.0      4.952     12.627
REMARK  Name = 
REMARK  15 active torsions:
REMARK  status: ('A' for Active; 'I' for Inactive)
REMARK    1  A    between atoms: N_2  and  C_3
REMARK    2  A    between atoms: C_3  and  C_4
REMARK    3  A    between atoms: C_4  and  O_6
REMARK    4  A    between atoms: O_6  and  C_7
REMARK    5  A    between atoms: C_7  and  C_8
REMARK    6  A    between atoms: C_16  and  O_18
REMARK    7  A    between atoms: O_18  and  C_19
REMARK    8  A    between atoms: C_19  and  N_21
REMARK    9  A    between atoms: N_24  and  C_25
REMARK   10  A    between atoms: C_25  and  C_26
REMARK   11  A    between atoms: C_26  and  C_28
REMARK   12  A    between atoms: C_26  and  C_36
REMARK   13  A    between atoms: C_36  and  C_38
REMARK   14  A    between atoms: C_40  and  C_41
REMARK   15  A    between atoms: C_44  and  C_45
REMARK                            x       y       z     vdW  Elec       q    Type
REMARK                         _______ _______ _______ _____ _____    ______ ____
ROOT
ATOM      1  C   UNL     1       2.867   4.869  -8.779  0.00  0.00    +0.169 C 
ENDROOT
BRANCH   1   4
ATOM      2  N   UNL     1       0.026   5.127 -10.985  0.00  0.00    -0.091 N 
ATOM      3  C   UNL     1       1.285   4.678 -10.752  0.00  0.00    +0.402 A 
ATOM      4  N   UNL     1       1.557   4.834  -9.432  0.00  0.00    -0.181 N 
ATOM      5  N   UNL     1       0.375   5.177  -8.915  0.00  0.00    -0.092 NA
ATOM      6  C   UNL     1      -0.295   5.802  -9.921  0.00  0.00    +0.423 A 
BRANCH   2   7
ATOM      7  C   UNL     1      -0.316   5.467 -12.487  0.00  0.00    +0.437 C 
ATOM      8  C   UNL     1       0.383   4.089 -13.087  0.00  0.00    +0.141 C 
BRANCH   7   9
ATOM      9  O   UNL     1       0.992   6.276 -12.676  0.00  0.00    -0.375 OA
BRANCH   9  13
ATOM     10  C   UNL     1       4.500   6.623 -14.971  0.00  0.00    +0.053 A 
ATOM     11  C   UNL     1       3.268   6.051 -14.671  0.00  0.00    +0.139 A 
ATOM     12  N   UNL     1       2.114   6.855 -14.817  0.00  0.00    -0.208 N 
ATOM     13  C   UNL     1       1.041   6.903 -13.902  0.00  0.00    +0.414 C 
ATOM     14  O   UNL     1       0.052   7.631 -14.174  0.00  0.00    -0.226 OA
ATOM     15  C   UNL     1       2.138   7.803 -15.929  0.00  0.00    +0.125 C 
ATOM     16  N   UNL     1       3.261   4.808 -14.152  0.00  0.00    -0.229 NA
ATOM     17  C   UNL     1       4.437   4.284 -13.739  0.00  0.00    +0.100 A 
ATOM     18  C   UNL     1       5.521   5.115 -13.500  0.00  0.00    +0.021 A 
ATOM     19  C   UNL     1       5.651   6.213 -14.331  0.00  0.00    +0.004 A 
BRANCH  10  20
ATOM     20  C   UNL     1       4.495   7.738 -15.968  0.00  0.00    +0.238 C 
BRANCH  20  21
ATOM     21  O   UNL     1       5.721   8.436 -15.957  0.00  0.00    -0.442 OA
BRANCH  21  22
ATOM     22  C   UNL     1       6.250   8.927 -17.132  0.00  0.00    +0.335 C 
ATOM     23  O   UNL     1       6.356  10.179 -17.237  0.00  0.00    -0.248 OA
BRANCH  22  24
ATOM     24  C   UNL     1       6.625   8.106 -18.297  0.00  0.00    +0.198 C 
BRANCH  24  26
ATOM     25  C   UNL     1       8.210   6.837 -17.986  0.00  0.00    +0.108 C 
ATOM     26  N   UNL     1       7.467   7.008 -17.835  0.00  0.00    -0.205 NA
ENDBRANCH  24  26
ENDBRANCH  22  24
ENDBRANCH  21  22
ENDBRANCH  20  21
ENDBRANCH  10  20
ENDBRANCH   9  13
ENDBRANCH   7   9
ENDBRANCH   2   7
ENDBRANCH   1   4
BRANCH   1  27
ATOM     27  C   UNL     1       3.623   6.040  -9.086  0.00  0.00    +0.176 C 
ATOM     28  O   UNL     1       2.768   6.970  -9.704  0.00  0.00    -0.219 OA
BRANCH  27  29
ATOM     29  C   UNL     1       4.858   5.986  -9.851  0.00  0.00    +0.037 A 
ATOM     30  C   UNL     1       5.145   7.032 -10.722  0.00  0.00    +0.139 A 
ATOM     31  F   UNL     1       4.164   7.239 -11.648  0.00  0.00    -0.204 F 
ATOM     32  C   UNL     1       6.451   7.472 -10.911  0.00  0.00    +0.032 A 
ATOM     33  C   UNL     1       7.458   7.054 -10.048  0.00  0.00    +0.032 A 
ATOM     34  C   UNL     1       7.254   5.817  -9.449  0.00  0.00    +0.140 A 
ATOM     35  F   UNL     1       8.265   4.907  -9.323  0.00  0.00    -0.204 F 
ATOM     36  C   UNL     1       5.969   5.382  -9.271  0.00  0.00    +0.030 A 
ENDBRANCH  27  29
BRANCH  27  37
ATOM     37  C   UNL     1       4.060   6.894  -7.771  0.00  0.00    +0.080 C 
ATOM     38  C   UNL     1       2.680   7.775  -7.764  0.00  0.00    +0.010 C 
BRANCH  37  39
ATOM     39  C   UNL     1       3.475   5.843  -6.708  0.00  0.00    +0.091 A 
ATOM     40  S   UNL     1       4.302   4.909  -5.572  0.00  0.00    -0.070 S 
ATOM     41  C   UNL     1       3.047   4.807  -4.397  0.00  0.00    +0.056 A 
ATOM     42  C   UNL     1       2.103   5.671  -4.944  0.00  0.00    +0.088 A 
ATOM     43  N   UNL     1       2.659   6.495  -5.833  0.00  0.00    -0.243 NA
BRANCH  42  44
ATOM     44  C   UNL     1       0.695   5.836  -4.544  0.00  0.00    +0.018 A 
ATOM     45  C   UNL     1      -0.342   5.794  -5.468  0.00  0.00    +0.002 A 
ATOM     46  C   UNL     1      -1.658   5.811  -5.016  0.00  0.00    +0.010 A 
ATOM     47  C   UNL     1      -1.899   5.823  -3.651  0.00  0.00    +0.068 A 
ATOM     48  C   UNL     1      -0.894   5.509  -2.743  0.00  0.00    +0.010 A 
ATOM     49  C   UNL     1       0.348   5.361  -3.284  0.00  0.00    +0.002 A 
BRANCH  47  50
ATOM     50  C   UNL     1      -3.196   6.076  -3.104  0.00  0.00    +0.100 C 
ATOM     51  N   UNL     1      -4.190   6.403  -2.610  0.00  0.00    -0.191 NA
ENDBRANCH  47  50
ENDBRANCH  42  44
ENDBRANCH  37  39
ENDBRANCH  27  37
ENDBRANCH   1  27
TORSDOF 15
ENDMDL
MODEL 9
REMARK VINA RESULT:      -8.0      1.866      2.772
REMARK  Name = 
REMARK  15 active torsions:
REMARK  status: ('A' for Active; 'I' for Inactive)
REMARK    1  A    between atoms: N_2  and  C_3
REMARK    2  A    between atoms: C_3  and  C_4
REMARK    3  A    between atoms: C_4  and  O_6
REMARK    4  A    between atoms: O_6  and  C_7
REMARK    5  A    between atoms: C_7  and  C_8
REMARK    6  A    between atoms: C_16  and  O_18
REMARK    7  A    between atoms: O_18  and  C_19
REMARK    8  A    between atoms: C_19  and  N_21
REMARK    9  A    between atoms: N_24  and  C_25
REMARK   10  A    between atoms: C_25  and  C_26
REMARK   11  A    between atoms: C_26  and  C_28
REMARK   12  A    between atoms: C_26  and  C_36
REMARK   13  A    between atoms: C_36  and  C_38
REMARK   14  A    between atoms: C_40  and  C_41
REMARK   15  A    between atoms: C_44  and  C_45
REMARK                            x       y       z     vdW  Elec       q    Type
REMARK                         _______ _______ _______ _____ _____    ______ ____
ROOT
ATOM      1  C   UNL     1       2.572   7.217  -5.980  0.00  0.00    +0.169 C 
ENDROOT
BRANCH   1   4
ATOM      2  N   UNL     1       4.561   6.346  -3.101  0.00  0.00    -0.091 N 
ATOM      3  C   UNL     1       3.400   6.231  -3.794  0.00  0.00    +0.402 A 
ATOM      4  N   UNL     1       3.587   6.758  -5.031  0.00  0.00    -0.181 N 
ATOM      5  N   UNL     1       4.905   6.971  -5.075  0.00  0.00    -0.092 NA
ATOM      6  C   UNL     1       5.284   7.182  -3.786  0.00  0.00    +0.423 A 
BRANCH   2   7
ATOM      7  C   UNL     1       4.437   6.230  -1.532  0.00  0.00    +0.437 C 
ATOM      8  C   UNL     1       3.410   4.931  -1.584  0.00  0.00    +0.141 C 
BRANCH   7   9
ATOM      9  O   UNL     1       3.255   7.230  -1.479  0.00  0.00    -0.375 OA
BRANCH   9  13
ATOM     10  C   UNL     1      -0.320   8.244   0.492  0.00  0.00    +0.053 A 
ATOM     11  C   UNL     1       0.824   7.471   0.321  0.00  0.00    +0.139 A 
ATOM     12  N   UNL     1       2.077   8.089   0.533  0.00  0.00    -0.208 N 
ATOM     13  C   UNL     1       3.212   7.920  -0.288  0.00  0.00    +0.414 C 
ATOM     14  O   UNL     1       4.281   8.496   0.039  0.00  0.00    -0.226 OA
ATOM     15  C   UNL     1       2.119   9.086   1.601  0.00  0.00    +0.125 C 
ATOM     16  N   UNL     1       0.671   6.217  -0.147  0.00  0.00    -0.229 NA
ATOM     17  C   UNL     1      -0.538   5.863  -0.638  0.00  0.00    +0.100 A 
ATOM     18  C   UNL     1      -1.452   6.841  -1.001  0.00  0.00    +0.021 A 
ATOM     19  C   UNL     1      -1.468   7.987  -0.227  0.00  0.00    +0.004 A 
BRANCH  10  20
ATOM     20  C   UNL     1      -0.213   9.394   1.442  0.00  0.00    +0.238 C 
BRANCH  20  21
ATOM     21  O   UNL     1      -1.451  10.057   1.580  0.00  0.00    -0.442 OA
BRANCH  21  22
ATOM     22  C   UNL     1      -1.926  10.384   2.832  0.00  0.00    +0.335 C 
ATOM     23  O   UNL     1      -1.354  11.332   3.436  0.00  0.00    -0.248 OA
BRANCH  22  24
ATOM     24  C   UNL     1      -2.996   9.662   3.544  0.00  0.00    +0.198 C 
BRANCH  24  26
ATOM     25  C   UNL     1      -3.653   7.937   2.642  0.00  0.00    +0.108 C 
ATOM     26  N   UNL     1      -3.606   8.713   2.619  0.00  0.00    -0.205 NA
ENDBRANCH  24  26
ENDBRANCH  22  24
ENDBRANCH  21  22
ENDBRANCH  20  21
ENDBRANCH  10  20
ENDBRANCH   9  13
ENDBRANCH   7   9
ENDBRANCH   2   7
ENDBRANCH   1   4
BRANCH   1  27
ATOM     27  C   UNL     1       1.940   6.154  -6.693  0.00  0.00    +0.176 C 
ATOM     28  O   UNL     1       1.752   6.566  -8.025  0.00  0.00    -0.219 OA
BRANCH  27  29
ATOM     29  C   UNL     1       0.704   5.541  -6.234  0.00  0.00    +0.037 A 
ATOM     30  C   UNL     1       0.595   5.191  -4.893  0.00  0.00    +0.139 A 
ATOM     31  F   UNL     1       1.583   4.345  -4.481  0.00  0.00    -0.204 F 
ATOM     32  C   UNL     1      -0.614   5.308  -4.214  0.00  0.00    +0.032 A 
ATOM     33  C   UNL     1      -1.666   6.015  -4.786  0.00  0.00    +0.032 A 
ATOM     34  C   UNL     1      -1.678   6.048  -6.175  0.00  0.00    +0.140 A 
ATOM     35  F   UNL     1      -2.833   5.885  -6.885  0.00  0.00    -0.204 F 
ATOM     36  C   UNL     1      -0.489   5.925  -6.840  0.00  0.00    +0.030 A 
ENDBRANCH  27  29
BRANCH  27  37
ATOM     37  C   UNL     1       2.906   4.867  -6.932  0.00  0.00    +0.080 C 
ATOM     38  C   UNL     1       1.868   4.160  -7.983  0.00  0.00    +0.010 C 
BRANCH  37  39
ATOM     39  C   UNL     1       3.757   5.537  -8.117  0.00  0.00    +0.091 A 
ATOM     40  S   UNL     1       5.426   5.516  -8.369  0.00  0.00    -0.070 S 
ATOM     41  C   UNL     1       5.402   5.627 -10.088  0.00  0.00    +0.056 A 
ATOM     42  C   UNL     1       4.037   5.513 -10.341  0.00  0.00    +0.088 A 
ATOM     43  N   UNL     1       3.397   4.971  -9.304  0.00  0.00    -0.243 NA
BRANCH  42  44
ATOM     44  C   UNL     1       3.331   5.778 -11.606  0.00  0.00    +0.018 A 
ATOM     45  C   UNL     1       3.875   5.438 -12.838  0.00  0.00    +0.002 A 
ATOM     46  C   UNL     1       3.102   5.580 -13.986  0.00  0.00    +0.010 A 
ATOM     47  C   UNL     1       1.790   6.013 -13.864  0.00  0.00    +0.068 A 
ATOM     48  C   UNL     1       1.146   6.007 -12.632  0.00  0.00    +0.010 A 
ATOM     49  C   UNL     1       1.942   5.713 -11.564  0.00  0.00    +0.002 A 
BRANCH  47  50
ATOM     50  C   UNL     1       1.005   6.408 -14.991  0.00  0.00    +0.100 C 
ATOM     51  N   UNL     1       0.383   6.593 -15.950  0.00  0.00    -0.191 NA
ENDBRANCH  47  50
ENDBRANCH  42  44
ENDBRANCH  37  39
ENDBRANCH  27  37
ENDBRANCH   1  27
TORSDOF 15
ENDMDL
