MODEL 1
REMARK VINA RESULT:      -8.2      0.000      0.000
REMARK  Name = 
REMARK  6 active torsions:
REMARK  status: ('A' for Active; 'I' for Inactive)
REMARK    1  A    between atoms: C_2  and  N_3
REMARK    2  A    between atoms: N_9  and  CA_10
REMARK    3  A    between atoms: CA_10  and  C_11
REMARK    4  A    between atoms: CA_10  and  C_27
REMARK    5  A    between atoms: N_13  and  CA_14
REMARK    6  A    between atoms: CA_23  and  C_24
REMARK                            x       y       z     vdW  Elec       q    Type
REMARK                         _______ _______ _______ _____ _____    ______ ____
ROOT
ATOM      1  CA  UNL     1       3.835   5.174  -1.878  0.00  0.00    +0.196 C 
ENDROOT
BRANCH   1   9
ATOM      2  N   UNL     1      -1.836   6.639  -3.917  0.00  0.00    -0.271 N 
ATOM      3  C   UNL     1      -1.964   6.678  -2.492  0.00  0.00    +0.303 C 
ATOM      4  O   UNL     1      -2.952   7.172  -1.914  0.00  0.00    -0.265 OA
ATOM      5  C   UNL     1      -1.074   5.800  -1.720  0.00  0.00    +0.310 C 
ATOM      6  O   UNL     1      -1.168   5.710  -0.472  0.00  0.00    -0.264 OA
ATOM      7  N   UNL     1       0.051   5.176  -2.327  0.00  0.00    -0.204 N 
ATOM      8  C   UNL     1       1.309   5.028  -1.648  0.00  0.00    +0.330 C 
ATOM      9  N   UNL     1       2.392   5.608  -2.349  0.00  0.00    -0.176 NA
ATOM     10  O   UNL     1       1.396   5.125  -0.394  0.00  0.00    -0.250 OA
ATOM     11  C   UNL     1       0.037   5.095  -3.778  0.00  0.00    +0.124 C 
ATOM     12  C   UNL     1      -0.493   6.366  -4.412  0.00  0.00    +0.116 C 
BRANCH   2  14
ATOM     13  C   UNL     1      -2.946   6.630  -6.017  0.00  0.00    +0.023 C 
ATOM     14  C   UNL     1      -2.910   7.141  -4.744  0.00  0.00    +0.094 C 
ENDBRANCH   2  14
ENDBRANCH   1   9
BRANCH   1  15
ATOM     15  C   UNL     1       4.124   6.589  -1.160  0.00  0.00    +0.006 A 
ATOM     16  C   UNL     1       3.491   7.671  -1.697  0.00  0.00    -0.002 A 
ATOM     17  C   UNL     1       3.666   8.894  -1.060  0.00  0.00    -0.000 A 
ATOM     18  C   UNL     1       4.228   8.946   0.198  0.00  0.00    -0.000 A 
ATOM     19  C   UNL     1       4.596   7.783   0.828  0.00  0.00    -0.000 A 
ATOM     20  C   UNL     1       4.720   6.672   0.028  0.00  0.00    -0.002 A 
ENDBRANCH   1  15
BRANCH   1  21
ATOM     21  C   UNL     1       4.532   5.595  -3.272  0.00  0.00    +0.266 C 
ATOM     22  N   UNL     1       3.844   5.173  -4.463  0.00  0.00    -0.193 NA
ATOM     23  O   UNL     1       5.496   6.354  -3.231  0.00  0.00    -0.271 OA
BRANCH  22  24
ATOM     24  CA  UNL     1       4.764   5.633  -5.659  0.00  0.00    +0.200 C 
ATOM     25  C   UNL     1       4.037   4.788  -6.917  0.00  0.00    +0.153 C 
ATOM     26  S   UNL     1       2.170   5.033  -6.602  0.00  0.00    -0.118 S 
ATOM     27  C   UNL     1       2.108   5.129  -8.414  0.00  0.00    +0.068 C 
ATOM     28  CA  UNL     1       3.285   6.208  -8.800  0.00  0.00    +0.189 C 
ATOM     29  C   UNL     1       0.851   5.732  -8.941  0.00  0.00    +0.013 C 
ATOM     30  C   UNL     1       2.373   3.830  -9.033  0.00  0.00    +0.013 C 
ATOM     31  N   UNL     1       4.027   6.210  -7.426  0.00  0.00    -0.259 N 
ATOM     32  C   UNL     1       3.785   6.808  -6.141  0.00  0.00    +0.249 C 
ATOM     33  O   UNL     1       3.439   7.843  -5.573  0.00  0.00    -0.273 OA
BRANCH  28  34
ATOM     34  C   UNL     1       4.285   5.161  -9.519  0.00  0.00    +0.383 C 
ATOM     35  OXT UNL     1       4.017   5.316 -10.892  0.00  0.00    -0.244 OA
ATOM     36  O   UNL     1       5.479   5.139  -9.276  0.00  0.00    -0.244 OA
ENDBRANCH  28  34
ENDBRANCH  22  24
ENDBRANCH   1  21
TORSDOF 6
ENDMDL
MODEL 2
REMARK VINA RESULT:      -8.2      2.899      7.913
REMARK  Name = 
REMARK  6 active torsions:
REMARK  status: ('A' for Active; 'I' for Inactive)
REMARK    1  A    between atoms: C_2  and  N_3
REMARK    2  A    between atoms: N_9  and  CA_10
REMARK    3  A    between atoms: CA_10  and  C_11
REMARK    4  A    between atoms: CA_10  and  C_27
REMARK    5  A    between atoms: N_13  and  CA_14
REMARK    6  A    between atoms: CA_23  and  C_24
REMARK                            x       y       z     vdW  Elec       q    Type
REMARK                         _______ _______ _______ _____ _____    ______ ____
ROOT
ATOM      1  CA  UNL     1       1.655   5.303  -3.787  0.00  0.00    +0.196 C 
ENDROOT
BRANCH   1   9
ATOM      2  N   UNL     1       3.580   6.481  -9.565  0.00  0.00    -0.271 N 
ATOM      3  C   UNL     1       2.804   5.286  -9.699  0.00  0.00    +0.303 C 
ATOM      4  O   UNL     1       2.440   4.836 -10.803  0.00  0.00    -0.265 OA
ATOM      5  C   UNL     1       2.745   4.396  -8.532  0.00  0.00    +0.310 C 
ATOM      6  O   UNL     1       2.154   3.291  -8.583  0.00  0.00    -0.264 OA
ATOM      7  N   UNL     1       3.177   4.835  -7.249  0.00  0.00    -0.204 N 
ATOM      8  C   UNL     1       2.490   4.475  -6.040  0.00  0.00    +0.330 C 
ATOM      9  N   UNL     1       2.072   5.595  -5.282  0.00  0.00    -0.176 NA
ATOM     10  O   UNL     1       1.691   3.500  -6.001  0.00  0.00    -0.250 OA
ATOM     11  C   UNL     1       4.048   5.999  -7.227  0.00  0.00    +0.124 C 
ATOM     12  C   UNL     1       3.610   7.054  -8.224  0.00  0.00    +0.116 C 
BRANCH   2  14
ATOM     13  C   UNL     1       5.376   7.344 -10.857  0.00  0.00    +0.023 C 
ATOM     14  C   UNL     1       4.018   7.185 -10.748  0.00  0.00    +0.094 C 
ENDBRANCH   2  14
ENDBRANCH   1   9
BRANCH   1  15
ATOM     15  C   UNL     1       0.404   6.320  -3.843  0.00  0.00    +0.006 A 
ATOM     16  C   UNL     1       0.119   6.848  -5.068  0.00  0.00    -0.002 A 
ATOM     17  C   UNL     1      -0.993   7.675  -5.163  0.00  0.00    -0.000 A 
ATOM     18  C   UNL     1      -1.905   7.732  -4.130  0.00  0.00    -0.000 A 
ATOM     19  C   UNL     1      -1.720   6.953  -3.015  0.00  0.00    -0.000 A 
ATOM     20  C   UNL     1      -0.457   6.439  -2.836  0.00  0.00    -0.002 A 
ENDBRANCH   1  15
BRANCH   1  21
ATOM     21  C   UNL     1       2.678   6.393  -3.179  0.00  0.00    +0.266 C 
ATOM     22  N   UNL     1       2.944   6.278  -1.770  0.00  0.00    -0.193 NA
ATOM     23  O   UNL     1       3.265   7.137  -3.961  0.00  0.00    -0.271 OA
BRANCH  22  24
ATOM     24  CA  UNL     1       3.891   7.492  -1.425  0.00  0.00    +0.200 C 
ATOM     25  C   UNL     1       2.783   8.512  -0.680  0.00  0.00    +0.153 C 
ATOM     26  S   UNL     1       1.782   7.341   0.447  0.00  0.00    -0.118 S 
ATOM     27  C   UNL     1       1.826   8.760   1.580  0.00  0.00    +0.068 C 
ATOM     28  CA  UNL     1       3.409   9.195   1.616  0.00  0.00    +0.189 C 
ATOM     29  C   UNL     1       1.494   8.413   2.990  0.00  0.00    +0.013 C 
ATOM     30  C   UNL     1       0.996   9.863   1.094  0.00  0.00    +0.013 C 
ATOM     31  N   UNL     1       3.876   8.398   0.357  0.00  0.00    -0.259 N 
ATOM     32  C   UNL     1       4.176   7.020   0.081  0.00  0.00    +0.249 C 
ATOM     33  O   UNL     1       4.751   6.020   0.509  0.00  0.00    -0.273 OA
BRANCH  28  34
ATOM     34  C   UNL     1       3.243  10.611   0.855  0.00  0.00    +0.383 C 
ATOM     35  OXT UNL     1       3.285  11.566   1.889  0.00  0.00    -0.244 OA
ATOM     36  O   UNL     1       3.942  10.920  -0.094  0.00  0.00    -0.244 OA
ENDBRANCH  28  34
ENDBRANCH  22  24
ENDBRANCH   1  21
TORSDOF 6
ENDMDL
MODEL 3
REMARK VINA RESULT:      -7.4      2.314      6.609
REMARK  Name = 
REMARK  6 active torsions:
REMARK  status: ('A' for Active; 'I' for Inactive)
REMARK    1  A    between atoms: C_2  and  N_3
REMARK    2  A    between atoms: N_9  and  CA_10
REMARK    3  A    between atoms: CA_10  and  C_11
REMARK    4  A    between atoms: CA_10  and  C_27
REMARK    5  A    between atoms: N_13  and  CA_14
REMARK    6  A    between atoms: CA_23  and  C_24
REMARK                            x       y       z     vdW  Elec       q    Type
REMARK                         _______ _______ _______ _____ _____    ______ ____
ROOT
ATOM      1  CA  UNL     1       4.059   4.719  -5.989  0.00  0.00    +0.196 C 
ENDROOT
BRANCH   1   9
ATOM      2  N   UNL     1       3.798   8.293  -0.926  0.00  0.00    -0.271 N 
ATOM      3  C   UNL     1       4.507   7.129  -0.488  0.00  0.00    +0.303 C 
ATOM      4  O   UNL     1       5.119   7.078   0.597  0.00  0.00    -0.265 OA
ATOM      5  C   UNL     1       4.201   5.866  -1.174  0.00  0.00    +0.310 C 
ATOM      6  O   UNL     1       4.715   4.783  -0.806  0.00  0.00    -0.264 OA
ATOM      7  N   UNL     1       3.475   5.851  -2.397  0.00  0.00    -0.204 N 
ATOM      8  C   UNL     1       3.796   4.954  -3.472  0.00  0.00    +0.330 C 
ATOM      9  N   UNL     1       4.069   5.618  -4.691  0.00  0.00    -0.176 NA
ATOM     10  O   UNL     1       4.494   3.920  -3.282  0.00  0.00    -0.250 OA
ATOM     11  C   UNL     1       2.704   7.045  -2.703  0.00  0.00    +0.124 C 
ATOM     12  C   UNL     1       3.453   8.312  -2.343  0.00  0.00    +0.116 C 
BRANCH   2  14
ATOM     13  C   UNL     1       3.486  10.638  -0.717  0.00  0.00    +0.023 C 
ATOM     14  C   UNL     1       3.732   9.454  -0.069  0.00  0.00    +0.094 C 
ENDBRANCH   2  14
ENDBRANCH   1   9
BRANCH   1  15
ATOM     15  C   UNL     1       3.684   5.957  -6.953  0.00  0.00    +0.006 A 
ATOM     16  C   UNL     1       3.806   5.728  -8.292  0.00  0.00    -0.002 A 
ATOM     17  C   UNL     1       3.426   6.753  -9.150  0.00  0.00    -0.000 A 
ATOM     18  C   UNL     1       2.713   7.831  -8.671  0.00  0.00    -0.000 A 
ATOM     19  C   UNL     1       2.362   7.880  -7.345  0.00  0.00    -0.000 A 
ATOM     20  C   UNL     1       3.050   7.037  -6.503  0.00  0.00    -0.002 A 
ENDBRANCH   1  15
BRANCH   1  21
ATOM     21  C   UNL     1       2.528   4.252  -5.780  0.00  0.00    +0.266 C 
ATOM     22  N   UNL     1       1.626   5.269  -5.310  0.00  0.00    -0.193 NA
ATOM     23  O   UNL     1       2.207   3.131  -6.168  0.00  0.00    -0.271 OA
BRANCH  22  24
ATOM     24  CA  UNL     1       0.241   4.539  -5.116  0.00  0.00    +0.200 C 
ATOM     25  C   UNL     1      -0.446   5.539  -3.953  0.00  0.00    +0.153 C 
ATOM     26  S   UNL     1      -0.028   7.297  -4.570  0.00  0.00    -0.118 S 
ATOM     27  C   UNL     1      -1.691   7.668  -3.942  0.00  0.00    +0.068 C 
ATOM     28  CA  UNL     1      -2.637   6.495  -4.596  0.00  0.00    +0.189 C 
ATOM     29  C   UNL     1      -2.258   8.945  -4.459  0.00  0.00    +0.013 C 
ATOM     30  C   UNL     1      -1.740   7.618  -2.481  0.00  0.00    +0.013 C 
ATOM     31  N   UNL     1      -1.496   5.526  -5.039  0.00  0.00    -0.259 N 
ATOM     32  C   UNL     1      -0.558   5.491  -6.129  0.00  0.00    +0.249 C 
ATOM     33  O   UNL     1      -0.435   5.649  -7.342  0.00  0.00    -0.273 OA
BRANCH  28  34
ATOM     34  C   UNL     1      -2.975   5.721  -3.217  0.00  0.00    +0.383 C 
ATOM     35  OXT UNL     1      -4.181   6.302  -2.783  0.00  0.00    -0.244 OA
ATOM     36  O   UNL     1      -2.991   4.505  -3.147  0.00  0.00    -0.244 OA
ENDBRANCH  28  34
ENDBRANCH  22  24
ENDBRANCH   1  21
TORSDOF 6
ENDMDL
MODEL 4
REMARK VINA RESULT:      -7.4      2.587      7.992
REMARK  Name = 
REMARK  6 active torsions:
REMARK  status: ('A' for Active; 'I' for Inactive)
REMARK    1  A    between atoms: C_2  and  N_3
REMARK    2  A    between atoms: N_9  and  CA_10
REMARK    3  A    between atoms: CA_10  and  C_11
REMARK    4  A    between atoms: CA_10  and  C_27
REMARK    5  A    between atoms: N_13  and  CA_14
REMARK    6  A    between atoms: CA_23  and  C_24
REMARK                            x       y       z     vdW  Elec       q    Type
REMARK                         _______ _______ _______ _____ _____    ______ ____
ROOT
ATOM      1  CA  UNL     1       1.482   4.921  -4.728  0.00  0.00    +0.196 C 
ENDROOT
BRANCH   1   9
ATOM      2  N   UNL     1       2.935   6.164 -10.628  0.00  0.00    -0.271 N 
ATOM      3  C   UNL     1       4.068   5.437 -10.142  0.00  0.00    +0.303 C 
ATOM      4  O   UNL     1       4.953   4.981 -10.893  0.00  0.00    -0.265 OA
ATOM      5  C   UNL     1       4.363   5.546  -8.707  0.00  0.00    +0.310 C 
ATOM      6  O   UNL     1       5.379   5.007  -8.207  0.00  0.00    -0.264 OA
ATOM      7  N   UNL     1       3.411   6.089  -7.799  0.00  0.00    -0.204 N 
ATOM      8  C   UNL     1       3.208   5.553  -6.483  0.00  0.00    +0.330 C 
ATOM      9  N   UNL     1       1.870   5.162  -6.239  0.00  0.00    -0.176 NA
ATOM     10  O   UNL     1       4.068   4.811  -5.933  0.00  0.00    -0.250 OA
ATOM     11  C   UNL     1       2.354   6.899  -8.384  0.00  0.00    +0.124 C 
ATOM     12  C   UNL     1       1.837   6.307  -9.680  0.00  0.00    +0.116 C 
BRANCH   2  14
ATOM     13  C   UNL     1       1.556   6.266 -12.559  0.00  0.00    +0.023 C 
ATOM     14  C   UNL     1       2.816   6.438 -12.042  0.00  0.00    +0.094 C 
ENDBRANCH   2  14
ENDBRANCH   1   9
BRANCH   1  15
ATOM     15  C   UNL     1      -0.057   5.342  -4.962  0.00  0.00    +0.006 A 
ATOM     16  C   UNL     1      -0.528   5.195  -6.234  0.00  0.00    -0.002 A 
ATOM     17  C   UNL     1      -1.869   5.486  -6.454  0.00  0.00    -0.000 A 
ATOM     18  C   UNL     1      -2.728   5.649  -5.388  0.00  0.00    -0.000 A 
ATOM     19  C   UNL     1      -2.257   5.504  -4.106  0.00  0.00    -0.000 A 
ATOM     20  C   UNL     1      -0.892   5.565  -3.950  0.00  0.00    -0.002 A 
ENDBRANCH   1  15
BRANCH   1  21
ATOM     21  C   UNL     1       1.948   6.396  -4.264  0.00  0.00    +0.266 C 
ATOM     22  N   UNL     1       2.797   6.443  -3.103  0.00  0.00    -0.193 NA
ATOM     23  O   UNL     1       1.680   7.345  -4.996  0.00  0.00    -0.271 OA
BRANCH  22  24
ATOM     24  CA  UNL     1       3.032   7.977  -2.822  0.00  0.00    +0.200 C 
ATOM     25  C   UNL     1       2.689   8.020  -1.177  0.00  0.00    +0.153 C 
ATOM     26  S   UNL     1       3.571   6.470  -0.496  0.00  0.00    -0.118 S 
ATOM     27  C   UNL     1       3.918   7.563   0.912  0.00  0.00    +0.068 C 
ATOM     28  CA  UNL     1       4.519   8.926   0.222  0.00  0.00    +0.189 C 
ATOM     29  C   UNL     1       5.009   7.071   1.799  0.00  0.00    +0.013 C 
ATOM     30  C   UNL     1       2.705   7.860   1.675  0.00  0.00    +0.013 C 
ATOM     31  N   UNL     1       4.066   8.639  -1.244  0.00  0.00    -0.259 N 
ATOM     32  C   UNL     1       4.539   7.793  -2.307  0.00  0.00    +0.249 C 
ATOM     33  O   UNL     1       5.545   7.409  -2.901  0.00  0.00    -0.273 OA
BRANCH  28  34
ATOM     34  C   UNL     1       3.278   9.896   0.584  0.00  0.00    +0.383 C 
ATOM     35  OXT UNL     1       3.638  10.470   1.819  0.00  0.00    -0.244 OA
ATOM     36  O   UNL     1       2.850  10.719  -0.206  0.00  0.00    -0.244 OA
ENDBRANCH  28  34
ENDBRANCH  22  24
ENDBRANCH   1  21
TORSDOF 6
ENDMDL
MODEL 5
REMARK VINA RESULT:      -7.3      2.938      7.976
REMARK  Name = 
REMARK  6 active torsions:
REMARK  status: ('A' for Active; 'I' for Inactive)
REMARK    1  A    between atoms: C_2  and  N_3
REMARK    2  A    between atoms: N_9  and  CA_10
REMARK    3  A    between atoms: CA_10  and  C_11
REMARK    4  A    between atoms: CA_10  and  C_27
REMARK    5  A    between atoms: N_13  and  CA_14
REMARK    6  A    between atoms: CA_23  and  C_24
REMARK                            x       y       z     vdW  Elec       q    Type
REMARK                         _______ _______ _______ _____ _____    ______ ____
ROOT
ATOM      1  CA  UNL     1       1.127   4.923  -4.567  0.00  0.00    +0.196 C 
ENDROOT
BRANCH   1   9
ATOM      2  N   UNL     1       3.383   6.258 -10.188  0.00  0.00    -0.271 N 
ATOM      3  C   UNL     1       1.981   6.082 -10.415  0.00  0.00    +0.303 C 
ATOM      4  O   UNL     1       1.420   6.416 -11.477  0.00  0.00    -0.265 OA
ATOM      5  C   UNL     1       1.271   5.168  -9.511  0.00  0.00    +0.310 C 
ATOM      6  O   UNL     1       0.059   4.892  -9.682  0.00  0.00    -0.264 OA
ATOM      7  N   UNL     1       1.868   4.719  -8.300  0.00  0.00    -0.204 N 
ATOM      8  C   UNL     1       1.119   4.565  -7.083  0.00  0.00    +0.330 C 
ATOM      9  N   UNL     1       1.645   5.317  -6.006  0.00  0.00    -0.176 NA
ATOM     10  O   UNL     1      -0.140   4.487  -7.089  0.00  0.00    -0.250 OA
ATOM     11  C   UNL     1       3.313   4.848  -8.208  0.00  0.00    +0.124 C 
ATOM     12  C   UNL     1       3.805   6.156  -8.796  0.00  0.00    +0.116 C 
BRANCH   2  14
ATOM     13  C   UNL     1       5.357   7.425 -10.810  0.00  0.00    +0.023 C 
ATOM     14  C   UNL     1       4.215   6.797 -11.240  0.00  0.00    +0.094 C 
ENDBRANCH   2  14
ENDBRANCH   1   9
BRANCH   1  15
ATOM     15  C   UNL     1      -0.116   5.949  -4.637  0.00  0.00    +0.006 A 
ATOM     16  C   UNL     1      -1.212   5.609  -3.899  0.00  0.00    -0.002 A 
ATOM     17  C   UNL     1      -2.274   6.505  -3.885  0.00  0.00    -0.000 A 
ATOM     18  C   UNL     1      -2.108   7.785  -4.369  0.00  0.00    -0.000 A 
ATOM     19  C   UNL     1      -0.883   8.177  -4.850  0.00  0.00    -0.000 A 
ATOM     20  C   UNL     1       0.001   7.169  -5.155  0.00  0.00    -0.002 A 
ENDBRANCH   1  15
BRANCH   1  21
ATOM     21  C   UNL     1       2.107   5.961  -3.814  0.00  0.00    +0.266 C 
ATOM     22  N   UNL     1       1.993   5.995  -2.381  0.00  0.00    -0.193 NA
ATOM     23  O   UNL     1       2.969   6.530  -4.480  0.00  0.00    -0.271 OA
BRANCH  22  24
ATOM     24  CA  UNL     1       2.983   7.131  -1.912  0.00  0.00    +0.200 C 
ATOM     25  C   UNL     1       1.932   8.058  -0.985  0.00  0.00    +0.153 C 
ATOM     26  S   UNL     1       0.949   6.761   0.011  0.00  0.00    -0.118 S 
ATOM     27  C   UNL     1       1.074   8.007   1.326  0.00  0.00    +0.068 C 
ATOM     28  CA  UNL     1       2.668   8.402   1.353  0.00  0.00    +0.189 C 
ATOM     29  C   UNL     1       0.791   7.473   2.688  0.00  0.00    +0.013 C 
ATOM     30  C   UNL     1       0.253   9.183   1.035  0.00  0.00    +0.013 C 
ATOM     31  N   UNL     1       3.063   7.780  -0.023  0.00  0.00    -0.259 N 
ATOM     32  C   UNL     1       3.317   6.447  -0.501  0.00  0.00    +0.249 C 
ATOM     33  O   UNL     1       3.883   5.387  -0.241  0.00  0.00    -0.273 OA
BRANCH  28  34
ATOM     34  C   UNL     1       2.507   9.914   0.804  0.00  0.00    +0.383 C 
ATOM     35  OXT UNL     1       2.560  10.709   1.964  0.00  0.00    -0.244 OA
ATOM     36  O   UNL     1       3.204  10.351  -0.095  0.00  0.00    -0.244 OA
ENDBRANCH  28  34
ENDBRANCH  22  24
ENDBRANCH   1  21
TORSDOF 6
ENDMDL
MODEL 6
REMARK VINA RESULT:      -6.9      2.967      4.507
REMARK  Name = 
REMARK  6 active torsions:
REMARK  status: ('A' for Active; 'I' for Inactive)
REMARK    1  A    between atoms: C_2  and  N_3
REMARK    2  A    between atoms: N_9  and  CA_10
REMARK    3  A    between atoms: CA_10  and  C_11
REMARK    4  A    between atoms: CA_10  and  C_27
REMARK    5  A    between atoms: N_13  and  CA_14
REMARK    6  A    between atoms: CA_23  and  C_24
REMARK                            x       y       z     vdW  Elec       q    Type
REMARK                         _______ _______ _______ _____ _____    ______ ____
ROOT
ATOM      1  CA  UNL     1       0.852   4.940  -1.571  0.00  0.00    +0.196 C 
ENDROOT
BRANCH   1   9
ATOM      2  N   UNL     1      -0.484   9.395   2.531  0.00  0.00    -0.271 N 
ATOM      3  C   UNL     1      -1.670   8.597   2.494  0.00  0.00    +0.303 C 
ATOM      4  O   UNL     1      -2.586   8.704   3.334  0.00  0.00    -0.265 OA
ATOM      5  C   UNL     1      -1.960   7.892   1.238  0.00  0.00    +0.310 C 
ATOM      6  O   UNL     1      -3.016   7.233   1.088  0.00  0.00    -0.264 OA
ATOM      7  N   UNL     1      -0.972   7.764   0.222  0.00  0.00    -0.204 N 
ATOM      8  C   UNL     1      -0.815   6.564  -0.552  0.00  0.00    +0.330 C 
ATOM      9  N   UNL     1       0.489   6.019  -0.477  0.00  0.00    -0.176 NA
ATOM     10  O   UNL     1      -1.731   5.700  -0.621  0.00  0.00    -0.250 OA
ATOM     11  C   UNL     1       0.146   8.692   0.290  0.00  0.00    +0.124 C 
ATOM     12  C   UNL     1       0.620   8.905   1.714  0.00  0.00    +0.116 C 
BRANCH   2  14
ATOM     13  C   UNL     1       0.923  10.941   3.660  0.00  0.00    +0.023 C 
ATOM     14  C   UNL     1      -0.339  10.413   3.547  0.00  0.00    +0.094 C 
ENDBRANCH   2  14
ENDBRANCH   1   9
BRANCH   1  15
ATOM     15  C   UNL     1       2.438   5.199  -1.429  0.00  0.00    +0.006 A 
ATOM     16  C   UNL     1       3.198   4.854  -2.508  0.00  0.00    -0.002 A 
ATOM     17  C   UNL     1       4.559   5.127  -2.443  0.00  0.00    -0.000 A 
ATOM     18  C   UNL     1       5.055   5.948  -1.452  0.00  0.00    -0.000 A 
ATOM     19  C   UNL     1       4.196   6.510  -0.541  0.00  0.00    -0.000 A 
ATOM     20  C   UNL     1       2.949   5.938  -0.447  0.00  0.00    -0.002 A 
ENDBRANCH   1  15
BRANCH   1  21
ATOM     21  C   UNL     1       0.665   5.969  -2.800  0.00  0.00    +0.266 C 
ATOM     22  N   UNL     1       0.006   5.436  -3.963  0.00  0.00    -0.193 NA
ATOM     23  O   UNL     1       0.952   7.149  -2.616  0.00  0.00    -0.271 OA
BRANCH  22  24
ATOM     24  CA  UNL     1       0.027   6.603  -5.024  0.00  0.00    +0.200 C 
ATOM     25  C   UNL     1       1.539   6.338  -5.707  0.00  0.00    +0.153 C 
ATOM     26  S   UNL     1       1.607   4.443  -5.924  0.00  0.00    -0.118 S 
ATOM     27  C   UNL     1       2.472   4.876  -7.461  0.00  0.00    +0.068 C 
ATOM     28  CA  UNL     1       1.506   6.005  -8.160  0.00  0.00    +0.189 C 
ATOM     29  C   UNL     1       2.535   3.763  -8.449  0.00  0.00    +0.013 C 
ATOM     30  C   UNL     1       3.802   5.425  -7.194  0.00  0.00    +0.013 C 
ATOM     31  N   UNL     1       0.627   6.333  -6.912  0.00  0.00    -0.259 N 
ATOM     32  C   UNL     1      -0.470   5.689  -6.244  0.00  0.00    +0.249 C 
ATOM     33  O   UNL     1      -1.537   5.102  -6.419  0.00  0.00    -0.273 OA
BRANCH  28  34
ATOM     34  C   UNL     1       2.508   7.261  -7.984  0.00  0.00    +0.383 C 
ATOM     35  OXT UNL     1       3.301   7.235  -9.147  0.00  0.00    -0.244 OA
ATOM     36  O   UNL     1       2.102   8.378  -7.720  0.00  0.00    -0.244 OA
ENDBRANCH  28  34
ENDBRANCH  22  24
ENDBRANCH   1  21
TORSDOF 6
ENDMDL
MODEL 7
REMARK VINA RESULT:      -6.7      5.608      8.847
REMARK  Name = 
REMARK  6 active torsions:
REMARK  status: ('A' for Active; 'I' for Inactive)
REMARK    1  A    between atoms: C_2  and  N_3
REMARK    2  A    between atoms: N_9  and  CA_10
REMARK    3  A    between atoms: CA_10  and  C_11
REMARK    4  A    between atoms: CA_10  and  C_27
REMARK    5  A    between atoms: N_13  and  CA_14
REMARK    6  A    between atoms: CA_23  and  C_24
REMARK                            x       y       z     vdW  Elec       q    Type
REMARK                         _______ _______ _______ _____ _____    ______ ____
ROOT
ATOM      1  CA  UNL     1       2.266   5.065 -11.654  0.00  0.00    +0.196 C 
ENDROOT
BRANCH   1   9
ATOM      2  N   UNL     1       0.507   6.454  -5.871  0.00  0.00    -0.271 N 
ATOM      3  C   UNL     1       1.525   5.465  -5.691  0.00  0.00    +0.303 C 
ATOM      4  O   UNL     1       2.046   5.222  -4.584  0.00  0.00    -0.265 OA
ATOM      5  C   UNL     1       1.697   4.482  -6.770  0.00  0.00    +0.310 C 
ATOM      6  O   UNL     1       2.510   3.534  -6.665  0.00  0.00    -0.264 OA
ATOM      7  N   UNL     1       1.101   4.680  -8.046  0.00  0.00    -0.204 N 
ATOM      8  C   UNL     1       1.770   4.337  -9.270  0.00  0.00    +0.330 C 
ATOM      9  N   UNL     1       1.894   5.428 -10.163  0.00  0.00    -0.176 NA
ATOM     10  O   UNL     1       2.753   3.547  -9.285  0.00  0.00    -0.250 OA
ATOM     11  C   UNL     1       0.004   5.633  -8.104  0.00  0.00    +0.124 C 
ATOM     12  C   UNL     1       0.271   6.858  -7.252  0.00  0.00    +0.116 C 
BRANCH   2  14
ATOM     13  C   UNL     1      -1.269   7.667  -4.863  0.00  0.00    +0.023 C 
ATOM     14  C   UNL     1       0.007   7.181  -4.726  0.00  0.00    +0.094 C 
ENDBRANCH   2  14
ENDBRANCH   1   9
BRANCH   1  15
ATOM     15  C   UNL     1       3.583   5.997 -11.646  0.00  0.00    +0.006 A 
ATOM     16  C   UNL     1       3.806   6.704 -10.502  0.00  0.00    -0.002 A 
ATOM     17  C   UNL     1       4.967   7.465 -10.438  0.00  0.00    -0.000 A 
ATOM     18  C   UNL     1       5.962   7.291 -11.376  0.00  0.00    -0.000 A 
ATOM     19  C   UNL     1       5.810   6.348 -12.363  0.00  0.00    -0.000 A 
ATOM     20  C   UNL     1       4.531   5.891 -12.575  0.00  0.00    -0.002 A 
ENDBRANCH   1  15
BRANCH   1  21
ATOM     21  C   UNL     1       1.309   6.202 -12.282  0.00  0.00    +0.266 C 
ATOM     22  N   UNL     1       1.447   6.420 -13.697  0.00  0.00    -0.193 NA
ATOM     23  O   UNL     1       0.441   6.691 -11.562  0.00  0.00    -0.271 OA
BRANCH  22  24
ATOM     24  CA  UNL     1       0.475   7.617 -14.030  0.00  0.00    +0.200 C 
ATOM     25  C   UNL     1       1.536   8.620 -14.863  0.00  0.00    +0.153 C 
ATOM     26  S   UNL     1       2.486   7.419 -16.003  0.00  0.00    -0.118 S 
ATOM     27  C   UNL     1       2.375   8.801 -17.175  0.00  0.00    +0.068 C 
ATOM     28  CA  UNL     1       0.789   9.227 -17.143  0.00  0.00    +0.189 C 
ATOM     29  C   UNL     1       2.636   8.413 -18.589  0.00  0.00    +0.013 C 
ATOM     30  C   UNL     1       3.220   9.924 -16.767  0.00  0.00    +0.013 C 
ATOM     31  N   UNL     1       0.393   8.467 -15.838  0.00  0.00    -0.259 N 
ATOM     32  C   UNL     1       0.117   7.096 -15.504  0.00  0.00    +0.249 C 
ATOM     33  O   UNL     1      -0.472   6.080 -15.870  0.00  0.00    -0.273 OA
BRANCH  28  34
ATOM     34  C   UNL     1       0.984  10.667 -16.436  0.00  0.00    +0.383 C 
ATOM     35  OXT UNL     1       0.899  11.587 -17.498  0.00  0.00    -0.244 OA
ATOM     36  O   UNL     1       0.323  11.006 -15.470  0.00  0.00    -0.244 OA
ENDBRANCH  28  34
ENDBRANCH  22  24
ENDBRANCH   1  21
TORSDOF 6
ENDMDL
MODEL 8
REMARK VINA RESULT:      -6.6      3.471      6.747
REMARK  Name = 
REMARK  6 active torsions:
REMARK  status: ('A' for Active; 'I' for Inactive)
REMARK    1  A    between atoms: C_2  and  N_3
REMARK    2  A    between atoms: N_9  and  CA_10
REMARK    3  A    between atoms: CA_10  and  C_11
REMARK    4  A    between atoms: CA_10  and  C_27
REMARK    5  A    between atoms: N_13  and  CA_14
REMARK    6  A    between atoms: CA_23  and  C_24
REMARK                            x       y       z     vdW  Elec       q    Type
REMARK                         _______ _______ _______ _____ _____    ______ ____
ROOT
ATOM      1  CA  UNL     1       3.948   6.525  -0.279  0.00  0.00    +0.196 C 
ENDROOT
BRANCH   1   9
ATOM      2  N   UNL     1       4.600  12.679   0.134  0.00  0.00    -0.271 N 
ATOM      3  C   UNL     1       5.461  12.174   1.159  0.00  0.00    +0.303 C 
ATOM      4  O   UNL     1       6.303  12.882   1.747  0.00  0.00    -0.265 OA
ATOM      5  C   UNL     1       5.091  10.888   1.766  0.00  0.00    +0.310 C 
ATOM      6  O   UNL     1       5.741  10.407   2.724  0.00  0.00    -0.264 OA
ATOM      7  N   UNL     1       4.112  10.047   1.167  0.00  0.00    -0.204 N 
ATOM      8  C   UNL     1       4.240   8.617   1.134  0.00  0.00    +0.330 C 
ATOM      9  N   UNL     1       4.191   8.082  -0.175  0.00  0.00    -0.176 NA
ATOM     10  O   UNL     1       5.028   8.008   1.910  0.00  0.00    -0.250 OA
ATOM     11  C   UNL     1       3.217  10.681   0.211  0.00  0.00    +0.124 C 
ATOM     12  C   UNL     1       3.946  11.664  -0.683  0.00  0.00    +0.116 C 
BRANCH   2  14
ATOM     13  C   UNL     1       4.662  14.337  -1.566  0.00  0.00    +0.023 C 
ATOM     14  C   UNL     1       4.654  14.080  -0.218  0.00  0.00    +0.094 C 
ENDBRANCH   2  14
ENDBRANCH   1   9
BRANCH   1  15
ATOM     15  C   UNL     1       4.330   6.479  -1.845  0.00  0.00    +0.006 A 
ATOM     16  C   UNL     1       4.808   7.641  -2.376  0.00  0.00    -0.002 A 
ATOM     17  C   UNL     1       5.209   7.616  -3.707  0.00  0.00    -0.000 A 
ATOM     18  C   UNL     1       5.366   6.413  -4.361  0.00  0.00    -0.000 A 
ATOM     19  C   UNL     1       5.143   5.238  -3.688  0.00  0.00    -0.000 A 
ATOM     20  C   UNL     1       4.429   5.335  -2.517  0.00  0.00    -0.002 A 
ENDBRANCH   1  15
BRANCH   1  21
ATOM     21  C   UNL     1       2.363   6.684  -0.539  0.00  0.00    +0.266 C 
ATOM     22  N   UNL     1       1.931   6.471  -1.894  0.00  0.00    -0.193 NA
ATOM     23  O   UNL     1       1.628   6.823   0.435  0.00  0.00    -0.271 OA
BRANCH  22  24
ATOM     24  CA  UNL     1       0.381   6.764  -1.887  0.00  0.00    +0.200 C 
ATOM     25  C   UNL     1       0.144   7.077  -3.521  0.00  0.00    +0.153 C 
ATOM     26  S   UNL     1       1.161   5.715  -4.391  0.00  0.00    -0.118 S 
ATOM     27  C   UNL     1      -0.230   5.738  -5.558  0.00  0.00    +0.068 C 
ATOM     28  CA  UNL     1      -1.560   5.641  -4.599  0.00  0.00    +0.189 C 
ATOM     29  C   UNL     1      -0.301   4.532  -6.431  0.00  0.00    +0.013 C 
ATOM     30  C   UNL     1      -0.250   6.968  -6.349  0.00  0.00    +0.013 C 
ATOM     31  N   UNL     1      -0.868   5.991  -3.244  0.00  0.00    -0.259 N 
ATOM     32  C   UNL     1      -0.041   5.276  -2.310  0.00  0.00    +0.249 C 
ATOM     33  O   UNL     1       0.096   4.207  -1.716  0.00  0.00    -0.273 OA
BRANCH  28  34
ATOM     34  C   UNL     1      -2.118   7.131  -4.882  0.00  0.00    +0.383 C 
ATOM     35  OXT UNL     1      -3.106   6.947  -5.868  0.00  0.00    -0.244 OA
ATOM     36  O   UNL     1      -2.487   7.863  -3.981  0.00  0.00    -0.244 OA
ENDBRANCH  28  34
ENDBRANCH  22  24
ENDBRANCH   1  21
TORSDOF 6
ENDMDL
MODEL 9
REMARK VINA RESULT:      -6.5      1.582      1.961
REMARK  Name = 
REMARK  6 active torsions:
REMARK  status: ('A' for Active; 'I' for Inactive)
REMARK    1  A    between atoms: C_2  and  N_3
REMARK    2  A    between atoms: N_9  and  CA_10
REMARK    3  A    between atoms: CA_10  and  C_11
REMARK    4  A    between atoms: CA_10  and  C_27
REMARK    5  A    between atoms: N_13  and  CA_14
REMARK    6  A    between atoms: CA_23  and  C_24
REMARK                            x       y       z     vdW  Elec       q    Type
REMARK                         _______ _______ _______ _____ _____    ______ ____
ROOT
ATOM      1  CA  UNL     1       3.326   4.791  -3.972  0.00  0.00    +0.196 C 
ENDROOT
BRANCH   1   9
ATOM      2  N   UNL     1      -2.306   7.316  -4.592  0.00  0.00    -0.271 N 
ATOM      3  C   UNL     1      -2.260   6.913  -3.220  0.00  0.00    +0.303 C 
ATOM      4  O   UNL     1      -3.101   7.283  -2.377  0.00  0.00    -0.265 OA
ATOM      5  C   UNL     1      -1.408   5.762  -2.892  0.00  0.00    +0.310 C 
ATOM      6  O   UNL     1      -1.367   5.290  -1.731  0.00  0.00    -0.264 OA
ATOM      7  N   UNL     1      -0.452   5.266  -3.822  0.00  0.00    -0.204 N 
ATOM      8  C   UNL     1       0.846   4.802  -3.418  0.00  0.00    +0.330 C 
ATOM      9  N   UNL     1       1.907   5.477  -4.067  0.00  0.00    -0.176 NA
ATOM     10  O   UNL     1       1.091   4.489  -2.221  0.00  0.00    -0.250 OA
ATOM     11  C   UNL     1      -0.645   5.650  -5.211  0.00  0.00    +0.124 C 
ATOM     12  C   UNL     1      -1.076   7.097  -5.345  0.00  0.00    +0.116 C 
BRANCH   2  14
ATOM     13  C   UNL     1      -3.794   7.904  -6.347  0.00  0.00    +0.023 C 
ATOM     14  C   UNL     1      -3.393   8.146  -5.057  0.00  0.00    +0.094 C 
ENDBRANCH   2  14
ENDBRANCH   1   9
BRANCH   1  15
ATOM     15  C   UNL     1       3.929   5.964  -3.043  0.00  0.00    +0.006 A 
ATOM     16  C   UNL     1       3.593   7.237  -3.396  0.00  0.00    -0.002 A 
ATOM     17  C   UNL     1       4.042   8.266  -2.576  0.00  0.00    -0.000 A 
ATOM     18  C   UNL     1       4.564   7.983  -1.332  0.00  0.00    -0.000 A 
ATOM     19  C   UNL     1       4.622   6.682  -0.898  0.00  0.00    -0.000 A 
ATOM     20  C   UNL     1       4.494   5.713  -1.864  0.00  0.00    -0.002 A 
ENDBRANCH   1  15
BRANCH   1  21
ATOM     21  C   UNL     1       3.849   5.442  -5.354  0.00  0.00    +0.266 C 
ATOM     22  N   UNL     1       2.833   5.719  -6.334  0.00  0.00    -0.193 NA
ATOM     23  O   UNL     1       5.025   5.789  -5.421  0.00  0.00    -0.271 OA
BRANCH  22  24
ATOM     24  CA  UNL     1       3.610   6.262  -7.595  0.00  0.00    +0.200 C 
ATOM     25  C   UNL     1       2.856   5.366  -8.800  0.00  0.00    +0.153 C 
ATOM     26  S   UNL     1       1.008   5.451  -8.332  0.00  0.00    -0.118 S 
ATOM     27  C   UNL     1       0.789   5.553 -10.132  0.00  0.00    +0.068 C 
ATOM     28  CA  UNL     1       1.836   6.729 -10.597  0.00  0.00    +0.189 C 
ATOM     29  C   UNL     1      -0.552   6.051 -10.547  0.00  0.00    +0.013 C 
ATOM     30  C   UNL     1       1.110   4.284 -10.786  0.00  0.00    +0.013 C 
ATOM     31  N   UNL     1       2.685   6.786  -9.288  0.00  0.00    -0.259 N 
ATOM     32  C   UNL     1       2.501   7.353  -7.980  0.00  0.00    +0.249 C 
ATOM     33  O   UNL     1       2.117   8.352  -7.373  0.00  0.00    -0.273 OA
BRANCH  28  34
ATOM     34  C   UNL     1       2.858   5.776 -11.409  0.00  0.00    +0.383 C 
ATOM     35  OXT UNL     1       2.487   5.941 -12.757  0.00  0.00    -0.244 OA
ATOM     36  O   UNL     1       4.064   5.835 -11.245  0.00  0.00    -0.244 OA
ENDBRANCH  28  34
ENDBRANCH  22  24
ENDBRANCH   1  21
TORSDOF 6
ENDMDL
