MODEL 1
REMARK VINA RESULT:      -7.6      0.000      0.000
REMARK  Name = 
REMARK  4 active torsions:
REMARK  status: ('A' for Active; 'I' for Inactive)
REMARK    1  A    between atoms: C_5  and  C_6
REMARK    2  A    between atoms: C_6  and  C_8
REMARK    3  A    between atoms: C_11  and  C_12
REMARK    4  A    between atoms: C_12  and  C_13
REMARK                            x       y       z     vdW  Elec       q    Type
REMARK                         _______ _______ _______ _____ _____    ______ ____
ROOT
ATOM      1  C   UNL     1       2.747   6.346  -9.139  0.00  0.00    +0.099 A 
ATOM      2  N   UNL     1       2.540   5.251  -8.366  0.00  0.00    -0.326 N 
ATOM      3  C   UNL     1       2.877   3.868  -8.641  0.00  0.00    +0.130 C 
ATOM      4  C   UNL     1       1.827   5.607  -7.273  0.00  0.00    +0.049 A 
ATOM      5  C   UNL     1       1.985   6.963  -7.119  0.00  0.00    +0.015 A 
ATOM      6  C   UNL     1       2.460   7.435  -8.332  0.00  0.00    +0.022 A 
ENDROOT
BRANCH   1   7
ATOM      7  C   UNL     1       3.651   6.288 -10.287  0.00  0.00    +0.211 C 
ATOM      8  O   UNL     1       3.310   5.576 -11.257  0.00  0.00    -0.285 OA
BRANCH   7  13
ATOM      9  C   UNL     1       8.619   5.789 -12.063  0.00  0.00    +0.031 C 
ATOM     10  C   UNL     1       7.692   6.388 -11.055  0.00  0.00    -0.022 A 
ATOM     11  C   UNL     1       6.951   7.526 -11.352  0.00  0.00    -0.004 A 
ATOM     12  C   UNL     1       5.625   7.643 -10.953  0.00  0.00    +0.003 A 
ATOM     13  C   UNL     1       5.054   6.686 -10.124  0.00  0.00    +0.040 A 
ATOM     14  C   UNL     1       5.972   5.901  -9.437  0.00  0.00    +0.003 A 
ATOM     15  C   UNL     1       7.227   5.642  -9.977  0.00  0.00    -0.004 A 
ENDBRANCH   7  13
ENDBRANCH   1   7
BRANCH   4  16
ATOM     16  C   UNL     1       1.163   4.736  -6.275  0.00  0.00    +0.158 C 
BRANCH  16  17
ATOM     17  C   UNL     1      -0.229   5.231  -6.131  0.00  0.00    +0.371 C 
ATOM     18  O   UNL     1      -1.072   5.145  -7.234  0.00  0.00    -0.245 OA
ATOM     19  O   UNL     1      -0.705   5.537  -5.021  0.00  0.00    -0.245 OA
ENDBRANCH  16  17
ENDBRANCH   4  16
TORSDOF 4
ENDMDL
MODEL 2
REMARK VINA RESULT:      -7.5      2.414      7.014
REMARK  Name = 
REMARK  4 active torsions:
REMARK  status: ('A' for Active; 'I' for Inactive)
REMARK    1  A    between atoms: C_5  and  C_6
REMARK    2  A    between atoms: C_6  and  C_8
REMARK    3  A    between atoms: C_11  and  C_12
REMARK    4  A    between atoms: C_12  and  C_13
REMARK                            x       y       z     vdW  Elec       q    Type
REMARK                         _______ _______ _______ _____ _____    ______ ____
ROOT
ATOM      1  C   UNL     1       5.349   5.332  -9.276  0.00  0.00    +0.099 A 
ATOM      2  N   UNL     1       5.412   6.071 -10.411  0.00  0.00    -0.326 N 
ATOM      3  C   UNL     1       4.329   6.534 -11.255  0.00  0.00    +0.130 C 
ATOM      4  C   UNL     1       6.709   6.246 -10.755  0.00  0.00    +0.049 A 
ATOM      5  C   UNL     1       7.455   6.031  -9.622  0.00  0.00    +0.015 A 
ATOM      6  C   UNL     1       6.625   5.359  -8.738  0.00  0.00    +0.022 A 
ENDROOT
BRANCH   1   7
ATOM      7  C   UNL     1       4.079   5.151  -8.574  0.00  0.00    +0.211 C 
ATOM      8  O   UNL     1       3.281   4.303  -9.030  0.00  0.00    -0.285 OA
BRANCH   7  13
ATOM      9  C   UNL     1       0.379   6.601  -5.067  0.00  0.00    +0.031 C 
ATOM     10  C   UNL     1       1.612   6.970  -5.829  0.00  0.00    -0.022 A 
ATOM     11  C   UNL     1       2.869   6.564  -5.397  0.00  0.00    -0.004 A 
ATOM     12  C   UNL     1       3.827   6.116  -6.297  0.00  0.00    +0.003 A 
ATOM     13  C   UNL     1       3.599   6.198  -7.665  0.00  0.00    +0.040 A 
ATOM     14  C   UNL     1       2.597   7.091  -8.027  0.00  0.00    +0.003 A 
ATOM     15  C   UNL     1       1.539   7.356  -7.163  0.00  0.00    -0.004 A 
ENDBRANCH   7  13
ENDBRANCH   1   7
BRANCH   4  16
ATOM     16  C   UNL     1       7.269   6.771 -12.023  0.00  0.00    +0.158 C 
BRANCH  16  17
ATOM     17  C   UNL     1       8.193   5.734 -12.547  0.00  0.00    +0.371 C 
ATOM     18  O   UNL     1       9.560   5.958 -12.435  0.00  0.00    -0.245 OA
ATOM     19  O   UNL     1       7.785   4.611 -12.901  0.00  0.00    -0.245 OA
ENDBRANCH  16  17
ENDBRANCH   4  16
TORSDOF 4
ENDMDL
MODEL 3
REMARK VINA RESULT:      -7.4      2.820      4.688
REMARK  Name = 
REMARK  4 active torsions:
REMARK  status: ('A' for Active; 'I' for Inactive)
REMARK    1  A    between atoms: C_5  and  C_6
REMARK    2  A    between atoms: C_6  and  C_8
REMARK    3  A    between atoms: C_11  and  C_12
REMARK    4  A    between atoms: C_12  and  C_13
REMARK                            x       y       z     vdW  Elec       q    Type
REMARK                         _______ _______ _______ _____ _____    ______ ____
ROOT
ATOM      1  C   UNL     1      -0.146   5.098  -5.950  0.00  0.00    +0.099 A 
ATOM      2  N   UNL     1      -0.255   5.907  -4.867  0.00  0.00    -0.326 N 
ATOM      3  C   UNL     1       0.752   6.245  -3.881  0.00  0.00    +0.130 C 
ATOM      4  C   UNL     1      -1.542   6.303  -4.737  0.00  0.00    +0.049 A 
ATOM      5  C   UNL     1      -2.136   6.139  -5.964  0.00  0.00    +0.015 A 
ATOM      6  C   UNL     1      -1.306   5.291  -6.682  0.00  0.00    +0.022 A 
ENDROOT
BRANCH   1   7
ATOM      7  C   UNL     1       1.168   4.677  -6.437  0.00  0.00    +0.211 C 
ATOM      8  O   UNL     1       1.563   3.535  -6.120  0.00  0.00    -0.285 OA
BRANCH   7  13
ATOM      9  C   UNL     1       4.060   6.518 -10.478  0.00  0.00    +0.031 C 
ATOM     10  C   UNL     1       3.684   6.637  -9.036  0.00  0.00    -0.022 A 
ATOM     11  C   UNL     1       2.518   7.290  -8.652  0.00  0.00    -0.004 A 
ATOM     12  C   UNL     1       1.712   6.783  -7.640  0.00  0.00    +0.003 A 
ATOM     13  C   UNL     1       2.128   5.688  -6.893  0.00  0.00    +0.040 A 
ATOM     14  C   UNL     1       3.494   5.438  -6.952  0.00  0.00    +0.003 A 
ATOM     15  C   UNL     1       4.229   5.785  -8.082  0.00  0.00    -0.004 A 
ENDBRANCH   7  13
ENDBRANCH   1   7
BRANCH   4  16
ATOM     16  C   UNL     1      -2.190   6.987  -3.593  0.00  0.00    +0.158 C 
BRANCH  16  17
ATOM     17  C   UNL     1      -3.154   6.022  -3.005  0.00  0.00    +0.371 C 
ATOM     18  O   UNL     1      -2.703   4.738  -2.719  0.00  0.00    -0.245 OA
ATOM     19  O   UNL     1      -4.274   6.382  -2.596  0.00  0.00    -0.245 OA
ENDBRANCH  16  17
ENDBRANCH   4  16
TORSDOF 4
ENDMDL
MODEL 4
REMARK VINA RESULT:      -7.4      2.008      7.290
REMARK  Name = 
REMARK  4 active torsions:
REMARK  status: ('A' for Active; 'I' for Inactive)
REMARK    1  A    between atoms: C_5  and  C_6
REMARK    2  A    between atoms: C_6  and  C_8
REMARK    3  A    between atoms: C_11  and  C_12
REMARK    4  A    between atoms: C_12  and  C_13
REMARK                            x       y       z     vdW  Elec       q    Type
REMARK                         _______ _______ _______ _____ _____    ______ ____
ROOT
ATOM      1  C   UNL     1       2.315   4.906  -7.593  0.00  0.00    +0.099 A 
ATOM      2  N   UNL     1       3.593   5.290  -7.349  0.00  0.00    -0.326 N 
ATOM      3  C   UNL     1       4.140   5.929  -6.169  0.00  0.00    +0.130 C 
ATOM      4  C   UNL     1       4.336   5.094  -8.462  0.00  0.00    +0.049 A 
ATOM      5  C   UNL     1       3.664   4.177  -9.234  0.00  0.00    +0.015 A 
ATOM      6  C   UNL     1       2.366   4.146  -8.750  0.00  0.00    +0.022 A 
ENDROOT
BRANCH   1   7
ATOM      7  C   UNL     1       1.339   4.831  -6.506  0.00  0.00    +0.211 C 
ATOM      8  O   UNL     1       1.265   3.758  -5.869  0.00  0.00    -0.285 OA
BRANCH   7  13
ATOM      9  C   UNL     1      -2.902   6.557  -3.840  0.00  0.00    +0.031 C 
ATOM     10  C   UNL     1      -2.037   6.679  -5.053  0.00  0.00    -0.022 A 
ATOM     11  C   UNL     1      -0.844   7.391  -5.012  0.00  0.00    -0.004 A 
ATOM     12  C   UNL     1       0.297   6.918  -5.649  0.00  0.00    +0.003 A 
ATOM     13  C   UNL     1       0.232   5.791  -6.460  0.00  0.00    +0.040 A 
ATOM     14  C   UNL     1      -1.049   5.466  -6.889  0.00  0.00    +0.003 A 
ATOM     15  C   UNL     1      -2.158   5.785  -6.111  0.00  0.00    -0.004 A 
ENDBRANCH   7  13
ENDBRANCH   1   7
BRANCH   4  16
ATOM     16  C   UNL     1       5.707   5.574  -8.759  0.00  0.00    +0.158 C 
BRANCH  16  17
ATOM     17  C   UNL     1       5.671   6.162 -10.121  0.00  0.00    +0.371 C 
ATOM     18  O   UNL     1       6.300   5.471 -11.150  0.00  0.00    -0.245 OA
ATOM     19  O   UNL     1       4.946   7.138 -10.395  0.00  0.00    -0.245 OA
ENDBRANCH  16  17
ENDBRANCH   4  16
TORSDOF 4
ENDMDL
MODEL 5
REMARK VINA RESULT:      -7.4      2.450      6.271
REMARK  Name = 
REMARK  4 active torsions:
REMARK  status: ('A' for Active; 'I' for Inactive)
REMARK    1  A    between atoms: C_5  and  C_6
REMARK    2  A    between atoms: C_6  and  C_8
REMARK    3  A    between atoms: C_11  and  C_12
REMARK    4  A    between atoms: C_12  and  C_13
REMARK                            x       y       z     vdW  Elec       q    Type
REMARK                         _______ _______ _______ _____ _____    ______ ____
ROOT
ATOM      1  C   UNL     1       4.572   4.787  -9.029  0.00  0.00    +0.099 A 
ATOM      2  N   UNL     1       4.507   5.520 -10.169  0.00  0.00    -0.326 N 
ATOM      3  C   UNL     1       3.350   5.833 -10.982  0.00  0.00    +0.130 C 
ATOM      4  C   UNL     1       5.760   5.858 -10.550  0.00  0.00    +0.049 A 
ATOM      5  C   UNL     1       6.559   5.749  -9.438  0.00  0.00    +0.015 A 
ATOM      6  C   UNL     1       5.848   4.982  -8.529  0.00  0.00    +0.022 A 
ENDROOT
BRANCH   1   7
ATOM      7  C   UNL     1       3.355   4.449  -8.290  0.00  0.00    +0.211 C 
ATOM      8  O   UNL     1       2.448   3.853  -8.911  0.00  0.00    -0.285 OA
BRANCH   7  13
ATOM      9  C   UNL     1       5.240   7.382  -4.300  0.00  0.00    +0.031 C 
ATOM     10  C   UNL     1       4.069   6.679  -4.907  0.00  0.00    -0.022 A 
ATOM     11  C   UNL     1       3.329   7.270  -5.924  0.00  0.00    -0.004 A 
ATOM     12  C   UNL     1       2.885   6.529  -7.013  0.00  0.00    +0.003 A 
ATOM     13  C   UNL     1       3.051   5.150  -7.038  0.00  0.00    +0.040 A 
ATOM     14  C   UNL     1       3.286   4.577  -5.793  0.00  0.00    +0.003 A 
ATOM     15  C   UNL     1       3.923   5.301  -4.790  0.00  0.00    -0.004 A 
ENDBRANCH   7  13
ENDBRANCH   1   7
BRANCH   4  16
ATOM     16  C   UNL     1       6.212   6.441 -11.836  0.00  0.00    +0.158 C 
BRANCH  16  17
ATOM     17  C   UNL     1       6.532   5.304 -12.735  0.00  0.00    +0.371 C 
ATOM     18  O   UNL     1       7.737   4.637 -12.545  0.00  0.00    -0.245 OA
ATOM     19  O   UNL     1       5.684   4.824 -13.512  0.00  0.00    -0.245 OA
ENDBRANCH  16  17
ENDBRANCH   4  16
TORSDOF 4
ENDMDL
MODEL 6
REMARK VINA RESULT:      -7.3      1.890      7.062
REMARK  Name = 
REMARK  4 active torsions:
REMARK  status: ('A' for Active; 'I' for Inactive)
REMARK    1  A    between atoms: C_5  and  C_6
REMARK    2  A    between atoms: C_6  and  C_8
REMARK    3  A    between atoms: C_11  and  C_12
REMARK    4  A    between atoms: C_12  and  C_13
REMARK                            x       y       z     vdW  Elec       q    Type
REMARK                         _______ _______ _______ _____ _____    ______ ____
ROOT
ATOM      1  C   UNL     1       1.677   5.947  -8.182  0.00  0.00    +0.099 A 
ATOM      2  N   UNL     1       2.701   5.119  -8.509  0.00  0.00    -0.326 N 
ATOM      3  C   UNL     1       2.723   3.671  -8.539  0.00  0.00    +0.130 C 
ATOM      4  C   UNL     1       3.818   5.854  -8.713  0.00  0.00    +0.049 A 
ATOM      5  C   UNL     1       3.408   7.139  -8.972  0.00  0.00    +0.015 A 
ATOM      6  C   UNL     1       2.095   7.219  -8.535  0.00  0.00    +0.022 A 
ENDROOT
BRANCH   1   7
ATOM      7  C   UNL     1       0.308   5.440  -8.094  0.00  0.00    +0.211 C 
ATOM      8  O   UNL     1      -0.346   5.353  -9.155  0.00  0.00    -0.285 OA
BRANCH   7  13
ATOM      9  C   UNL     1      -2.041   8.384  -4.366  0.00  0.00    +0.031 C 
ATOM     10  C   UNL     1      -1.602   7.027  -4.813  0.00  0.00    -0.022 A 
ATOM     11  C   UNL     1      -2.366   6.287  -5.708  0.00  0.00    -0.004 A 
ATOM     12  C   UNL     1      -1.769   5.564  -6.734  0.00  0.00    +0.003 A 
ATOM     13  C   UNL     1      -0.386   5.451  -6.802  0.00  0.00    +0.040 A 
ATOM     14  C   UNL     1       0.271   5.735  -5.610  0.00  0.00    +0.003 A 
ATOM     15  C   UNL     1      -0.274   6.630  -4.696  0.00  0.00    -0.004 A 
ENDBRANCH   7  13
ENDBRANCH   1   7
BRANCH   4  16
ATOM     16  C   UNL     1       5.219   5.392  -8.854  0.00  0.00    +0.158 C 
BRANCH  16  17
ATOM     17  C   UNL     1       5.661   5.770 -10.220  0.00  0.00    +0.371 C 
ATOM     18  O   UNL     1       6.796   6.564 -10.344  0.00  0.00    -0.245 OA
ATOM     19  O   UNL     1       5.165   5.250 -11.237  0.00  0.00    -0.245 OA
ENDBRANCH  16  17
ENDBRANCH   4  16
TORSDOF 4
ENDMDL
MODEL 7
REMARK VINA RESULT:      -7.3      4.758      5.936
REMARK  Name = 
REMARK  4 active torsions:
REMARK  status: ('A' for Active; 'I' for Inactive)
REMARK    1  A    between atoms: C_5  and  C_6
REMARK    2  A    between atoms: C_6  and  C_8
REMARK    3  A    between atoms: C_11  and  C_12
REMARK    4  A    between atoms: C_12  and  C_13
REMARK                            x       y       z     vdW  Elec       q    Type
REMARK                         _______ _______ _______ _____ _____    ______ ____
ROOT
ATOM      1  C   UNL     1       0.435   5.445  -5.249  0.00  0.00    +0.099 A 
ATOM      2  N   UNL     1       0.254   5.666  -3.922  0.00  0.00    -0.326 N 
ATOM      3  C   UNL     1       0.956   5.078  -2.800  0.00  0.00    +0.130 C 
ATOM      4  C   UNL     1      -0.816   6.476  -3.749  0.00  0.00    +0.049 A 
ATOM      5  C   UNL     1      -1.018   7.130  -4.940  0.00  0.00    +0.015 A 
ATOM      6  C   UNL     1      -0.317   6.411  -5.896  0.00  0.00    +0.022 A 
ENDROOT
BRANCH   1   7
ATOM      7  C   UNL     1       1.632   4.759  -5.733  0.00  0.00    +0.211 C 
ATOM      8  O   UNL     1       1.531   3.543  -6.006  0.00  0.00    -0.285 OA
BRANCH   7  13
ATOM      9  C   UNL     1       4.781   7.303  -2.314  0.00  0.00    +0.031 C 
ATOM     10  C   UNL     1       4.605   6.731  -3.684  0.00  0.00    -0.022 A 
ATOM     11  C   UNL     1       4.777   5.373  -3.920  0.00  0.00    -0.004 A 
ATOM     12  C   UNL     1       3.918   4.676  -4.761  0.00  0.00    +0.003 A 
ATOM     13  C   UNL     1       2.952   5.352  -5.496  0.00  0.00    +0.040 A 
ATOM     14  C   UNL     1       3.188   6.715  -5.635  0.00  0.00    +0.003 A 
ATOM     15  C   UNL     1       3.886   7.416  -4.658  0.00  0.00    -0.004 A 
ENDBRANCH   7  13
ENDBRANCH   1   7
BRANCH   4  16
ATOM     16  C   UNL     1      -1.539   6.802  -2.497  0.00  0.00    +0.158 C 
BRANCH  16  17
ATOM     17  C   UNL     1      -2.750   5.945  -2.464  0.00  0.00    +0.371 C 
ATOM     18  O   UNL     1      -3.993   6.564  -2.537  0.00  0.00    -0.245 OA
ATOM     19  O   UNL     1      -2.678   4.705  -2.563  0.00  0.00    -0.245 OA
ENDBRANCH  16  17
ENDBRANCH   4  16
TORSDOF 4
ENDMDL
MODEL 8
REMARK VINA RESULT:      -7.2      2.517      7.648
REMARK  Name = 
REMARK  4 active torsions:
REMARK  status: ('A' for Active; 'I' for Inactive)
REMARK    1  A    between atoms: C_5  and  C_6
REMARK    2  A    between atoms: C_6  and  C_8
REMARK    3  A    between atoms: C_11  and  C_12
REMARK    4  A    between atoms: C_12  and  C_13
REMARK                            x       y       z     vdW  Elec       q    Type
REMARK                         _______ _______ _______ _____ _____    ______ ____
ROOT
ATOM      1  C   UNL     1       1.836   6.591  -6.450  0.00  0.00    +0.099 A 
ATOM      2  N   UNL     1       2.064   5.380  -7.017  0.00  0.00    -0.326 N 
ATOM      3  C   UNL     1       1.879   4.060  -6.447  0.00  0.00    +0.130 C 
ATOM      4  C   UNL     1       2.633   5.558  -8.231  0.00  0.00    +0.049 A 
ATOM      5  C   UNL     1       2.342   6.842  -8.623  0.00  0.00    +0.015 A 
ATOM      6  C   UNL     1       1.947   7.513  -7.477  0.00  0.00    +0.022 A 
ENDROOT
BRANCH   1   7
ATOM      7  C   UNL     1       1.056   6.701  -5.218  0.00  0.00    +0.211 C 
ATOM      8  O   UNL     1       1.599   6.333  -4.154  0.00  0.00    -0.285 OA
BRANCH   7  13
ATOM      9  C   UNL     1      -3.550   6.332  -2.624  0.00  0.00    +0.031 C 
ATOM     10  C   UNL     1      -2.846   6.593  -3.916  0.00  0.00    -0.022 A 
ATOM     11  C   UNL     1      -2.292   7.838  -4.191  0.00  0.00    -0.004 A 
ATOM     12  C   UNL     1      -1.053   7.952  -4.808  0.00  0.00    +0.003 A 
ATOM     13  C   UNL     1      -0.404   6.824  -5.295  0.00  0.00    +0.040 A 
ATOM     14  C   UNL     1      -1.231   5.723  -5.481  0.00  0.00    +0.003 A 
ATOM     15  C   UNL     1      -2.363   5.545  -4.692  0.00  0.00    -0.004 A 
ENDBRANCH   7  13
ENDBRANCH   1   7
BRANCH   4  16
ATOM     16  C   UNL     1       3.273   4.553  -9.112  0.00  0.00    +0.158 C 
BRANCH  16  17
ATOM     17  C   UNL     1       4.695   4.953  -9.261  0.00  0.00    +0.371 C 
ATOM     18  O   UNL     1       5.128   5.382 -10.510  0.00  0.00    -0.245 OA
ATOM     19  O   UNL     1       5.443   5.094  -8.274  0.00  0.00    -0.245 OA
ENDBRANCH  16  17
ENDBRANCH   4  16
TORSDOF 4
ENDMDL
MODEL 9
REMARK VINA RESULT:      -7.1      3.114      4.052
REMARK  Name = 
REMARK  4 active torsions:
REMARK  status: ('A' for Active; 'I' for Inactive)
REMARK    1  A    between atoms: C_5  and  C_6
REMARK    2  A    between atoms: C_6  and  C_8
REMARK    3  A    between atoms: C_11  and  C_12
REMARK    4  A    between atoms: C_12  and  C_13
REMARK                            x       y       z     vdW  Elec       q    Type
REMARK                         _______ _______ _______ _____ _____    ______ ____
ROOT
ATOM      1  C   UNL     1       2.368   6.775  -5.997  0.00  0.00    +0.099 A 
ATOM      2  N   UNL     1       3.104   7.067  -4.895  0.00  0.00    -0.326 N 
ATOM      3  C   UNL     1       4.452   7.591  -4.816  0.00  0.00    +0.130 C 
ATOM      4  C   UNL     1       2.425   6.677  -3.793  0.00  0.00    +0.049 A 
ATOM      5  C   UNL     1       1.103   6.576  -4.153  0.00  0.00    +0.015 A 
ATOM      6  C   UNL     1       1.086   6.528  -5.538  0.00  0.00    +0.022 A 
ENDROOT
BRANCH   1   7
ATOM      7  C   UNL     1       2.777   7.260  -7.316  0.00  0.00    +0.211 C 
ATOM      8  O   UNL     1       2.210   8.283  -7.757  0.00  0.00    -0.285 OA
BRANCH   7  13
ATOM      9  C   UNL     1       7.356   6.105  -9.719  0.00  0.00    +0.031 C 
ATOM     10  C   UNL     1       5.911   5.773  -9.527  0.00  0.00    -0.022 A 
ATOM     11  C   UNL     1       5.487   5.031  -8.431  0.00  0.00    -0.004 A 
ATOM     12  C   UNL     1       4.324   5.363  -7.747  0.00  0.00    +0.003 A 
ATOM     13  C   UNL     1       3.484   6.358  -8.231  0.00  0.00    +0.040 A 
ATOM     14  C   UNL     1       3.671   6.663  -9.574  0.00  0.00    +0.003 A 
ATOM     15  C   UNL     1       4.918   6.504 -10.170  0.00  0.00    -0.004 A 
ENDBRANCH   7  13
ENDBRANCH   1   7
BRANCH   4  16
ATOM     16  C   UNL     1       2.908   6.568  -2.396  0.00  0.00    +0.158 C 
BRANCH  16  17
ATOM     17  C   UNL     1       3.351   5.164  -2.202  0.00  0.00    +0.371 C 
ATOM     18  O   UNL     1       4.064   4.555  -3.228  0.00  0.00    -0.245 OA
ATOM     19  O   UNL     1       3.268   4.598  -1.096  0.00  0.00    -0.245 OA
ENDBRANCH  16  17
ENDBRANCH   4  16
TORSDOF 4
ENDMDL
