MODEL 1
REMARK VINA RESULT:      -7.5      0.000      0.000
REMARK  Name = 
REMARK  5 active torsions:
REMARK  status: ('A' for Active; 'I' for Inactive)
REMARK    1  A    between atoms: C_2  and  C_3
REMARK    2  A    between atoms: C_4  and  C_5
REMARK    3  A    between atoms: C_14  and  C_15
REMARK    4  A    between atoms: C_16  and  C_17
REMARK    5  A    between atoms: C_19  and  C_20
REMARK                            x       y       z     vdW  Elec       q    Type
REMARK                         _______ _______ _______ _____ _____    ______ ____
ROOT
ATOM      1  C   UNL     1       1.684   4.523  -9.545  0.00  0.00    +0.031 C 
ATOM      2  C   UNL     1       2.941   4.934  -8.863  0.00  0.00    -0.022 C 
ATOM      3  C   UNL     1       2.967   4.812  -7.543  0.00  0.00    -0.004 C 
ENDROOT
BRANCH   3   4
ATOM      4  C   UNL     1       2.152   3.831  -6.822  0.00  0.00    -0.001 C 
ATOM      5  C   UNL     1       1.434   4.321  -5.810  0.00  0.00    -0.004 C 
BRANCH   5   6
ATOM      6  C   UNL     1       0.818   5.630  -6.062  0.00  0.00    -0.015 C 
ATOM      7  C   UNL     1       0.881   6.494  -5.048  0.00  0.00    +0.082 C 
ATOM      8  C   UNL     1      -0.491   5.625  -6.790  0.00  0.00    +0.031 C 
BRANCH   7   9
ATOM      9  C   UNL     1       2.173   6.630  -4.388  0.00  0.00    +0.388 C 
ATOM     10  O   UNL     1       2.352   6.533  -3.020  0.00  0.00    -0.241 OA
ATOM     11  O   UNL     1       3.092   7.238  -5.016  0.00  0.00    -0.241 OA
ENDBRANCH   7   9
ENDBRANCH   5   6
ENDBRANCH   3   4
BRANCH   2  12
ATOM     12  C   UNL     1       4.134   5.230  -9.621  0.00  0.00    -0.005 C 
ATOM     13  C   UNL     1       4.504   6.436 -10.008  0.00  0.00    -0.005 C 
BRANCH  13  14
ATOM     14  C   UNL     1       5.274   6.498 -11.258  0.00  0.00    -0.031 C 
ATOM     15  C   UNL     1       6.655   7.075 -11.235  0.00  0.00    +0.018 C 
ATOM     16  C   UNL     1       6.550   8.591 -11.245  0.00  0.00    +0.004 C 
ATOM     17  C   UNL     1       7.436   6.569 -10.056  0.00  0.00    +0.004 C 
ATOM     18  C   UNL     1       7.353   6.561 -12.488  0.00  0.00    +0.004 C 
ATOM     19  C   UNL     1       7.026   5.105 -12.701  0.00  0.00    +0.005 C 
ATOM     20  C   UNL     1       5.610   5.038 -13.232  0.00  0.00    +0.022 C 
ATOM     21  C   UNL     1       4.778   5.906 -12.343  0.00  0.00    -0.048 C 
ATOM     22  C   UNL     1       3.316   6.105 -12.586  0.00  0.00    +0.026 C 
ENDBRANCH  13  14
ENDBRANCH   2  12
TORSDOF 5
ENDMDL
MODEL 2
REMARK VINA RESULT:      -7.3      3.067      8.577
REMARK  Name = 
REMARK  5 active torsions:
REMARK  status: ('A' for Active; 'I' for Inactive)
REMARK    1  A    between atoms: C_2  and  C_3
REMARK    2  A    between atoms: C_4  and  C_5
REMARK    3  A    between atoms: C_14  and  C_15
REMARK    4  A    between atoms: C_16  and  C_17
REMARK    5  A    between atoms: C_19  and  C_20
REMARK                            x       y       z     vdW  Elec       q    Type
REMARK                         _______ _______ _______ _____ _____    ______ ____
ROOT
ATOM      1  C   UNL     1       3.678   4.624  -4.878  0.00  0.00    +0.031 C 
ATOM      2  C   UNL     1       2.348   5.154  -5.284  0.00  0.00    -0.022 C 
ATOM      3  C   UNL     1       1.996   4.966  -6.548  0.00  0.00    -0.004 C 
ENDROOT
BRANCH   3   4
ATOM      4  C   UNL     1       2.502   3.852  -7.355  0.00  0.00    -0.001 C 
ATOM      5  C   UNL     1       2.959   4.186  -8.563  0.00  0.00    -0.004 C 
BRANCH   5   6
ATOM      6  C   UNL     1       3.727   5.437  -8.613  0.00  0.00    -0.015 C 
ATOM      7  C   UNL     1       3.468   6.222  -9.660  0.00  0.00    +0.082 C 
ATOM      8  C   UNL     1       5.177   5.347  -8.251  0.00  0.00    +0.031 C 
BRANCH   7   9
ATOM      9  C   UNL     1       2.063   6.446  -9.974  0.00  0.00    +0.388 C 
ATOM     10  O   UNL     1       1.510   6.227 -11.222  0.00  0.00    -0.241 OA
ATOM     11  O   UNL     1       1.408   7.225  -9.218  0.00  0.00    -0.241 OA
ENDBRANCH   7   9
ENDBRANCH   5   6
ENDBRANCH   3   4
BRANCH   2  12
ATOM     12  C   UNL     1       1.410   5.640  -4.300  0.00  0.00    -0.005 C 
ATOM     13  C   UNL     1       0.329   4.996  -3.903  0.00  0.00    -0.005 C 
BRANCH  13  14
ATOM     14  C   UNL     1      -0.797   5.840  -3.478  0.00  0.00    -0.031 C 
ATOM     15  C   UNL     1      -1.621   6.532  -4.517  0.00  0.00    +0.018 C 
ATOM     16  C   UNL     1      -0.882   7.778  -4.976  0.00  0.00    +0.004 C 
ATOM     17  C   UNL     1      -1.941   5.611  -5.659  0.00  0.00    +0.004 C 
ATOM     18  C   UNL     1      -2.942   6.888  -3.846  0.00  0.00    +0.004 C 
ATOM     19  C   UNL     1      -3.413   5.740  -2.991  0.00  0.00    +0.005 C 
ATOM     20  C   UNL     1      -2.561   5.737  -1.740  0.00  0.00    +0.022 C 
ATOM     21  C   UNL     1      -1.140   5.847  -2.190  0.00  0.00    -0.048 C 
ATOM     22  C   UNL     1      -0.009   5.903  -1.213  0.00  0.00    +0.026 C 
ENDBRANCH  13  14
ENDBRANCH   2  12
TORSDOF 5
ENDMDL
MODEL 3
REMARK VINA RESULT:      -7.2      3.017      7.476
REMARK  Name = 
REMARK  5 active torsions:
REMARK  status: ('A' for Active; 'I' for Inactive)
REMARK    1  A    between atoms: C_2  and  C_3
REMARK    2  A    between atoms: C_4  and  C_5
REMARK    3  A    between atoms: C_14  and  C_15
REMARK    4  A    between atoms: C_16  and  C_17
REMARK    5  A    between atoms: C_19  and  C_20
REMARK                            x       y       z     vdW  Elec       q    Type
REMARK                         _______ _______ _______ _____ _____    ______ ____
ROOT
ATOM      1  C   UNL     1       2.566   6.561 -10.038  0.00  0.00    +0.031 C 
ATOM      2  C   UNL     1       3.789   6.517  -9.192  0.00  0.00    -0.022 C 
ATOM      3  C   UNL     1       4.944   6.727  -9.809  0.00  0.00    -0.004 C 
ENDROOT
BRANCH   3   4
ATOM      4  C   UNL     1       5.055   7.520 -11.036  0.00  0.00    -0.001 C 
ATOM      5  C   UNL     1       5.918   7.054 -11.939  0.00  0.00    -0.004 C 
BRANCH   5   6
ATOM      6  C   UNL     1       5.923   5.594 -12.098  0.00  0.00    -0.015 C 
ATOM      7  C   UNL     1       7.112   5.056 -12.374  0.00  0.00    +0.082 C 
ATOM      8  C   UNL     1       4.783   5.000 -12.865  0.00  0.00    +0.031 C 
BRANCH   7   9
ATOM      9  C   UNL     1       8.236   5.509 -11.563  0.00  0.00    +0.388 C 
ATOM     10  O   UNL     1       9.469   5.855 -12.084  0.00  0.00    -0.241 OA
ATOM     11  O   UNL     1       8.230   5.210 -10.331  0.00  0.00    -0.241 OA
ENDBRANCH   7   9
ENDBRANCH   5   6
ENDBRANCH   3   4
BRANCH   2  12
ATOM     12  C   UNL     1       3.696   6.476  -7.752  0.00  0.00    -0.005 C 
ATOM     13  C   UNL     1       4.181   5.515  -6.989  0.00  0.00    -0.005 C 
BRANCH  13  14
ATOM     14  C   UNL     1       3.456   5.266  -5.735  0.00  0.00    -0.031 C 
ATOM     15  C   UNL     1       4.031   5.770  -4.449  0.00  0.00    +0.018 C 
ATOM     16  C   UNL     1       5.118   4.812  -3.991  0.00  0.00    +0.004 C 
ATOM     17  C   UNL     1       4.541   7.176  -4.596  0.00  0.00    +0.004 C 
ATOM     18  C   UNL     1       2.878   5.815  -3.455  0.00  0.00    +0.004 C 
ATOM     19  C   UNL     1       1.641   6.358  -4.122  0.00  0.00    +0.005 C 
ATOM     20  C   UNL     1       1.089   5.258  -5.003  0.00  0.00    +0.022 C 
ATOM     21  C   UNL     1       2.239   4.729  -5.798  0.00  0.00    -0.048 C 
ATOM     22  C   UNL     1       2.072   3.600  -6.764  0.00  0.00    +0.026 C 
ENDBRANCH  13  14
ENDBRANCH   2  12
TORSDOF 5
ENDMDL
MODEL 4
REMARK VINA RESULT:      -7.1      2.924      4.894
REMARK  Name = 
REMARK  5 active torsions:
REMARK  status: ('A' for Active; 'I' for Inactive)
REMARK    1  A    between atoms: C_2  and  C_3
REMARK    2  A    between atoms: C_4  and  C_5
REMARK    3  A    between atoms: C_14  and  C_15
REMARK    4  A    between atoms: C_16  and  C_17
REMARK    5  A    between atoms: C_19  and  C_20
REMARK                            x       y       z     vdW  Elec       q    Type
REMARK                         _______ _______ _______ _____ _____    ______ ____
ROOT
ATOM      1  C   UNL     1       2.337   6.903  -5.483  0.00  0.00    +0.031 C 
ATOM      2  C   UNL     1       1.203   6.523  -6.368  0.00  0.00    -0.022 C 
ATOM      3  C   UNL     1       0.014   6.410  -5.794  0.00  0.00    -0.004 C 
ENDROOT
BRANCH   3   4
ATOM      4  C   UNL     1      -0.354   7.147  -4.582  0.00  0.00    -0.001 C 
ATOM      5  C   UNL     1      -1.642   7.483  -4.489  0.00  0.00    -0.004 C 
BRANCH   5   6
ATOM      6  C   UNL     1      -2.586   6.455  -4.946  0.00  0.00    -0.015 C 
ATOM      7  C   UNL     1      -2.770   5.436  -4.105  0.00  0.00    +0.082 C 
ATOM      8  C   UNL     1      -2.497   6.058  -6.387  0.00  0.00    +0.031 C 
BRANCH   7   9
ATOM      9  C   UNL     1      -2.991   5.779  -2.706  0.00  0.00    +0.388 C 
ATOM     10  O   UNL     1      -2.482   5.050  -1.647  0.00  0.00    -0.241 OA
ATOM     11  O   UNL     1      -3.984   6.517  -2.432  0.00  0.00    -0.241 OA
ENDBRANCH   7   9
ENDBRANCH   5   6
ENDBRANCH   3   4
BRANCH   2  12
ATOM     12  C   UNL     1       1.356   6.505  -7.804  0.00  0.00    -0.005 C 
ATOM     13  C   UNL     1       0.752   5.661  -8.619  0.00  0.00    -0.005 C 
BRANCH  13  14
ATOM     14  C   UNL     1       1.483   5.326  -9.849  0.00  0.00    -0.031 C 
ATOM     15  C   UNL     1       0.859   5.634 -11.174  0.00  0.00    +0.018 C 
ATOM     16  C   UNL     1      -0.154   4.549 -11.500  0.00  0.00    +0.004 C 
ATOM     17  C   UNL     1       0.243   7.004 -11.179  0.00  0.00    +0.004 C 
ATOM     18  C   UNL     1       1.996   5.651 -12.187  0.00  0.00    +0.004 C 
ATOM     19  C   UNL     1       3.194   6.360 -11.608  0.00  0.00    +0.005 C 
ATOM     20  C   UNL     1       3.837   5.413 -10.617  0.00  0.00    +0.022 C 
ATOM     21  C   UNL     1       2.738   4.893  -9.747  0.00  0.00    -0.048 C 
ATOM     22  C   UNL     1       3.001   3.898  -8.662  0.00  0.00    +0.026 C 
ENDBRANCH  13  14
ENDBRANCH   2  12
TORSDOF 5
ENDMDL
MODEL 5
REMARK VINA RESULT:      -7.1      3.009      8.385
REMARK  Name = 
REMARK  5 active torsions:
REMARK  status: ('A' for Active; 'I' for Inactive)
REMARK    1  A    between atoms: C_2  and  C_3
REMARK    2  A    between atoms: C_4  and  C_5
REMARK    3  A    between atoms: C_14  and  C_15
REMARK    4  A    between atoms: C_16  and  C_17
REMARK    5  A    between atoms: C_19  and  C_20
REMARK                            x       y       z     vdW  Elec       q    Type
REMARK                         _______ _______ _______ _____ _____    ______ ____
ROOT
ATOM      1  C   UNL     1       3.348   4.662  -5.015  0.00  0.00    +0.031 C 
ATOM      2  C   UNL     1       2.107   5.228  -5.608  0.00  0.00    -0.022 C 
ATOM      3  C   UNL     1       1.926   5.030  -6.906  0.00  0.00    -0.004 C 
ENDROOT
BRANCH   3   4
ATOM      4  C   UNL     1       2.501   3.888  -7.622  0.00  0.00    -0.001 C 
ATOM      5  C   UNL     1       3.012   4.167  -8.822  0.00  0.00    -0.004 C 
BRANCH   5   6
ATOM      6  C   UNL     1       3.750   5.434  -8.904  0.00  0.00    -0.015 C 
ATOM      7  C   UNL     1       3.479   6.183  -9.974  0.00  0.00    +0.082 C 
ATOM      8  C   UNL     1       5.200   5.390  -8.532  0.00  0.00    +0.031 C 
BRANCH   7   9
ATOM      9  C   UNL     1       2.070   6.364 -10.302  0.00  0.00    +0.388 C 
ATOM     10  O   UNL     1       1.522   6.053 -11.532  0.00  0.00    -0.241 OA
ATOM     11  O   UNL     1       1.404   7.182  -9.599  0.00  0.00    -0.241 OA
ENDBRANCH   7   9
ENDBRANCH   5   6
ENDBRANCH   3   4
BRANCH   2  12
ATOM     12  C   UNL     1       1.058   5.759  -4.768  0.00  0.00    -0.005 C 
ATOM     13  C   UNL     1      -0.004   5.087  -4.367  0.00  0.00    -0.005 C 
BRANCH  13  14
ATOM     14  C   UNL     1      -1.218   5.884  -4.143  0.00  0.00    -0.031 C 
ATOM     15  C   UNL     1      -1.604   6.244  -2.743  0.00  0.00    +0.018 C 
ATOM     16  C   UNL     1      -2.291   5.049  -2.103  0.00  0.00    +0.004 C 
ATOM     17  C   UNL     1      -0.413   6.703  -1.951  0.00  0.00    +0.004 C 
ATOM     18  C   UNL     1      -2.551   7.432  -2.854  0.00  0.00    +0.004 C 
ATOM     19  C   UNL     1      -2.043   8.403  -3.889  0.00  0.00    +0.005 C 
ATOM     20  C   UNL     1      -2.335   7.800  -5.247  0.00  0.00    +0.022 C 
ATOM     21  C   UNL     1      -1.856   6.385  -5.199  0.00  0.00    -0.048 C 
ATOM     22  C   UNL     1      -2.010   5.465  -6.367  0.00  0.00    +0.026 C 
ENDBRANCH  13  14
ENDBRANCH   2  12
TORSDOF 5
ENDMDL
MODEL 6
REMARK VINA RESULT:      -7.1      3.664      8.074
REMARK  Name = 
REMARK  5 active torsions:
REMARK  status: ('A' for Active; 'I' for Inactive)
REMARK    1  A    between atoms: C_2  and  C_3
REMARK    2  A    between atoms: C_4  and  C_5
REMARK    3  A    between atoms: C_14  and  C_15
REMARK    4  A    between atoms: C_16  and  C_17
REMARK    5  A    between atoms: C_19  and  C_20
REMARK                            x       y       z     vdW  Elec       q    Type
REMARK                         _______ _______ _______ _____ _____    ______ ____
ROOT
ATOM      1  C   UNL     1      -1.382   6.889  -5.221  0.00  0.00    +0.031 C 
ATOM      2  C   UNL     1      -0.167   6.058  -5.000  0.00  0.00    -0.022 C 
ATOM      3  C   UNL     1       0.088   5.127  -5.909  0.00  0.00    -0.004 C 
ENDROOT
BRANCH   3   4
ATOM      4  C   UNL     1      -0.355   5.237  -7.302  0.00  0.00    -0.001 C 
ATOM      5  C   UNL     1       0.563   5.691  -8.157  0.00  0.00    -0.004 C 
BRANCH   5   6
ATOM      6  C   UNL     1       1.922   5.181  -7.937  0.00  0.00    -0.015 C 
ATOM      7  C   UNL     1       2.889   6.099  -7.992  0.00  0.00    +0.082 C 
ATOM      8  C   UNL     1       2.265   3.882  -8.596  0.00  0.00    +0.031 C 
BRANCH   7   9
ATOM      9  C   UNL     1       2.657   7.335  -7.256  0.00  0.00    +0.388 C 
ATOM     10  O   UNL     1       2.188   8.498  -7.836  0.00  0.00    -0.241 OA
ATOM     11  O   UNL     1       3.261   7.483  -6.150  0.00  0.00    -0.241 OA
ENDBRANCH   7   9
ENDBRANCH   5   6
ENDBRANCH   3   4
BRANCH   2  12
ATOM     12  C   UNL     1       0.793   6.403  -3.978  0.00  0.00    -0.005 C 
ATOM     13  C   UNL     1       1.702   5.583  -3.486  0.00  0.00    -0.005 C 
BRANCH  13  14
ATOM     14  C   UNL     1       2.092   5.825  -2.090  0.00  0.00    -0.031 C 
ATOM     15  C   UNL     1       3.545   5.924  -1.746  0.00  0.00    +0.018 C 
ATOM     16  C   UNL     1       4.119   4.520  -1.645  0.00  0.00    +0.004 C 
ATOM     17  C   UNL     1       4.283   6.768  -2.745  0.00  0.00    +0.004 C 
ATOM     18  C   UNL     1       3.618   6.648  -0.408  0.00  0.00    +0.004 C 
ATOM     19  C   UNL     1       2.643   7.797  -0.388  0.00  0.00    +0.005 C 
ATOM     20  C   UNL     1       1.260   7.208  -0.209  0.00  0.00    +0.022 C 
ATOM     21  C   UNL     1       1.139   6.094  -1.199  0.00  0.00    -0.048 C 
ATOM     22  C   UNL     1      -0.096   5.256  -1.289  0.00  0.00    +0.026 C 
ENDBRANCH  13  14
ENDBRANCH   2  12
TORSDOF 5
ENDMDL
MODEL 7
REMARK VINA RESULT:      -7.0      3.044      5.526
REMARK  Name = 
REMARK  5 active torsions:
REMARK  status: ('A' for Active; 'I' for Inactive)
REMARK    1  A    between atoms: C_2  and  C_3
REMARK    2  A    between atoms: C_4  and  C_5
REMARK    3  A    between atoms: C_14  and  C_15
REMARK    4  A    between atoms: C_16  and  C_17
REMARK    5  A    between atoms: C_19  and  C_20
REMARK                            x       y       z     vdW  Elec       q    Type
REMARK                         _______ _______ _______ _____ _____    ______ ____
ROOT
ATOM      1  C   UNL     1      -2.652   6.790  -5.562  0.00  0.00    +0.031 C 
ATOM      2  C   UNL     1      -1.210   6.454  -5.419  0.00  0.00    -0.022 C 
ATOM      3  C   UNL     1      -0.822   5.996  -4.237  0.00  0.00    -0.004 C 
ENDROOT
BRANCH   3   4
ATOM      4  C   UNL     1      -1.726   5.289  -3.326  0.00  0.00    -0.001 C 
ATOM      5  C   UNL     1      -1.343   5.268  -2.048  0.00  0.00    -0.004 C 
BRANCH   5   6
ATOM      6  C   UNL     1      -0.757   6.521  -1.554  0.00  0.00    -0.015 C 
ATOM      7  C   UNL     1       0.341   6.381  -0.810  0.00  0.00    +0.082 C 
ATOM      8  C   UNL     1      -1.716   7.555  -1.051  0.00  0.00    +0.031 C 
BRANCH   7   9
ATOM      9  C   UNL     1       1.365   5.479  -1.324  0.00  0.00    +0.388 C 
ATOM     10  O   UNL     1       1.879   4.414  -0.610  0.00  0.00    -0.241 OA
ATOM     11  O   UNL     1       2.088   5.895  -2.279  0.00  0.00    -0.241 OA
ENDBRANCH   7   9
ENDBRANCH   5   6
ENDBRANCH   3   4
BRANCH   2  12
ATOM     12  C   UNL     1      -0.339   6.417  -6.570  0.00  0.00    -0.005 C 
ATOM     13  C   UNL     1      -0.275   5.426  -7.439  0.00  0.00    -0.005 C 
BRANCH  13  14
ATOM     14  C   UNL     1       1.032   5.222  -8.080  0.00  0.00    -0.031 C 
ATOM     15  C   UNL     1       1.179   5.512  -9.541  0.00  0.00    +0.018 C 
ATOM     16  C   UNL     1       0.627   4.336 -10.329  0.00  0.00    +0.004 C 
ATOM     17  C   UNL     1       0.508   6.804  -9.909  0.00  0.00    +0.004 C 
ATOM     18  C   UNL     1       2.670   5.694  -9.792  0.00  0.00    +0.004 C 
ATOM     19  C   UNL     1       3.285   6.508  -8.681  0.00  0.00    +0.005 C 
ATOM     20  C   UNL     1       3.406   5.599  -7.477  0.00  0.00    +0.022 C 
ATOM     21  C   UNL     1       2.080   4.927  -7.314  0.00  0.00    -0.048 C 
ATOM     22  C   UNL     1       1.837   3.925  -6.230  0.00  0.00    +0.026 C 
ENDBRANCH  13  14
ENDBRANCH   2  12
TORSDOF 5
ENDMDL
MODEL 8
REMARK VINA RESULT:      -6.9      3.412      5.450
REMARK  Name = 
REMARK  5 active torsions:
REMARK  status: ('A' for Active; 'I' for Inactive)
REMARK    1  A    between atoms: C_2  and  C_3
REMARK    2  A    between atoms: C_4  and  C_5
REMARK    3  A    between atoms: C_14  and  C_15
REMARK    4  A    between atoms: C_16  and  C_17
REMARK    5  A    between atoms: C_19  and  C_20
REMARK                            x       y       z     vdW  Elec       q    Type
REMARK                         _______ _______ _______ _____ _____    ______ ____
ROOT
ATOM      1  C   UNL     1      -2.676   7.077  -5.116  0.00  0.00    +0.031 C 
ATOM      2  C   UNL     1      -1.277   6.570  -5.088  0.00  0.00    -0.022 C 
ATOM      3  C   UNL     1      -0.870   6.017  -3.954  0.00  0.00    -0.004 C 
ENDROOT
BRANCH   3   4
ATOM      4  C   UNL     1      -1.790   5.380  -3.007  0.00  0.00    -0.001 C 
ATOM      5  C   UNL     1      -1.382   5.369  -1.737  0.00  0.00    -0.004 C 
BRANCH   5   6
ATOM      6  C   UNL     1      -0.722   6.601  -1.286  0.00  0.00    -0.015 C 
ATOM      7  C   UNL     1       0.424   6.423  -0.627  0.00  0.00    +0.082 C 
ATOM      8  C   UNL     1      -1.607   7.662  -0.711  0.00  0.00    +0.031 C 
BRANCH   7   9
ATOM      9  C   UNL     1       1.378   5.493  -1.218  0.00  0.00    +0.388 C 
ATOM     10  O   UNL     1       1.785   4.320  -0.611  0.00  0.00    -0.241 OA
ATOM     11  O   UNL     1       2.154   5.939  -2.117  0.00  0.00    -0.241 OA
ENDBRANCH   7   9
ENDBRANCH   5   6
ENDBRANCH   3   4
BRANCH   2  12
ATOM     12  C   UNL     1      -0.494   6.483  -6.298  0.00  0.00    -0.005 C 
ATOM     13  C   UNL     1      -0.037   5.363  -6.825  0.00  0.00    -0.005 C 
BRANCH  13  14
ATOM     14  C   UNL     1       1.221   5.477  -7.576  0.00  0.00    -0.031 C 
ATOM     15  C   UNL     1       2.512   5.566  -6.825  0.00  0.00    +0.018 C 
ATOM     16  C   UNL     1       2.694   6.993  -6.336  0.00  0.00    +0.004 C 
ATOM     17  C   UNL     1       2.555   4.572  -5.699  0.00  0.00    +0.004 C 
ATOM     18  C   UNL     1       3.606   5.175  -7.810  0.00  0.00    +0.004 C 
ATOM     19  C   UNL     1       3.163   3.992  -8.632  0.00  0.00    +0.005 C 
ATOM     20  C   UNL     1       2.166   4.504  -9.650  0.00  0.00    +0.022 C 
ATOM     21  C   UNL     1       1.187   5.349  -8.902  0.00  0.00    -0.048 C 
ATOM     22  C   UNL     1       0.064   6.052  -9.597  0.00  0.00    +0.026 C 
ENDBRANCH  13  14
ENDBRANCH   2  12
TORSDOF 5
ENDMDL
MODEL 9
REMARK VINA RESULT:      -6.8      2.571      4.802
REMARK  Name = 
REMARK  5 active torsions:
REMARK  status: ('A' for Active; 'I' for Inactive)
REMARK    1  A    between atoms: C_2  and  C_3
REMARK    2  A    between atoms: C_4  and  C_5
REMARK    3  A    between atoms: C_14  and  C_15
REMARK    4  A    between atoms: C_16  and  C_17
REMARK    5  A    between atoms: C_19  and  C_20
REMARK                            x       y       z     vdW  Elec       q    Type
REMARK                         _______ _______ _______ _____ _____    ______ ____
ROOT
ATOM      1  C   UNL     1      -0.861   5.749  -5.433  0.00  0.00    +0.031 C 
ATOM      2  C   UNL     1       0.376   6.449  -5.872  0.00  0.00    -0.022 C 
ATOM      3  C   UNL     1       1.179   6.892  -4.914  0.00  0.00    -0.004 C 
ENDROOT
BRANCH   3   4
ATOM      4  C   UNL     1       1.241   6.278  -3.585  0.00  0.00    -0.001 C 
ATOM      5  C   UNL     1       2.470   6.036  -3.127  0.00  0.00    -0.004 C 
BRANCH   5   6
ATOM      6  C   UNL     1       3.458   7.084  -3.414  0.00  0.00    -0.015 C 
ATOM      7  C   UNL     1       4.627   6.649  -3.887  0.00  0.00    +0.082 C 
ATOM      8  C   UNL     1       3.569   8.192  -2.413  0.00  0.00    +0.031 C 
BRANCH   7   9
ATOM      9  C   UNL     1       4.570   5.662  -4.957  0.00  0.00    +0.388 C 
ATOM     10  O   UNL     1       4.976   4.348  -4.813  0.00  0.00    -0.241 OA
ATOM     11  O   UNL     1       4.524   6.090  -6.150  0.00  0.00    -0.241 OA
ENDBRANCH   7   9
ENDBRANCH   5   6
ENDBRANCH   3   4
BRANCH   2  12
ATOM     12  C   UNL     1       0.783   6.439  -7.257  0.00  0.00    -0.005 C 
ATOM     13  C   UNL     1       0.318   5.614  -8.177  0.00  0.00    -0.005 C 
BRANCH  13  14
ATOM     14  C   UNL     1       1.251   5.274  -9.260  0.00  0.00    -0.031 C 
ATOM     15  C   UNL     1       0.877   5.600 -10.672  0.00  0.00    +0.018 C 
ATOM     16  C   UNL     1      -0.078   4.533 -11.182  0.00  0.00    +0.004 C 
ATOM     17  C   UNL     1       0.291   6.979 -10.774  0.00  0.00    +0.004 C 
ATOM     18  C   UNL     1       2.176   5.605 -11.468  0.00  0.00    +0.004 C 
ATOM     19  C   UNL     1       3.262   6.292 -10.679  0.00  0.00    +0.005 C 
ATOM     20  C   UNL     1       3.705   5.329  -9.598  0.00  0.00    +0.022 C 
ATOM     21  C   UNL     1       2.462   4.821  -8.942  0.00  0.00    -0.048 C 
ATOM     22  C   UNL     1       2.514   3.816  -7.835  0.00  0.00    +0.026 C 
ENDBRANCH  13  14
ENDBRANCH   2  12
TORSDOF 5
ENDMDL
