MODEL 1
REMARK VINA RESULT:      -7.3      0.000      0.000
REMARK  Name = 
REMARK  11 active torsions:
REMARK  status: ('A' for Active; 'I' for Inactive)
REMARK    1  A    between atoms: C_2  and  C_3
REMARK    2  A    between atoms: C_3  and  N_4
REMARK    3  A    between atoms: N_4  and  C_5
REMARK    4  A    between atoms: C_5  and  C_6
REMARK    5  A    between atoms: C_6  and  C_8
REMARK    6  A    between atoms: C_8  and  O_9
REMARK    7  A    between atoms: O_9  and  C_10
REMARK    8  A    between atoms: C_15  and  C_16
REMARK    9  A    between atoms: C_16  and  C_18
REMARK   10  A    between atoms: C_18  and  C_19
REMARK   11  A    between atoms: C_19  and  C_20
REMARK                            x       y       z     vdW  Elec       q    Type
REMARK                         _______ _______ _______ _____ _____    ______ ____
ROOT
ATOM      1  C   UNL     1       0.322   5.584  -7.966  0.00  0.00    +0.141 A 
ATOM      2  C   UNL     1       1.238   6.234  -7.163  0.00  0.00    +0.069 A 
ATOM      3  C   UNL     1       0.948   6.311  -5.823  0.00  0.00    +0.006 A 
ATOM      4  C   UNL     1      -0.288   5.906  -5.333  0.00  0.00    +0.000 A 
ATOM      5  C   UNL     1      -1.303   5.706  -6.254  0.00  0.00    +0.003 A 
ATOM      6  C   UNL     1      -0.981   5.338  -7.550  0.00  0.00    +0.037 A 
ENDROOT
BRANCH   2   7
ATOM      7  C   UNL     1       2.372   6.872  -7.801  0.00  0.00    +0.176 C 
ATOM      8  O   UNL     1       2.332   8.111  -8.071  0.00  0.00    -0.291 OA
BRANCH   7   9
ATOM      9  C   UNL     1       3.728   6.252  -7.873  0.00  0.00    +0.074 C 
BRANCH   9  10
ATOM     10  C   UNL     1       3.943   5.500  -9.156  0.00  0.00    +0.034 C 
BRANCH  10  11
ATOM     11  C   UNL     1       5.104   6.114  -9.852  0.00  0.00    -0.022 A 
ATOM     12  C   UNL     1       5.024   7.365 -10.452  0.00  0.00    -0.004 A 
ATOM     13  C   UNL     1       6.072   7.697 -11.298  0.00  0.00    -0.000 A 
ATOM     14  C   UNL     1       7.360   7.385 -10.881  0.00  0.00    -0.000 A 
ATOM     15  C   UNL     1       7.477   6.296 -10.030  0.00  0.00    -0.000 A 
ATOM     16  C   UNL     1       6.368   5.742  -9.411  0.00  0.00    -0.004 A 
ENDBRANCH  10  11
ENDBRANCH   9  10
ENDBRANCH   7   9
ENDBRANCH   2   7
BRANCH   1  17
ATOM     17  O   UNL     1       0.793   5.114  -9.196  0.00  0.00    -0.473 OA
BRANCH  17  18
ATOM     18  C   UNL     1       0.030   5.288 -10.370  0.00  0.00    +0.240 C 
BRANCH  18  19
ATOM     19  C   UNL     1       0.506   6.810 -10.900  0.00  0.00    +0.213 C 
ATOM     20  O   UNL     1      -0.939   7.146 -11.339  0.00  0.00    -0.218 OA
BRANCH  19  21
ATOM     21  C   UNL     1       0.865   6.207 -12.428  0.00  0.00    +0.125 C 
BRANCH  21  22
ATOM     22  N   UNL     1       2.321   6.305 -12.414  0.00  0.00    -0.215 NA
BRANCH  22  23
ATOM     23  C   UNL     1       2.825   5.634 -13.605  0.00  0.00    +0.089 C 
BRANCH  23  25
ATOM     24  C   UNL     1       4.877   5.169 -13.587  0.00  0.00    +0.002 C 
ATOM     25  C   UNL     1       4.198   5.063 -13.313  0.00  0.00    +0.019 C 
ENDBRANCH  23  25
ENDBRANCH  22  23
ENDBRANCH  21  22
ENDBRANCH  19  21
ENDBRANCH  18  19
ENDBRANCH  17  18
ENDBRANCH   1  17
TORSDOF 11
ENDMDL
MODEL 2
REMARK VINA RESULT:      -7.2      3.171      5.790
REMARK  Name = 
REMARK  11 active torsions:
REMARK  status: ('A' for Active; 'I' for Inactive)
REMARK    1  A    between atoms: C_2  and  C_3
REMARK    2  A    between atoms: C_3  and  N_4
REMARK    3  A    between atoms: N_4  and  C_5
REMARK    4  A    between atoms: C_5  and  C_6
REMARK    5  A    between atoms: C_6  and  C_8
REMARK    6  A    between atoms: C_8  and  O_9
REMARK    7  A    between atoms: O_9  and  C_10
REMARK    8  A    between atoms: C_15  and  C_16
REMARK    9  A    between atoms: C_16  and  C_18
REMARK   10  A    between atoms: C_18  and  C_19
REMARK   11  A    between atoms: C_19  and  C_20
REMARK                            x       y       z     vdW  Elec       q    Type
REMARK                         _______ _______ _______ _____ _____    ______ ____
ROOT
ATOM      1  C   UNL     1       2.686   7.016  -4.342  0.00  0.00    +0.141 A 
ATOM      2  C   UNL     1       3.466   6.881  -5.475  0.00  0.00    +0.069 A 
ATOM      3  C   UNL     1       4.826   6.850  -5.294  0.00  0.00    +0.006 A 
ATOM      4  C   UNL     1       5.391   7.115  -4.052  0.00  0.00    +0.000 A 
ATOM      5  C   UNL     1       4.576   7.691  -3.092  0.00  0.00    +0.003 A 
ATOM      6  C   UNL     1       3.211   7.460  -3.135  0.00  0.00    +0.037 A 
ENDROOT
BRANCH   2   7
ATOM      7  C   UNL     1       2.802   6.890  -6.763  0.00  0.00    +0.176 C 
ATOM      8  O   UNL     1       2.345   7.976  -7.232  0.00  0.00    -0.291 OA
BRANCH   7   9
ATOM      9  C   UNL     1       2.902   5.770  -7.744  0.00  0.00    +0.074 C 
BRANCH   9  10
ATOM     10  C   UNL     1       3.017   6.262  -9.159  0.00  0.00    +0.034 C 
BRANCH  10  11
ATOM     11  C   UNL     1       4.464   6.370  -9.484  0.00  0.00    -0.022 A 
ATOM     12  C   UNL     1       5.379   5.400  -9.093  0.00  0.00    -0.004 A 
ATOM     13  C   UNL     1       6.716   5.750  -9.208  0.00  0.00    -0.000 A 
ATOM     14  C   UNL     1       7.109   6.424 -10.358  0.00  0.00    -0.000 A 
ATOM     15  C   UNL     1       6.136   7.200 -10.971  0.00  0.00    -0.000 A 
ATOM     16  C   UNL     1       4.799   7.080 -10.630  0.00  0.00    -0.004 A 
ENDBRANCH  10  11
ENDBRANCH   9  10
ENDBRANCH   7   9
ENDBRANCH   2   7
BRANCH   1  17
ATOM     17  O   UNL     1       1.353   6.607  -4.450  0.00  0.00    -0.473 OA
BRANCH  17  18
ATOM     18  C   UNL     1       0.892   5.473  -3.748  0.00  0.00    +0.240 C 
BRANCH  18  19
ATOM     19  C   UNL     1      -0.218   6.131  -2.670  0.00  0.00    +0.213 C 
ATOM     20  O   UNL     1      -0.061   4.920  -1.719  0.00  0.00    -0.218 OA
BRANCH  19  21
ATOM     21  C   UNL     1      -1.493   5.380  -3.468  0.00  0.00    +0.125 C 
BRANCH  21  22
ATOM     22  N   UNL     1      -1.764   6.362  -4.513  0.00  0.00    -0.215 NA
BRANCH  22  23
ATOM     23  C   UNL     1      -2.277   5.648  -5.674  0.00  0.00    +0.089 C 
BRANCH  23  25
ATOM     24  C   UNL     1      -0.843   5.216  -7.151  0.00  0.00    +0.002 C 
ATOM     25  C   UNL     1      -1.256   5.713  -6.792  0.00  0.00    +0.019 C 
ENDBRANCH  23  25
ENDBRANCH  22  23
ENDBRANCH  21  22
ENDBRANCH  19  21
ENDBRANCH  18  19
ENDBRANCH  17  18
ENDBRANCH   1  17
TORSDOF 11
ENDMDL
MODEL 3
REMARK VINA RESULT:      -7.2      2.370      4.802
REMARK  Name = 
REMARK  11 active torsions:
REMARK  status: ('A' for Active; 'I' for Inactive)
REMARK    1  A    between atoms: C_2  and  C_3
REMARK    2  A    between atoms: C_3  and  N_4
REMARK    3  A    between atoms: N_4  and  C_5
REMARK    4  A    between atoms: C_5  and  C_6
REMARK    5  A    between atoms: C_6  and  C_8
REMARK    6  A    between atoms: C_8  and  O_9
REMARK    7  A    between atoms: O_9  and  C_10
REMARK    8  A    between atoms: C_15  and  C_16
REMARK    9  A    between atoms: C_16  and  C_18
REMARK   10  A    between atoms: C_18  and  C_19
REMARK   11  A    between atoms: C_19  and  C_20
REMARK                            x       y       z     vdW  Elec       q    Type
REMARK                         _______ _______ _______ _____ _____    ______ ____
ROOT
ATOM      1  C   UNL     1       0.569   5.623  -8.593  0.00  0.00    +0.141 A 
ATOM      2  C   UNL     1       1.304   6.616  -9.212  0.00  0.00    +0.069 A 
ATOM      3  C   UNL     1       1.046   6.845 -10.541  0.00  0.00    +0.006 A 
ATOM      4  C   UNL     1       0.211   6.002 -11.266  0.00  0.00    +0.000 A 
ATOM      5  C   UNL     1      -0.110   4.781 -10.696  0.00  0.00    +0.003 A 
ATOM      6  C   UNL     1      -0.124   4.659  -9.316  0.00  0.00    +0.037 A 
ENDROOT
BRANCH   2   7
ATOM      7  C   UNL     1       2.354   7.261  -8.450  0.00  0.00    +0.176 C 
ATOM      8  O   UNL     1       2.117   8.348  -7.840  0.00  0.00    -0.291 OA
BRANCH   7   9
ATOM      9  C   UNL     1       3.618   6.575  -8.052  0.00  0.00    +0.074 C 
BRANCH   9  10
ATOM     10  C   UNL     1       4.024   5.513  -9.035  0.00  0.00    +0.034 C 
BRANCH  10  11
ATOM     11  C   UNL     1       5.171   6.039  -9.822  0.00  0.00    -0.022 A 
ATOM     12  C   UNL     1       5.060   7.176 -10.611  0.00  0.00    -0.004 A 
ATOM     13  C   UNL     1       6.101   7.397 -11.501  0.00  0.00    -0.000 A 
ATOM     14  C   UNL     1       7.396   7.188 -11.043  0.00  0.00    -0.000 A 
ATOM     15  C   UNL     1       7.539   6.250 -10.031  0.00  0.00    -0.000 A 
ATOM     16  C   UNL     1       6.443   5.773  -9.330  0.00  0.00    -0.004 A 
ENDBRANCH  10  11
ENDBRANCH   9  10
ENDBRANCH   7   9
ENDBRANCH   2   7
BRANCH   1  17
ATOM     17  O   UNL     1       0.491   5.682  -7.199  0.00  0.00    -0.473 OA
BRANCH  17  18
ATOM     18  C   UNL     1       0.934   4.600  -6.409  0.00  0.00    +0.240 C 
BRANCH  18  19
ATOM     19  C   UNL     1       0.446   5.044  -4.863  0.00  0.00    +0.213 C 
ATOM     20  O   UNL     1      -0.855   5.671  -5.417  0.00  0.00    -0.218 OA
BRANCH  19  21
ATOM     21  C   UNL     1       1.249   6.516  -4.993  0.00  0.00    +0.125 C 
BRANCH  21  22
ATOM     22  N   UNL     1       2.605   6.107  -4.638  0.00  0.00    -0.215 NA
BRANCH  22  23
ATOM     23  C   UNL     1       3.278   7.258  -4.052  0.00  0.00    +0.089 C 
BRANCH  23  25
ATOM     24  C   UNL     1       5.339   7.629  -4.250  0.00  0.00    +0.002 C 
ATOM     25  C   UNL     1       4.753   7.201  -4.394  0.00  0.00    +0.019 C 
ENDBRANCH  23  25
ENDBRANCH  22  23
ENDBRANCH  21  22
ENDBRANCH  19  21
ENDBRANCH  18  19
ENDBRANCH  17  18
ENDBRANCH   1  17
TORSDOF 11
ENDMDL
MODEL 4
REMARK VINA RESULT:      -7.1      2.460      6.575
REMARK  Name = 
REMARK  11 active torsions:
REMARK  status: ('A' for Active; 'I' for Inactive)
REMARK    1  A    between atoms: C_2  and  C_3
REMARK    2  A    between atoms: C_3  and  N_4
REMARK    3  A    between atoms: N_4  and  C_5
REMARK    4  A    between atoms: C_5  and  C_6
REMARK    5  A    between atoms: C_6  and  C_8
REMARK    6  A    between atoms: C_8  and  O_9
REMARK    7  A    between atoms: O_9  and  C_10
REMARK    8  A    between atoms: C_15  and  C_16
REMARK    9  A    between atoms: C_16  and  C_18
REMARK   10  A    between atoms: C_18  and  C_19
REMARK   11  A    between atoms: C_19  and  C_20
REMARK                            x       y       z     vdW  Elec       q    Type
REMARK                         _______ _______ _______ _____ _____    ______ ____
ROOT
ATOM      1  C   UNL     1       2.697   6.466  -6.415  0.00  0.00    +0.141 A 
ATOM      2  C   UNL     1       1.593   6.088  -5.675  0.00  0.00    +0.069 A 
ATOM      3  C   UNL     1       1.554   6.493  -4.364  0.00  0.00    +0.006 A 
ATOM      4  C   UNL     1       2.653   7.102  -3.768  0.00  0.00    +0.000 A 
ATOM      5  C   UNL     1       3.864   7.022  -4.436  0.00  0.00    +0.003 A 
ATOM      6  C   UNL     1       3.871   6.904  -5.816  0.00  0.00    +0.037 A 
ENDROOT
BRANCH   2   7
ATOM      7  C   UNL     1       0.621   5.215  -6.299  0.00  0.00    +0.176 C 
ATOM      8  O   UNL     1       0.623   3.974  -6.036  0.00  0.00    -0.291 OA
BRANCH   7   9
ATOM      9  C   UNL     1      -0.607   5.712  -6.986  0.00  0.00    +0.074 C 
BRANCH   9  10
ATOM     10  C   UNL     1      -1.866   5.213  -6.335  0.00  0.00    +0.034 C 
BRANCH  10  11
ATOM     11  C   UNL     1      -2.020   5.928  -5.040  0.00  0.00    -0.022 A 
ATOM     12  C   UNL     1      -2.157   7.309  -4.976  0.00  0.00    -0.004 A 
ATOM     13  C   UNL     1      -2.010   7.872  -3.717  0.00  0.00    -0.000 A 
ATOM     14  C   UNL     1      -2.613   7.223  -2.646  0.00  0.00    -0.000 A 
ATOM     15  C   UNL     1      -2.770   5.851  -2.776  0.00  0.00    -0.000 A 
ATOM     16  C   UNL     1      -2.604   5.219  -3.997  0.00  0.00    -0.004 A 
ENDBRANCH  10  11
ENDBRANCH   9  10
ENDBRANCH   7   9
ENDBRANCH   2   7
BRANCH   1  17
ATOM     17  O   UNL     1       2.548   6.459  -7.805  0.00  0.00    -0.473 OA
BRANCH  17  18
ATOM     18  C   UNL     1       3.679   6.471  -8.648  0.00  0.00    +0.240 C 
BRANCH  18  19
ATOM     19  C   UNL     1       3.911   4.839  -8.980  0.00  0.00    +0.213 C 
ATOM     20  O   UNL     1       5.339   4.887  -8.385  0.00  0.00    -0.218 OA
BRANCH  19  21
ATOM     21  C   UNL     1       4.503   5.197 -10.513  0.00  0.00    +0.125 C 
BRANCH  21  22
ATOM     22  N   UNL     1       5.864   5.606 -10.179  0.00  0.00    -0.215 NA
BRANCH  22  23
ATOM     23  C   UNL     1       6.475   6.146 -11.386  0.00  0.00    +0.089 C 
BRANCH  23  25
ATOM     24  C   UNL     1       6.477   8.250 -11.361  0.00  0.00    +0.002 C 
ATOM     25  C   UNL     1       6.798   7.611 -11.170  0.00  0.00    +0.019 C 
ENDBRANCH  23  25
ENDBRANCH  22  23
ENDBRANCH  21  22
ENDBRANCH  19  21
ENDBRANCH  18  19
ENDBRANCH  17  18
ENDBRANCH   1  17
TORSDOF 11
ENDMDL
MODEL 5
REMARK VINA RESULT:      -7.1      2.118      5.983
REMARK  Name = 
REMARK  11 active torsions:
REMARK  status: ('A' for Active; 'I' for Inactive)
REMARK    1  A    between atoms: C_2  and  C_3
REMARK    2  A    between atoms: C_3  and  N_4
REMARK    3  A    between atoms: N_4  and  C_5
REMARK    4  A    between atoms: C_5  and  C_6
REMARK    5  A    between atoms: C_6  and  C_8
REMARK    6  A    between atoms: C_8  and  O_9
REMARK    7  A    between atoms: O_9  and  C_10
REMARK    8  A    between atoms: C_15  and  C_16
REMARK    9  A    between atoms: C_16  and  C_18
REMARK   10  A    between atoms: C_18  and  C_19
REMARK   11  A    between atoms: C_19  and  C_20
REMARK                            x       y       z     vdW  Elec       q    Type
REMARK                         _______ _______ _______ _____ _____    ______ ____
ROOT
ATOM      1  C   UNL     1       2.161   5.764 -10.651  0.00  0.00    +0.141 A 
ATOM      2  C   UNL     1       1.421   4.888  -9.881  0.00  0.00    +0.069 A 
ATOM      3  C   UNL     1       0.176   4.548 -10.348  0.00  0.00    +0.006 A 
ATOM      4  C   UNL     1      -0.377   5.189 -11.451  0.00  0.00    +0.000 A 
ATOM      5  C   UNL     1       0.228   6.362 -11.874  0.00  0.00    +0.003 A 
ATOM      6  C   UNL     1       1.579   6.551 -11.639  0.00  0.00    +0.037 A 
ENDROOT
BRANCH   2   7
ATOM      7  C   UNL     1       1.963   4.481  -8.601  0.00  0.00    +0.176 C 
ATOM      8  O   UNL     1       2.827   3.553  -8.546  0.00  0.00    -0.291 OA
BRANCH   7   9
ATOM      9  C   UNL     1       1.829   5.295  -7.357  0.00  0.00    +0.074 C 
BRANCH   9  10
ATOM     10  C   UNL     1       1.098   4.557  -6.271  0.00  0.00    +0.034 C 
BRANCH  10  11
ATOM     11  C   UNL     1      -0.112   5.348  -5.922  0.00  0.00    -0.022 A 
ATOM     12  C   UNL     1      -0.025   6.604  -5.336  0.00  0.00    -0.004 A 
ATOM     13  C   UNL     1      -1.205   7.108  -4.809  0.00  0.00    -0.000 A 
ATOM     14  C   UNL     1      -2.365   6.945  -5.556  0.00  0.00    -0.000 A 
ATOM     15  C   UNL     1      -2.398   5.841  -6.396  0.00  0.00    -0.000 A 
ATOM     16  C   UNL     1      -1.251   5.121  -6.686  0.00  0.00    -0.004 A 
ENDBRANCH  10  11
ENDBRANCH   9  10
ENDBRANCH   7   9
ENDBRANCH   2   7
BRANCH   1  17
ATOM     17  O   UNL     1       3.543   5.765 -10.441  0.00  0.00    -0.473 OA
BRANCH  17  18
ATOM     18  C   UNL     1       4.254   6.981 -10.353  0.00  0.00    +0.240 C 
BRANCH  18  19
ATOM     19  C   UNL     1       5.834   6.512 -10.688  0.00  0.00    +0.213 C 
ATOM     20  O   UNL     1       6.223   7.964 -11.052  0.00  0.00    -0.218 OA
BRANCH  19  21
ATOM     21  C   UNL     1       5.436   6.183 -12.288  0.00  0.00    +0.125 C 
BRANCH  21  22
ATOM     22  N   UNL     1       6.295   5.030 -12.541  0.00  0.00    -0.215 NA
BRANCH  22  23
ATOM     23  C   UNL     1       7.455   5.494 -13.289  0.00  0.00    +0.089 C 
BRANCH  23  25
ATOM     24  C   UNL     1       9.215   6.027 -12.269  0.00  0.00    +0.002 C 
ATOM     25  C   UNL     1       8.654   5.555 -12.364  0.00  0.00    +0.019 C 
ENDBRANCH  23  25
ENDBRANCH  22  23
ENDBRANCH  21  22
ENDBRANCH  19  21
ENDBRANCH  18  19
ENDBRANCH  17  18
ENDBRANCH   1  17
TORSDOF 11
ENDMDL
MODEL 6
REMARK VINA RESULT:      -7.1      2.343      4.098
REMARK  Name = 
REMARK  11 active torsions:
REMARK  status: ('A' for Active; 'I' for Inactive)
REMARK    1  A    between atoms: C_2  and  C_3
REMARK    2  A    between atoms: C_3  and  N_4
REMARK    3  A    between atoms: N_4  and  C_5
REMARK    4  A    between atoms: C_5  and  C_6
REMARK    5  A    between atoms: C_6  and  C_8
REMARK    6  A    between atoms: C_8  and  O_9
REMARK    7  A    between atoms: O_9  and  C_10
REMARK    8  A    between atoms: C_15  and  C_16
REMARK    9  A    between atoms: C_16  and  C_18
REMARK   10  A    between atoms: C_18  and  C_19
REMARK   11  A    between atoms: C_19  and  C_20
REMARK                            x       y       z     vdW  Elec       q    Type
REMARK                         _______ _______ _______ _____ _____    ______ ____
ROOT
ATOM      1  C   UNL     1       0.368   5.667  -7.560  0.00  0.00    +0.141 A 
ATOM      2  C   UNL     1       1.057   6.526  -6.726  0.00  0.00    +0.069 A 
ATOM      3  C   UNL     1       0.538   6.725  -5.471  0.00  0.00    +0.006 A 
ATOM      4  C   UNL     1      -0.710   6.222  -5.123  0.00  0.00    +0.000 A 
ATOM      5  C   UNL     1      -1.527   5.777  -6.150  0.00  0.00    +0.003 A 
ATOM      6  C   UNL     1      -0.951   5.302  -7.316  0.00  0.00    +0.037 A 
ENDROOT
BRANCH   2   7
ATOM      7  C   UNL     1       2.203   7.227  -7.267  0.00  0.00    +0.176 C 
ATOM      8  O   UNL     1       2.042   8.326  -7.880  0.00  0.00    -0.291 OA
BRANCH   7   9
ATOM      9  C   UNL     1       3.611   6.922  -6.876  0.00  0.00    +0.074 C 
BRANCH   9  10
ATOM     10  C   UNL     1       3.718   5.653  -6.079  0.00  0.00    +0.034 C 
BRANCH  10  11
ATOM     11  C   UNL     1       4.113   6.021  -4.693  0.00  0.00    -0.022 A 
ATOM     12  C   UNL     1       4.378   7.335  -4.330  0.00  0.00    -0.004 A 
ATOM     13  C   UNL     1       5.001   7.509  -3.102  0.00  0.00    -0.000 A 
ATOM     14  C   UNL     1       4.551   6.738  -2.037  0.00  0.00    -0.000 A 
ATOM     15  C   UNL     1       4.000   5.508  -2.365  0.00  0.00    -0.000 A 
ATOM     16  C   UNL     1       3.658   5.197  -3.671  0.00  0.00    -0.004 A 
ENDBRANCH  10  11
ENDBRANCH   9  10
ENDBRANCH   7   9
ENDBRANCH   2   7
BRANCH   1  17
ATOM     17  O   UNL     1       1.089   5.118  -8.624  0.00  0.00    -0.473 OA
BRANCH  17  18
ATOM     18  C   UNL     1       0.518   5.037  -9.912  0.00  0.00    +0.240 C 
BRANCH  18  19
ATOM     19  C   UNL     1       1.403   6.170 -10.783  0.00  0.00    +0.213 C 
ATOM     20  O   UNL     1       1.326   5.299 -12.059  0.00  0.00    -0.218 OA
BRANCH  19  21
ATOM     21  C   UNL     1       2.850   5.440 -10.334  0.00  0.00    +0.125 C 
BRANCH  21  22
ATOM     22  N   UNL     1       3.785   6.158 -11.195  0.00  0.00    -0.215 NA
BRANCH  22  23
ATOM     23  C   UNL     1       4.777   6.797 -10.341  0.00  0.00    +0.089 C 
BRANCH  23  25
ATOM     24  C   UNL     1       6.359   5.763  -9.417  0.00  0.00    +0.002 C 
ATOM     25  C   UNL     1       5.762   5.753  -9.854  0.00  0.00    +0.019 C 
ENDBRANCH  23  25
ENDBRANCH  22  23
ENDBRANCH  21  22
ENDBRANCH  19  21
ENDBRANCH  18  19
ENDBRANCH  17  18
ENDBRANCH   1  17
TORSDOF 11
ENDMDL
MODEL 7
REMARK VINA RESULT:      -7.1      2.260      6.350
REMARK  Name = 
REMARK  11 active torsions:
REMARK  status: ('A' for Active; 'I' for Inactive)
REMARK    1  A    between atoms: C_2  and  C_3
REMARK    2  A    between atoms: C_3  and  N_4
REMARK    3  A    between atoms: N_4  and  C_5
REMARK    4  A    between atoms: C_5  and  C_6
REMARK    5  A    between atoms: C_6  and  C_8
REMARK    6  A    between atoms: C_8  and  O_9
REMARK    7  A    between atoms: O_9  and  C_10
REMARK    8  A    between atoms: C_15  and  C_16
REMARK    9  A    between atoms: C_16  and  C_18
REMARK   10  A    between atoms: C_18  and  C_19
REMARK   11  A    between atoms: C_19  and  C_20
REMARK                            x       y       z     vdW  Elec       q    Type
REMARK                         _______ _______ _______ _____ _____    ______ ____
ROOT
ATOM      1  C   UNL     1       4.108   5.430  -8.459  0.00  0.00    +0.141 A 
ATOM      2  C   UNL     1       3.267   5.890  -9.454  0.00  0.00    +0.069 A 
ATOM      3  C   UNL     1       3.787   5.970 -10.722  0.00  0.00    +0.006 A 
ATOM      4  C   UNL     1       5.142   5.763 -10.956  0.00  0.00    +0.000 A 
ATOM      5  C   UNL     1       5.985   5.767  -9.857  0.00  0.00    +0.003 A 
ATOM      6  C   UNL     1       5.488   5.393  -8.619  0.00  0.00    +0.037 A 
ENDROOT
BRANCH   2   7
ATOM      7  C   UNL     1       1.947   6.348  -9.071  0.00  0.00    +0.176 C 
ATOM      8  O   UNL     1       1.786   7.533  -8.650  0.00  0.00    -0.291 OA
BRANCH   7   9
ATOM      9  C   UNL     1       0.691   5.634  -9.444  0.00  0.00    +0.074 C 
BRANCH   9  10
ATOM     10  C   UNL     1      -0.199   6.467 -10.323  0.00  0.00    +0.034 C 
BRANCH  10  11
ATOM     11  C   UNL     1       0.138   6.152 -11.737  0.00  0.00    -0.022 A 
ATOM     12  C   UNL     1       0.745   7.082 -12.572  0.00  0.00    -0.004 A 
ATOM     13  C   UNL     1       0.749   6.768 -13.923  0.00  0.00    -0.000 A 
ATOM     14  C   UNL     1       1.040   5.457 -14.279  0.00  0.00    -0.000 A 
ATOM     15  C   UNL     1       0.714   4.485 -13.344  0.00  0.00    -0.000 A 
ATOM     16  C   UNL     1       0.392   4.820 -12.039  0.00  0.00    -0.004 A 
ENDBRANCH  10  11
ENDBRANCH   9  10
ENDBRANCH   7   9
ENDBRANCH   2   7
BRANCH   1  17
ATOM     17  O   UNL     1       3.496   4.928  -7.307  0.00  0.00    -0.473 OA
BRANCH  17  18
ATOM     18  C   UNL     1       3.913   5.356  -6.029  0.00  0.00    +0.240 C 
BRANCH  18  19
ATOM     19  C   UNL     1       2.703   4.761  -5.025  0.00  0.00    +0.213 C 
ATOM     20  O   UNL     1       2.123   3.905  -6.176  0.00  0.00    -0.218 OA
BRANCH  19  21
ATOM     21  C   UNL     1       1.690   6.043  -5.425  0.00  0.00    +0.125 C 
BRANCH  21  22
ATOM     22  N   UNL     1       0.392   5.377  -5.372  0.00  0.00    -0.215 NA
BRANCH  22  23
ATOM     23  C   UNL     1      -0.632   6.375  -5.650  0.00  0.00    +0.089 C 
BRANCH  23  25
ATOM     24  C   UNL     1      -2.360   5.407  -6.359  0.00  0.00    +0.002 C 
ATOM     25  C   UNL     1      -1.721   5.751  -6.500  0.00  0.00    +0.019 C 
ENDBRANCH  23  25
ENDBRANCH  22  23
ENDBRANCH  21  22
ENDBRANCH  19  21
ENDBRANCH  18  19
ENDBRANCH  17  18
ENDBRANCH   1  17
TORSDOF 11
ENDMDL
MODEL 8
REMARK VINA RESULT:      -7.0      3.374      6.384
REMARK  Name = 
REMARK  11 active torsions:
REMARK  status: ('A' for Active; 'I' for Inactive)
REMARK    1  A    between atoms: C_2  and  C_3
REMARK    2  A    between atoms: C_3  and  N_4
REMARK    3  A    between atoms: N_4  and  C_5
REMARK    4  A    between atoms: C_5  and  C_6
REMARK    5  A    between atoms: C_6  and  C_8
REMARK    6  A    between atoms: C_8  and  O_9
REMARK    7  A    between atoms: O_9  and  C_10
REMARK    8  A    between atoms: C_15  and  C_16
REMARK    9  A    between atoms: C_16  and  C_18
REMARK   10  A    between atoms: C_18  and  C_19
REMARK   11  A    between atoms: C_19  and  C_20
REMARK                            x       y       z     vdW  Elec       q    Type
REMARK                         _______ _______ _______ _____ _____    ______ ____
ROOT
ATOM      1  C   UNL     1       2.662   6.971  -4.194  0.00  0.00    +0.141 A 
ATOM      2  C   UNL     1       3.443   6.847  -5.327  0.00  0.00    +0.069 A 
ATOM      3  C   UNL     1       4.804   6.824  -5.145  0.00  0.00    +0.006 A 
ATOM      4  C   UNL     1       5.366   7.087  -3.902  0.00  0.00    +0.000 A 
ATOM      5  C   UNL     1       4.546   7.654  -2.939  0.00  0.00    +0.003 A 
ATOM      6  C   UNL     1       3.183   7.414  -2.984  0.00  0.00    +0.037 A 
ENDROOT
BRANCH   2   7
ATOM      7  C   UNL     1       2.781   6.857  -6.615  0.00  0.00    +0.176 C 
ATOM      8  O   UNL     1       2.307   7.940  -7.075  0.00  0.00    -0.291 OA
BRANCH   7   9
ATOM      9  C   UNL     1       2.898   5.747  -7.606  0.00  0.00    +0.074 C 
BRANCH   9  10
ATOM     10  C   UNL     1       3.141   6.253  -9.000  0.00  0.00    +0.034 C 
BRANCH  10  11
ATOM     11  C   UNL     1       1.975   5.859  -9.835  0.00  0.00    -0.022 A 
ATOM     12  C   UNL     1       1.445   4.575  -9.796  0.00  0.00    -0.004 A 
ATOM     13  C   UNL     1       0.555   4.259 -10.812  0.00  0.00    -0.000 A 
ATOM     14  C   UNL     1      -0.387   5.218 -11.164  0.00  0.00    -0.000 A 
ATOM     15  C   UNL     1      -0.020   6.539 -10.952  0.00  0.00    -0.000 A 
ATOM     16  C   UNL     1       1.082   6.865 -10.180  0.00  0.00    -0.004 A 
ENDBRANCH  10  11
ENDBRANCH   9  10
ENDBRANCH   7   9
ENDBRANCH   2   7
BRANCH   1  17
ATOM     17  O   UNL     1       1.332   6.554  -4.304  0.00  0.00    -0.473 OA
BRANCH  17  18
ATOM     18  C   UNL     1       0.842   5.501  -3.503  0.00  0.00    +0.240 C 
BRANCH  18  19
ATOM     19  C   UNL     1      -0.345   6.257  -2.583  0.00  0.00    +0.213 C 
ATOM     20  O   UNL     1      -1.228   4.987  -2.618  0.00  0.00    -0.218 OA
BRANCH  19  21
ATOM     21  C   UNL     1      -1.090   6.853  -3.967  0.00  0.00    +0.125 C 
BRANCH  21  22
ATOM     22  N   UNL     1      -1.846   5.676  -4.386  0.00  0.00    -0.215 NA
BRANCH  22  23
ATOM     23  C   UNL     1      -2.249   5.875  -5.771  0.00  0.00    +0.089 C 
BRANCH  23  25
ATOM     24  C   UNL     1      -0.837   5.455  -7.273  0.00  0.00    +0.002 C 
ATOM     25  C   UNL     1      -1.227   5.231  -6.686  0.00  0.00    +0.019 C 
ENDBRANCH  23  25
ENDBRANCH  22  23
ENDBRANCH  21  22
ENDBRANCH  19  21
ENDBRANCH  18  19
ENDBRANCH  17  18
ENDBRANCH   1  17
TORSDOF 11
ENDMDL
MODEL 9
REMARK VINA RESULT:      -7.0      2.002      5.947
REMARK  Name = 
REMARK  11 active torsions:
REMARK  status: ('A' for Active; 'I' for Inactive)
REMARK    1  A    between atoms: C_2  and  C_3
REMARK    2  A    between atoms: C_3  and  N_4
REMARK    3  A    between atoms: N_4  and  C_5
REMARK    4  A    between atoms: C_5  and  C_6
REMARK    5  A    between atoms: C_6  and  C_8
REMARK    6  A    between atoms: C_8  and  O_9
REMARK    7  A    between atoms: O_9  and  C_10
REMARK    8  A    between atoms: C_15  and  C_16
REMARK    9  A    between atoms: C_16  and  C_18
REMARK   10  A    between atoms: C_18  and  C_19
REMARK   11  A    between atoms: C_19  and  C_20
REMARK                            x       y       z     vdW  Elec       q    Type
REMARK                         _______ _______ _______ _____ _____    ______ ____
ROOT
ATOM      1  C   UNL     1       2.491   6.337 -10.508  0.00  0.00    +0.141 A 
ATOM      2  C   UNL     1       1.605   6.638  -9.491  0.00  0.00    +0.069 A 
ATOM      3  C   UNL     1       0.268   6.579  -9.793  0.00  0.00    +0.006 A 
ATOM      4  C   UNL     1      -0.165   6.396 -11.102  0.00  0.00    +0.000 A 
ATOM      5  C   UNL     1       0.769   6.568 -12.111  0.00  0.00    +0.003 A 
ATOM      6  C   UNL     1       2.107   6.333 -11.843  0.00  0.00    +0.037 A 
ENDROOT
BRANCH   2   7
ATOM      7  C   UNL     1       2.148   7.090  -8.227  0.00  0.00    +0.176 C 
ATOM      8  O   UNL     1       2.229   8.332  -7.980  0.00  0.00    -0.291 OA
BRANCH   7   9
ATOM      9  C   UNL     1       2.322   6.199  -7.042  0.00  0.00    +0.074 C 
BRANCH   9  10
ATOM     10  C   UNL     1       1.663   6.754  -5.811  0.00  0.00    +0.034 C 
BRANCH  10  11
ATOM     11  C   UNL     1       0.201   6.507  -5.929  0.00  0.00    -0.022 A 
ATOM     12  C   UNL     1      -0.305   5.289  -6.365  0.00  0.00    -0.004 A 
ATOM     13  C   UNL     1      -1.652   5.278  -6.697  0.00  0.00    -0.000 A 
ATOM     14  C   UNL     1      -2.528   5.952  -5.855  0.00  0.00    -0.000 A 
ATOM     15  C   UNL     1      -1.996   7.026  -5.156  0.00  0.00    -0.000 A 
ATOM     16  C   UNL     1      -0.628   7.230  -5.081  0.00  0.00    -0.004 A 
ENDBRANCH  10  11
ENDBRANCH   9  10
ENDBRANCH   7   9
ENDBRANCH   2   7
BRANCH   1  17
ATOM     17  O   UNL     1       3.781   5.960 -10.121  0.00  0.00    -0.473 OA
BRANCH  17  18
ATOM     18  C   UNL     1       4.908   6.661 -10.601  0.00  0.00    +0.240 C 
BRANCH  18  19
ATOM     19  C   UNL     1       6.151   5.548 -10.396  0.00  0.00    +0.213 C 
ATOM     20  O   UNL     1       6.054   5.673  -8.857  0.00  0.00    -0.218 OA
BRANCH  19  21
ATOM     21  C   UNL     1       7.304   6.771 -10.454  0.00  0.00    +0.125 C 
BRANCH  21  22
ATOM     22  N   UNL     1       7.320   7.049 -11.887  0.00  0.00    -0.215 NA
BRANCH  22  23
ATOM     23  C   UNL     1       8.096   6.001 -12.535  0.00  0.00    +0.089 C 
BRANCH  23  25
ATOM     24  C   UNL     1       6.891   5.829 -14.251  0.00  0.00    +0.002 C 
ATOM     25  C   UNL     1       7.355   5.518 -13.766  0.00  0.00    +0.019 C 
ENDBRANCH  23  25
ENDBRANCH  22  23
ENDBRANCH  21  22
ENDBRANCH  19  21
ENDBRANCH  18  19
ENDBRANCH  17  18
ENDBRANCH   1  17
TORSDOF 11
ENDMDL
