MODEL 1
REMARK VINA RESULT:      -5.7      0.000      0.000
REMARK  Name = 
REMARK  3 active torsions:
REMARK  status: ('A' for Active; 'I' for Inactive)
REMARK    1  A    between atoms: C_3  and  C_4
REMARK    2  A    between atoms: N_6  and  C_7
REMARK    3  A    between atoms: N_6  and  C_9
REMARK                            x       y       z     vdW  Elec       q    Type
REMARK                         _______ _______ _______ _____ _____    ______ ____
ROOT
ATOM      1  C   UNL     1       1.800   4.695  -9.124  0.00  0.00    +0.253 C 
ATOM      2  N   UNL     1       1.098   5.417  -8.103  0.00  0.00    -0.255 N 
ATOM      3  O   UNL     1       1.138   4.174 -10.073  0.00  0.00    -0.270 OA
ENDROOT
BRANCH   2   4
ATOM      4  C   UNL     1       1.683   5.624  -6.810  0.00  0.00    +0.050 A 
ATOM      5  C   UNL     1       2.358   6.828  -6.648  0.00  0.00    -0.008 A 
ATOM      6  C   UNL     1       2.143   7.937  -7.629  0.00  0.00    +0.032 C 
ATOM      7  C   UNL     1       3.418   6.960  -5.758  0.00  0.00    -0.003 A 
ATOM      8  C   UNL     1       4.086   5.809  -5.352  0.00  0.00    -0.000 A 
ATOM      9  C   UNL     1       3.264   4.697  -5.213  0.00  0.00    +0.001 A 
ATOM     10  C   UNL     1       2.220   4.547  -6.117  0.00  0.00    +0.015 A 
ENDBRANCH   2   4
BRANCH   1  13
ATOM     11  C   UNL     1       5.350   5.134  -8.425  0.00  0.00    +0.031 C 
ATOM     12  C   UNL     1       4.248   4.531  -9.242  0.00  0.00    -0.021 C 
ATOM     13  C   UNL     1       3.134   5.165  -9.531  0.00  0.00    +0.054 C 
ENDBRANCH   1  13
BRANCH   2  14
ATOM     14  C   UNL     1      -0.364   5.392  -8.108  0.00  0.00    +0.099 C 
ATOM     15  C   UNL     1      -0.935   5.462  -6.723  0.00  0.00    +0.024 C 
ENDBRANCH   2  14
TORSDOF 3
ENDMDL
MODEL 2
REMARK VINA RESULT:      -5.6      2.645      4.498
REMARK  Name = 
REMARK  3 active torsions:
REMARK  status: ('A' for Active; 'I' for Inactive)
REMARK    1  A    between atoms: C_3  and  C_4
REMARK    2  A    between atoms: N_6  and  C_7
REMARK    3  A    between atoms: N_6  and  C_9
REMARK                            x       y       z     vdW  Elec       q    Type
REMARK                         _______ _______ _______ _____ _____    ______ ____
ROOT
ATOM      1  C   UNL     1       3.164   7.053  -5.604  0.00  0.00    +0.253 C 
ATOM      2  N   UNL     1       2.537   6.090  -4.746  0.00  0.00    -0.255 N 
ATOM      3  O   UNL     1       4.209   7.649  -5.198  0.00  0.00    -0.270 OA
ENDROOT
BRANCH   2   4
ATOM      4  C   UNL     1       1.158   5.735  -4.920  0.00  0.00    +0.050 A 
ATOM      5  C   UNL     1       0.921   4.681  -5.794  0.00  0.00    -0.008 A 
ATOM      6  C   UNL     1       2.049   3.783  -6.197  0.00  0.00    +0.032 C 
ATOM      7  C   UNL     1      -0.266   4.575  -6.511  0.00  0.00    -0.003 A 
ATOM      8  C   UNL     1      -1.031   5.722  -6.694  0.00  0.00    -0.000 A 
ATOM      9  C   UNL     1      -1.007   6.597  -5.612  0.00  0.00    +0.001 A 
ATOM     10  C   UNL     1       0.185   6.725  -4.911  0.00  0.00    +0.015 A 
ENDBRANCH   2   4
BRANCH   1  13
ATOM     11  C   UNL     1       1.387   6.983  -8.785  0.00  0.00    +0.031 C 
ATOM     12  C   UNL     1       2.462   7.544  -7.906  0.00  0.00    -0.021 C 
ATOM     13  C   UNL     1       3.153   6.818  -7.057  0.00  0.00    +0.054 C 
ENDBRANCH   1  13
BRANCH   2  14
ATOM     14  C   UNL     1       3.030   5.946  -3.378  0.00  0.00    +0.099 C 
ATOM     15  C   UNL     1       4.081   4.880  -3.266  0.00  0.00    +0.024 C 
ENDBRANCH   2  14
TORSDOF 3
ENDMDL
MODEL 3
REMARK VINA RESULT:      -5.6      1.907      4.522
REMARK  Name = 
REMARK  3 active torsions:
REMARK  status: ('A' for Active; 'I' for Inactive)
REMARK    1  A    between atoms: C_3  and  C_4
REMARK    2  A    between atoms: N_6  and  C_7
REMARK    3  A    between atoms: N_6  and  C_9
REMARK                            x       y       z     vdW  Elec       q    Type
REMARK                         _______ _______ _______ _____ _____    ______ ____
ROOT
ATOM      1  C   UNL     1       2.433   4.857  -6.173  0.00  0.00    +0.253 C 
ATOM      2  N   UNL     1       3.177   5.423  -7.261  0.00  0.00    -0.255 N 
ATOM      3  O   UNL     1       3.061   4.427  -5.157  0.00  0.00    -0.270 OA
ENDROOT
BRANCH   2   4
ATOM      4  C   UNL     1       2.617   5.496  -8.579  0.00  0.00    +0.050 A 
ATOM      5  C   UNL     1       2.000   6.700  -8.898  0.00  0.00    -0.008 A 
ATOM      6  C   UNL     1       2.256   7.910  -8.055  0.00  0.00    +0.032 C 
ATOM      7  C   UNL     1       0.958   6.770  -9.815  0.00  0.00    -0.003 A 
ATOM      8  C   UNL     1       0.242   5.609 -10.090  0.00  0.00    -0.000 A 
ATOM      9  C   UNL     1       1.013   4.452 -10.079  0.00  0.00    +0.001 A 
ATOM     10  C   UNL     1       2.038   4.368  -9.145  0.00  0.00    +0.015 A 
ENDBRANCH   2   4
BRANCH   1  13
ATOM     11  C   UNL     1      -1.098   5.307  -6.955  0.00  0.00    +0.031 C 
ATOM     12  C   UNL     1      -0.020   4.793  -6.051  0.00  0.00    -0.021 C 
ATOM     13  C   UNL     1       1.115   5.424  -5.848  0.00  0.00    +0.054 C 
ENDBRANCH   1  13
BRANCH   2  14
ATOM     14  C   UNL     1       4.636   5.341  -7.228  0.00  0.00    +0.099 C 
ATOM     15  C   UNL     1       5.233   5.329  -8.604  0.00  0.00    +0.024 C 
ENDBRANCH   2  14
TORSDOF 3
ENDMDL
MODEL 4
REMARK VINA RESULT:      -5.5      2.483      4.118
REMARK  Name = 
REMARK  3 active torsions:
REMARK  status: ('A' for Active; 'I' for Inactive)
REMARK    1  A    between atoms: C_3  and  C_4
REMARK    2  A    between atoms: N_6  and  C_7
REMARK    3  A    between atoms: N_6  and  C_9
REMARK                            x       y       z     vdW  Elec       q    Type
REMARK                         _______ _______ _______ _____ _____    ______ ____
ROOT
ATOM      1  C   UNL     1       1.130   6.427  -4.195  0.00  0.00    +0.253 C 
ATOM      2  N   UNL     1       0.609   5.766  -5.356  0.00  0.00    -0.255 N 
ATOM      3  O   UNL     1       0.389   6.544  -3.171  0.00  0.00    -0.270 OA
ENDROOT
BRANCH   2   4
ATOM      4  C   UNL     1       1.178   5.995  -6.653  0.00  0.00    +0.050 A 
ATOM      5  C   UNL     1       2.048   5.009  -7.103  0.00  0.00    -0.008 A 
ATOM      6  C   UNL     1       2.062   3.670  -6.434  0.00  0.00    +0.032 C 
ATOM      7  C   UNL     1       3.084   5.292  -7.985  0.00  0.00    -0.003 A 
ATOM      8  C   UNL     1       3.528   6.607  -8.083  0.00  0.00    -0.000 A 
ATOM      9  C   UNL     1       2.519   7.555  -7.948  0.00  0.00    +0.001 A 
ATOM     10  C   UNL     1       1.496   7.287  -7.048  0.00  0.00    +0.015 A 
ENDBRANCH   2   4
BRANCH   1  13
ATOM     11  C   UNL     1       4.611   7.415  -4.632  0.00  0.00    +0.031 C 
ATOM     12  C   UNL     1       3.399   7.265  -3.765  0.00  0.00    -0.021 C 
ATOM     13  C   UNL     1       2.555   6.263  -3.869  0.00  0.00    +0.054 C 
ENDBRANCH   1  13
BRANCH   2  14
ATOM     14  C   UNL     1      -0.804   5.393  -5.374  0.00  0.00    +0.099 C 
ATOM     15  C   UNL     1      -1.367   5.377  -6.764  0.00  0.00    +0.024 C 
ENDBRANCH   2  14
TORSDOF 3
ENDMDL
MODEL 5
REMARK VINA RESULT:      -5.5      3.520      5.316
REMARK  Name = 
REMARK  3 active torsions:
REMARK  status: ('A' for Active; 'I' for Inactive)
REMARK    1  A    between atoms: C_3  and  C_4
REMARK    2  A    between atoms: N_6  and  C_7
REMARK    3  A    between atoms: N_6  and  C_9
REMARK                            x       y       z     vdW  Elec       q    Type
REMARK                         _______ _______ _______ _____ _____    ______ ____
ROOT
ATOM      1  C   UNL     1       1.090   5.324  -2.970  0.00  0.00    +0.253 C 
ATOM      2  N   UNL     1       2.407   5.506  -2.431  0.00  0.00    -0.255 N 
ATOM      3  O   UNL     1       0.201   4.779  -2.246  0.00  0.00    -0.270 OA
ENDROOT
BRANCH   2   4
ATOM      4  C   UNL     1       3.540   5.671  -3.294  0.00  0.00    +0.050 A 
ATOM      5  C   UNL     1       4.015   6.972  -3.411  0.00  0.00    -0.008 A 
ATOM      6  C   UNL     1       3.593   8.007  -2.416  0.00  0.00    +0.032 C 
ATOM      7  C   UNL     1       4.663   7.416  -4.558  0.00  0.00    -0.003 A 
ATOM      8  C   UNL     1       4.462   6.717  -5.743  0.00  0.00    -0.000 A 
ATOM      9  C   UNL     1       4.324   5.343  -5.572  0.00  0.00    +0.001 A 
ATOM     10  C   UNL     1       3.652   4.897  -4.441  0.00  0.00    +0.015 A 
ENDBRANCH   2   4
BRANCH   1  13
ATOM     11  C   UNL     1       0.909   6.814  -6.291  0.00  0.00    +0.031 C 
ATOM     12  C   UNL     1       0.255   6.108  -5.143  0.00  0.00    -0.021 C 
ATOM     13  C   UNL     1       0.554   6.344  -3.885  0.00  0.00    +0.054 C 
ENDBRANCH   1  13
BRANCH   2  14
ATOM     14  C   UNL     1       2.718   4.916  -1.130  0.00  0.00    +0.099 C 
ATOM     15  C   UNL     1       4.125   4.399  -1.067  0.00  0.00    +0.024 C 
ENDBRANCH   2  14
TORSDOF 3
ENDMDL
MODEL 6
REMARK VINA RESULT:      -5.5      1.832      3.116
REMARK  Name = 
REMARK  3 active torsions:
REMARK  status: ('A' for Active; 'I' for Inactive)
REMARK    1  A    between atoms: C_3  and  C_4
REMARK    2  A    between atoms: N_6  and  C_7
REMARK    3  A    between atoms: N_6  and  C_9
REMARK                            x       y       z     vdW  Elec       q    Type
REMARK                         _______ _______ _______ _____ _____    ______ ____
ROOT
ATOM      1  C   UNL     1      -0.125   5.211  -7.881  0.00  0.00    +0.253 C 
ATOM      2  N   UNL     1       0.977   5.597  -7.048  0.00  0.00    -0.255 N 
ATOM      3  O   UNL     1      -1.263   5.029  -7.349  0.00  0.00    -0.270 OA
ENDROOT
BRANCH   2   4
ATOM      4  C   UNL     1       2.331   5.374  -7.465  0.00  0.00    +0.050 A 
ATOM      5  C   UNL     1       2.956   6.463  -8.062  0.00  0.00    -0.008 A 
ATOM      6  C   UNL     1       2.365   7.830  -7.915  0.00  0.00    +0.032 C 
ATOM      7  C   UNL     1       3.968   6.303  -9.001  0.00  0.00    -0.003 A 
ATOM      8  C   UNL     1       4.064   5.085  -9.667  0.00  0.00    -0.000 A 
ATOM      9  C   UNL     1       3.732   3.985  -8.884  0.00  0.00    +0.001 A 
ATOM     10  C   UNL     1       2.703   4.133  -7.963  0.00  0.00    +0.015 A 
ENDBRANCH   2   4
BRANCH   1  13
ATOM     11  C   UNL     1       0.998   5.204 -11.348  0.00  0.00    +0.031 C 
ATOM     12  C   UNL     1      -0.082   5.008 -10.328  0.00  0.00    -0.021 C 
ATOM     13  C   UNL     1      -0.199   5.748  -9.248  0.00  0.00    +0.054 C 
ENDBRANCH   1  13
BRANCH   2  14
ATOM     14  C   UNL     1       0.786   5.614  -5.599  0.00  0.00    +0.099 C 
ATOM     15  C   UNL     1       0.264   6.935  -5.113  0.00  0.00    +0.024 C 
ENDBRANCH   2  14
TORSDOF 3
ENDMDL
MODEL 7
REMARK VINA RESULT:      -5.3      1.905      4.046
REMARK  Name = 
REMARK  3 active torsions:
REMARK  status: ('A' for Active; 'I' for Inactive)
REMARK    1  A    between atoms: C_3  and  C_4
REMARK    2  A    between atoms: N_6  and  C_7
REMARK    3  A    between atoms: N_6  and  C_9
REMARK                            x       y       z     vdW  Elec       q    Type
REMARK                         _______ _______ _______ _____ _____    ______ ____
ROOT
ATOM      1  C   UNL     1       1.804   6.041 -10.946  0.00  0.00    +0.253 C 
ATOM      2  N   UNL     1       3.155   6.116 -10.470  0.00  0.00    -0.255 N 
ATOM      3  O   UNL     1       1.587   6.123 -12.194  0.00  0.00    -0.270 OA
ENDROOT
BRANCH   2   4
ATOM      4  C   UNL     1       3.441   6.490  -9.116  0.00  0.00    +0.050 A 
ATOM      5  C   UNL     1       3.790   5.443  -8.270  0.00  0.00    -0.008 A 
ATOM      6  C   UNL     1       4.189   4.123  -8.851  0.00  0.00    +0.032 C 
ATOM      7  C   UNL     1       3.540   5.490  -6.903  0.00  0.00    -0.003 A 
ATOM      8  C   UNL     1       2.567   6.369  -6.440  0.00  0.00    -0.000 A 
ATOM      9  C   UNL     1       2.501   7.564  -7.148  0.00  0.00    +0.001 A 
ATOM     10  C   UNL     1       2.723   7.516  -8.518  0.00  0.00    +0.015 A 
ENDBRANCH   2   4
BRANCH   1  13
ATOM     11  C   UNL     1      -0.357   5.354  -8.093  0.00  0.00    +0.031 C 
ATOM     12  C   UNL     1      -0.175   5.603  -9.559  0.00  0.00    -0.021 C 
ATOM     13  C   UNL     1       0.856   5.162 -10.245  0.00  0.00    +0.054 C 
ENDBRANCH   1  13
BRANCH   2  14
ATOM     14  C   UNL     1       4.215   6.439 -11.423  0.00  0.00    +0.099 C 
ATOM     15  C   UNL     1       5.231   7.379 -10.841  0.00  0.00    +0.024 C 
ENDBRANCH   2  14
TORSDOF 3
ENDMDL
MODEL 8
REMARK VINA RESULT:      -5.3      1.985      4.313
REMARK  Name = 
REMARK  3 active torsions:
REMARK  status: ('A' for Active; 'I' for Inactive)
REMARK    1  A    between atoms: C_3  and  C_4
REMARK    2  A    between atoms: N_6  and  C_7
REMARK    3  A    between atoms: N_6  and  C_9
REMARK                            x       y       z     vdW  Elec       q    Type
REMARK                         _______ _______ _______ _____ _____    ______ ____
ROOT
ATOM      1  C   UNL     1       1.642   5.131  -5.537  0.00  0.00    +0.253 C 
ATOM      2  N   UNL     1       2.582   6.123  -5.973  0.00  0.00    -0.255 N 
ATOM      3  O   UNL     1       1.344   5.066  -4.305  0.00  0.00    -0.270 OA
ENDROOT
BRANCH   2   4
ATOM      4  C   UNL     1       3.299   5.970  -7.205  0.00  0.00    +0.050 A 
ATOM      5  C   UNL     1       2.913   6.826  -8.229  0.00  0.00    -0.008 A 
ATOM      6  C   UNL     1       2.087   8.034  -7.914  0.00  0.00    +0.032 C 
ATOM      7  C   UNL     1       3.045   6.474  -9.568  0.00  0.00    -0.003 A 
ATOM      8  C   UNL     1       3.151   5.125  -9.889  0.00  0.00    -0.000 A 
ATOM      9  C   UNL     1       3.856   4.375  -8.954  0.00  0.00    +0.001 A 
ATOM     10  C   UNL     1       3.705   4.706  -7.613  0.00  0.00    +0.015 A 
ENDBRANCH   2   4
BRANCH   1  13
ATOM     11  C   UNL     1      -1.858   5.446  -6.503  0.00  0.00    +0.031 C 
ATOM     12  C   UNL     1      -0.402   5.627  -6.806  0.00  0.00    -0.021 C 
ATOM     13  C   UNL     1       0.526   4.776  -6.428  0.00  0.00    +0.054 C 
ENDBRANCH   1  13
BRANCH   2  14
ATOM     14  C   UNL     1       3.278   6.918  -4.962  0.00  0.00    +0.099 C 
ATOM     15  C   UNL     1       4.683   6.440  -4.738  0.00  0.00    +0.024 C 
ENDBRANCH   2  14
TORSDOF 3
ENDMDL
MODEL 9
REMARK VINA RESULT:      -5.1      2.315      3.980
REMARK  Name = 
REMARK  3 active torsions:
REMARK  status: ('A' for Active; 'I' for Inactive)
REMARK    1  A    between atoms: C_3  and  C_4
REMARK    2  A    between atoms: N_6  and  C_7
REMARK    3  A    between atoms: N_6  and  C_9
REMARK                            x       y       z     vdW  Elec       q    Type
REMARK                         _______ _______ _______ _____ _____    ______ ____
ROOT
ATOM      1  C   UNL     1       4.159   6.294  -5.787  0.00  0.00    +0.253 C 
ATOM      2  N   UNL     1       2.771   6.467  -5.468  0.00  0.00    -0.255 N 
ATOM      3  O   UNL     1       5.029   6.553  -4.901  0.00  0.00    -0.270 OA
ENDROOT
BRANCH   2   4
ATOM      4  C   UNL     1       1.793   6.644  -6.502  0.00  0.00    +0.050 A 
ATOM      5  C   UNL     1       1.050   5.513  -6.819  0.00  0.00    -0.008 A 
ATOM      6  C   UNL     1       1.040   4.346  -5.882  0.00  0.00    +0.032 C 
ATOM      7  C   UNL     1       0.518   5.316  -8.088  0.00  0.00    -0.003 A 
ATOM      8  C   UNL     1       1.076   6.015  -9.153  0.00  0.00    -0.000 A 
ATOM      9  C   UNL     1       1.506   7.296  -8.827  0.00  0.00    +0.001 A 
ATOM     10  C   UNL     1       2.063   7.490  -7.569  0.00  0.00    +0.015 A 
ENDBRANCH   2   4
BRANCH   1  13
ATOM     11  C   UNL     1       4.404   4.872  -9.134  0.00  0.00    +0.031 C 
ATOM     12  C   UNL     1       5.054   5.371  -7.880  0.00  0.00    -0.021 C 
ATOM     13  C   UNL     1       4.546   5.192  -6.681  0.00  0.00    +0.054 C 
ENDBRANCH   1  13
BRANCH   2  14
ATOM     14  C   UNL     1       2.418   7.084  -4.191  0.00  0.00    +0.099 C 
ATOM     15  C   UNL     1       2.248   6.067  -3.101  0.00  0.00    +0.024 C 
ENDBRANCH   2  14
TORSDOF 3
ENDMDL
