MODEL 1
REMARK VINA RESULT:      -5.8      0.000      0.000
REMARK  Name = 
REMARK  3 active torsions:
REMARK  status: ('A' for Active; 'I' for Inactive)
REMARK    1  A    between atoms: CA_2  and  CB_3
REMARK    2  A    between atoms: CA_2  and  C_11
REMARK    3  A    between atoms: CB_3  and  CG_4
REMARK                            x       y       z     vdW  Elec       q    Type
REMARK                         _______ _______ _______ _____ _____    ______ ____
ROOT
ATOM      1  CG  TYR A   1       6.349   6.922 -10.519  0.00  0.00    -0.020 A 
ATOM      2  CD2 TYR A   1       6.743   6.130  -9.457  0.00  0.00    -0.001 A 
ATOM      3  CE2 TYR A   1       5.891   5.210  -8.853  0.00  0.00    +0.042 A 
ATOM      4  CZ  TYR A   1       4.559   5.155  -9.226  0.00  0.00    +0.196 A 
ATOM      5  OH  TYR A   1       3.820   3.980  -9.049  0.00  0.00    -0.287 OA
ATOM      6  CE1 TYR A   1       4.125   6.157 -10.085  0.00  0.00    +0.042 A 
ATOM      7  CD1 TYR A   1       4.999   7.090 -10.630  0.00  0.00    -0.001 A 
ENDROOT
BRANCH   1   8
ATOM      8  CB  TYR A   1       7.303   6.959 -11.671  0.00  0.00    +0.057 C 
BRANCH   8  10
ATOM      9  N   TYR A   1       9.211   5.793 -12.387  0.00  0.00    -0.120 NA
ATOM     10  CA  TYR A   1       7.754   5.362 -11.872  0.00  0.00    +0.199 C 
BRANCH  10  11
ATOM     11  C   TYR A   1       7.168   5.365 -13.409  0.00  0.00    +0.382 C 
ATOM     12  OXT TYR A   1       5.903   4.832 -13.508  0.00  0.00    -0.244 OA
ATOM     13  O   TYR A   1       7.489   6.394 -14.037  0.00  0.00    -0.244 OA
ENDBRANCH  10  11
ENDBRANCH   8  10
ENDBRANCH   1   8
TORSDOF 3
ENDMDL
MODEL 2
REMARK VINA RESULT:      -5.7      2.600      5.233
REMARK  Name = 
REMARK  3 active torsions:
REMARK  status: ('A' for Active; 'I' for Inactive)
REMARK    1  A    between atoms: CA_2  and  CB_3
REMARK    2  A    between atoms: CA_2  and  C_11
REMARK    3  A    between atoms: CB_3  and  CG_4
REMARK                            x       y       z     vdW  Elec       q    Type
REMARK                         _______ _______ _______ _____ _____    ______ ____
ROOT
ATOM      1  CG  TYR A   1       5.985   5.804  -9.428  0.00  0.00    -0.020 A 
ATOM      2  CD2 TYR A   1       5.287   5.917 -10.615  0.00  0.00    -0.001 A 
ATOM      3  CE2 TYR A   1       5.864   5.639 -11.852  0.00  0.00    +0.042 A 
ATOM      4  CZ  TYR A   1       7.217   5.359 -11.934  0.00  0.00    +0.196 A 
ATOM      5  OH  TYR A   1       7.722   4.605 -12.999  0.00  0.00    -0.287 OA
ATOM      6  CE1 TYR A   1       7.948   5.538 -10.766  0.00  0.00    +0.042 A 
ATOM      7  CD1 TYR A   1       7.342   5.865  -9.559  0.00  0.00    -0.001 A 
ENDROOT
BRANCH   1   8
ATOM      8  CB  TYR A   1       5.274   5.058  -8.343  0.00  0.00    +0.057 C 
BRANCH   8  10
ATOM      9  N   TYR A   1       3.984   6.106  -6.684  0.00  0.00    -0.120 NA
ATOM     10  CA  TYR A   1       3.783   5.808  -8.248  0.00  0.00    +0.199 C 
BRANCH  10  11
ATOM     11  C   TYR A   1       3.055   4.371  -7.919  0.00  0.00    +0.382 C 
ATOM     12  OXT TYR A   1       2.393   4.362  -6.712  0.00  0.00    -0.244 OA
ATOM     13  O   TYR A   1       2.557   3.847  -8.936  0.00  0.00    -0.244 OA
ENDBRANCH  10  11
ENDBRANCH   8  10
ENDBRANCH   1   8
TORSDOF 3
ENDMDL
MODEL 3
REMARK VINA RESULT:      -5.7      8.758     11.270
REMARK  Name = 
REMARK  3 active torsions:
REMARK  status: ('A' for Active; 'I' for Inactive)
REMARK    1  A    between atoms: CA_2  and  CB_3
REMARK    2  A    between atoms: CA_2  and  C_11
REMARK    3  A    between atoms: CB_3  and  CG_4
REMARK                            x       y       z     vdW  Elec       q    Type
REMARK                         _______ _______ _______ _____ _____    ______ ____
ROOT
ATOM      1  CG  TYR A   1      -1.877   6.893  -5.100  0.00  0.00    -0.020 A 
ATOM      2  CD2 TYR A   1      -2.201   5.978  -6.084  0.00  0.00    -0.001 A 
ATOM      3  CE2 TYR A   1      -1.235   5.280  -6.804  0.00  0.00    +0.042 A 
ATOM      4  CZ  TYR A   1       0.104   5.587  -6.639  0.00  0.00    +0.196 A 
ATOM      5  OH  TYR A   1       1.090   4.634  -6.917  0.00  0.00    -0.287 OA
ATOM      6  CE1 TYR A   1       0.382   6.706  -5.863  0.00  0.00    +0.042 A 
ATOM      7  CD1 TYR A   1      -0.617   7.408  -5.198  0.00  0.00    -0.001 A 
ENDROOT
BRANCH   1   8
ATOM      8  CB  TYR A   1      -2.629   6.738  -3.816  0.00  0.00    +0.057 C 
BRANCH   8  10
ATOM      9  N   TYR A   1      -2.730   4.728  -2.607  0.00  0.00    -0.120 NA
ATOM     10  CA  TYR A   1      -1.599   5.840  -2.853  0.00  0.00    +0.199 C 
BRANCH  10  11
ATOM     11  C   TYR A   1      -2.079   6.676  -1.520  0.00  0.00    +0.382 C 
ATOM     12  OXT TYR A   1      -1.739   6.055  -0.340  0.00  0.00    -0.244 OA
ATOM     13  O   TYR A   1      -1.956   7.909  -1.664  0.00  0.00    -0.244 OA
ENDBRANCH  10  11
ENDBRANCH   8  10
ENDBRANCH   1   8
TORSDOF 3
ENDMDL
MODEL 4
REMARK VINA RESULT:      -5.5      6.043      7.778
REMARK  Name = 
REMARK  3 active torsions:
REMARK  status: ('A' for Active; 'I' for Inactive)
REMARK    1  A    between atoms: CA_2  and  CB_3
REMARK    2  A    between atoms: CA_2  and  C_11
REMARK    3  A    between atoms: CB_3  and  CG_4
REMARK                            x       y       z     vdW  Elec       q    Type
REMARK                         _______ _______ _______ _____ _____    ______ ____
ROOT
ATOM      1  CG  TYR A   1      -0.485   5.508  -6.867  0.00  0.00    -0.020 A 
ATOM      2  CD2 TYR A   1      -1.831   5.582  -6.564  0.00  0.00    -0.001 A 
ATOM      3  CE2 TYR A   1      -2.345   6.505  -5.657  0.00  0.00    +0.042 A 
ATOM      4  CZ  TYR A   1      -1.485   7.305  -4.925  0.00  0.00    +0.196 A 
ATOM      5  OH  TYR A   1      -1.918   8.536  -4.419  0.00  0.00    -0.287 OA
ATOM      6  CE1 TYR A   1      -0.132   7.007  -5.037  0.00  0.00    +0.042 A 
ATOM      7  CD1 TYR A   1       0.339   6.041  -5.919  0.00  0.00    -0.001 A 
ENDROOT
BRANCH   1   8
ATOM      8  CB  TYR A   1      -0.165   5.449  -8.327  0.00  0.00    +0.057 C 
BRANCH   8  10
ATOM      9  N   TYR A   1       1.064   6.923  -9.680  0.00  0.00    -0.120 NA
ATOM     10  CA  TYR A   1       1.412   5.996  -8.417  0.00  0.00    +0.199 C 
BRANCH  10  11
ATOM     11  C   TYR A   1       1.815   4.741  -9.401  0.00  0.00    +0.382 C 
ATOM     12  OXT TYR A   1       2.471   3.726  -8.743  0.00  0.00    -0.244 OA
ATOM     13  O   TYR A   1       0.934   4.502 -10.250  0.00  0.00    -0.244 OA
ENDBRANCH  10  11
ENDBRANCH   8  10
ENDBRANCH   1   8
TORSDOF 3
ENDMDL
MODEL 5
REMARK VINA RESULT:      -5.4      6.635      8.502
REMARK  Name = 
REMARK  3 active torsions:
REMARK  status: ('A' for Active; 'I' for Inactive)
REMARK    1  A    between atoms: CA_2  and  CB_3
REMARK    2  A    between atoms: CA_2  and  C_11
REMARK    3  A    between atoms: CB_3  and  CG_4
REMARK                            x       y       z     vdW  Elec       q    Type
REMARK                         _______ _______ _______ _____ _____    ______ ____
ROOT
ATOM      1  CG  TYR A   1      -0.918   5.987  -6.137  0.00  0.00    -0.020 A 
ATOM      2  CD2 TYR A   1      -0.258   6.238  -4.949  0.00  0.00    -0.001 A 
ATOM      3  CE2 TYR A   1      -0.810   5.936  -3.707  0.00  0.00    +0.042 A 
ATOM      4  CZ  TYR A   1      -2.117   5.485  -3.625  0.00  0.00    +0.196 A 
ATOM      5  OH  TYR A   1      -2.534   4.714  -2.535  0.00  0.00    -0.287 OA
ATOM      6  CE1 TYR A   1      -2.848   5.521  -4.806  0.00  0.00    +0.042 A 
ATOM      7  CD1 TYR A   1      -2.273   5.876  -6.020  0.00  0.00    -0.001 A 
ENDROOT
BRANCH   1   8
ATOM      8  CB  TYR A   1      -0.101   5.298  -7.184  0.00  0.00    +0.057 C 
BRANCH   8  10
ATOM      9  N   TYR A   1       1.562   6.367  -8.452  0.00  0.00    -0.120 NA
ATOM     10  CA  TYR A   1       1.448   5.873  -6.930  0.00  0.00    +0.199 C 
BRANCH  10  11
ATOM     11  C   TYR A   1       2.081   4.406  -7.319  0.00  0.00    +0.382 C 
ATOM     12  OXT TYR A   1       3.219   4.494  -8.089  0.00  0.00    -0.244 OA
ATOM     13  O   TYR A   1       1.994   3.587  -6.382  0.00  0.00    -0.244 OA
ENDBRANCH  10  11
ENDBRANCH   8  10
ENDBRANCH   1   8
TORSDOF 3
ENDMDL
MODEL 6
REMARK VINA RESULT:      -5.4      6.005      7.756
REMARK  Name = 
REMARK  3 active torsions:
REMARK  status: ('A' for Active; 'I' for Inactive)
REMARK    1  A    between atoms: CA_2  and  CB_3
REMARK    2  A    between atoms: CA_2  and  C_11
REMARK    3  A    between atoms: CB_3  and  CG_4
REMARK                            x       y       z     vdW  Elec       q    Type
REMARK                         _______ _______ _______ _____ _____    ______ ____
ROOT
ATOM      1  CG  TYR A   1       0.100   5.361  -6.762  0.00  0.00    -0.020 A 
ATOM      2  CD2 TYR A   1      -1.235   5.321  -7.114  0.00  0.00    -0.001 A 
ATOM      3  CE2 TYR A   1      -2.254   5.656  -6.226  0.00  0.00    +0.042 A 
ATOM      4  CZ  TYR A   1      -1.955   5.920  -4.900  0.00  0.00    +0.196 A 
ATOM      5  OH  TYR A   1      -2.802   6.722  -4.128  0.00  0.00    -0.287 OA
ATOM      6  CE1 TYR A   1      -0.645   5.669  -4.510  0.00  0.00    +0.042 A 
ATOM      7  CD1 TYR A   1       0.335   5.287  -5.419  0.00  0.00    -0.001 A 
ENDROOT
BRANCH   1   8
ATOM      8  CB  TYR A   1       0.993   6.059  -7.738  0.00  0.00    +0.057 C 
BRANCH   8  10
ATOM      9  N   TYR A   1       2.106   8.125  -7.818  0.00  0.00    -0.120 NA
ATOM     10  CA  TYR A   1       2.059   6.910  -6.771  0.00  0.00    +0.199 C 
BRANCH  10  11
ATOM     11  C   TYR A   1       3.340   6.182  -7.503  0.00  0.00    +0.382 C 
ATOM     12  OXT TYR A   1       3.599   6.676  -8.761  0.00  0.00    -0.244 OA
ATOM     13  O   TYR A   1       4.262   5.929  -6.703  0.00  0.00    -0.244 OA
ENDBRANCH  10  11
ENDBRANCH   8  10
ENDBRANCH   1   8
TORSDOF 3
ENDMDL
MODEL 7
REMARK VINA RESULT:      -5.4      3.231      5.772
REMARK  Name = 
REMARK  3 active torsions:
REMARK  status: ('A' for Active; 'I' for Inactive)
REMARK    1  A    between atoms: CA_2  and  CB_3
REMARK    2  A    between atoms: CA_2  and  C_11
REMARK    3  A    between atoms: CB_3  and  CG_4
REMARK                            x       y       z     vdW  Elec       q    Type
REMARK                         _______ _______ _______ _____ _____    ______ ____
ROOT
ATOM      1  CG  TYR A   1       4.968   5.594  -8.846  0.00  0.00    -0.020 A 
ATOM      2  CD2 TYR A   1       6.315   5.541  -9.149  0.00  0.00    -0.001 A 
ATOM      3  CE2 TYR A   1       6.902   6.370 -10.101  0.00  0.00    +0.042 A 
ATOM      4  CZ  TYR A   1       6.109   7.198 -10.877  0.00  0.00    +0.196 A 
ATOM      5  OH  TYR A   1       6.640   8.361 -11.445  0.00  0.00    -0.287 OA
ATOM      6  CE1 TYR A   1       4.737   7.018 -10.753  0.00  0.00    +0.042 A 
ATOM      7  CD1 TYR A   1       4.189   6.143  -9.823  0.00  0.00    -0.001 A 
ENDROOT
BRANCH   1   8
ATOM      8  CB  TYR A   1       4.647   5.637  -7.386  0.00  0.00    +0.057 C 
BRANCH   8  10
ATOM      9  N   TYR A   1       3.181   7.188  -6.403  0.00  0.00    -0.120 NA
ATOM     10  CA  TYR A   1       2.996   5.901  -7.344  0.00  0.00    +0.199 C 
BRANCH  10  11
ATOM     11  C   TYR A   1       2.849   4.918  -6.033  0.00  0.00    +0.382 C 
ATOM     12  OXT TYR A   1       2.212   3.730  -6.316  0.00  0.00    -0.244 OA
ATOM     13  O   TYR A   1       3.855   4.955  -5.297  0.00  0.00    -0.244 OA
ENDBRANCH  10  11
ENDBRANCH   8  10
ENDBRANCH   1   8
TORSDOF 3
ENDMDL
MODEL 8
REMARK VINA RESULT:      -5.4      3.423      5.499
REMARK  Name = 
REMARK  3 active torsions:
REMARK  status: ('A' for Active; 'I' for Inactive)
REMARK    1  A    between atoms: CA_2  and  CB_3
REMARK    2  A    between atoms: CA_2  and  C_11
REMARK    3  A    between atoms: CB_3  and  CG_4
REMARK                            x       y       z     vdW  Elec       q    Type
REMARK                         _______ _______ _______ _____ _____    ______ ____
ROOT
ATOM      1  CG  TYR A   1       4.536   5.777  -9.769  0.00  0.00    -0.020 A 
ATOM      2  CD2 TYR A   1       5.642   5.640  -8.952  0.00  0.00    -0.001 A 
ATOM      3  CE2 TYR A   1       6.944   5.670  -9.443  0.00  0.00    +0.042 A 
ATOM      4  CZ  TYR A   1       7.165   5.711 -10.809  0.00  0.00    +0.196 A 
ATOM      5  OH  TYR A   1       8.356   6.240 -11.320  0.00  0.00    -0.287 OA
ATOM      6  CE1 TYR A   1       6.043   5.554 -11.613  0.00  0.00    +0.042 A 
ATOM      7  CD1 TYR A   1       4.761   5.477 -11.082  0.00  0.00    -0.001 A 
ENDROOT
BRANCH   1   8
ATOM      8  CB  TYR A   1       3.509   6.754  -9.290  0.00  0.00    +0.057 C 
BRANCH   8  10
ATOM      9  N   TYR A   1       1.281   6.142  -8.871  0.00  0.00    -0.120 NA
ATOM     10  CA  TYR A   1       2.675   5.915  -8.109  0.00  0.00    +0.199 C 
BRANCH  10  11
ATOM     11  C   TYR A   1       2.468   7.296  -7.241  0.00  0.00    +0.382 C 
ATOM     12  OXT TYR A   1       3.366   7.424  -6.204  0.00  0.00    -0.244 OA
ATOM     13  O   TYR A   1       2.167   8.269  -7.961  0.00  0.00    -0.244 OA
ENDBRANCH  10  11
ENDBRANCH   8  10
ENDBRANCH   1   8
TORSDOF 3
ENDMDL
MODEL 9
REMARK VINA RESULT:      -5.4      2.941      5.214
REMARK  Name = 
REMARK  3 active torsions:
REMARK  status: ('A' for Active; 'I' for Inactive)
REMARK    1  A    between atoms: CA_2  and  CB_3
REMARK    2  A    between atoms: CA_2  and  C_11
REMARK    3  A    between atoms: CB_3  and  CG_4
REMARK                            x       y       z     vdW  Elec       q    Type
REMARK                         _______ _______ _______ _____ _____    ______ ____
ROOT
ATOM      1  CG  TYR A   1       5.226   6.422  -9.970  0.00  0.00    -0.020 A 
ATOM      2  CD2 TYR A   1       5.611   7.380 -10.889  0.00  0.00    -0.001 A 
ATOM      3  CE2 TYR A   1       6.850   7.354 -11.523  0.00  0.00    +0.042 A 
ATOM      4  CZ  TYR A   1       7.798   6.419 -11.146  0.00  0.00    +0.196 A 
ATOM      5  OH  TYR A   1       8.799   6.022 -12.041  0.00  0.00    -0.287 OA
ATOM      6  CE1 TYR A   1       7.492   5.659 -10.024  0.00  0.00    +0.042 A 
ATOM      7  CD1 TYR A   1       6.260   5.749  -9.386  0.00  0.00    -0.001 A 
ENDROOT
BRANCH   1   8
ATOM      8  CB  TYR A   1       3.859   5.852 -10.182  0.00  0.00    +0.057 C 
BRANCH   8  10
ATOM      9  N   TYR A   1       2.228   4.560  -9.094  0.00  0.00    -0.120 NA
ATOM     10  CA  TYR A   1       3.230   5.728  -8.639  0.00  0.00    +0.199 C 
BRANCH  10  11
ATOM     11  C   TYR A   1       2.105   6.878  -8.981  0.00  0.00    +0.382 C 
ATOM     12  OXT TYR A   1       0.855   6.357  -9.225  0.00  0.00    -0.244 OA
ATOM     13  O   TYR A   1       2.255   7.908  -8.294  0.00  0.00    -0.244 OA
ENDBRANCH  10  11
ENDBRANCH   8  10
ENDBRANCH   1   8
TORSDOF 3
ENDMDL
