MODEL 1
REMARK VINA RESULT:      -7.8      0.000      0.000
REMARK  Name = 
REMARK  4 active torsions:
REMARK  status: ('A' for Active; 'I' for Inactive)
REMARK    1  A    between atoms: C_5  and  N_6
REMARK    2  A    between atoms: N_6  and  C_7
REMARK    3  A    between atoms: N_6  and  C_13
REMARK    4  A    between atoms: C_7  and  C_8
REMARK                            x       y       z     vdW  Elec       q    Type
REMARK                         _______ _______ _______ _____ _____    ______ ____
ROOT
ATOM      1  N   UNL     1       3.565   6.359 -10.724  0.00  0.00    -0.276 N 
ENDROOT
BRANCH   1   6
ATOM      2  C   UNL     1       4.266   7.125  -5.322  0.00  0.00    +0.031 C 
ATOM      3  C   UNL     1       3.821   6.609  -6.649  0.00  0.00    -0.022 A 
ATOM      4  C   UNL     1       2.653   7.058  -7.252  0.00  0.00    -0.003 A 
ATOM      5  C   UNL     1       2.587   6.985  -8.638  0.00  0.00    +0.015 A 
ATOM      6  C   UNL     1       3.305   6.035  -9.352  0.00  0.00    +0.052 A 
ATOM      7  C   UNL     1       4.223   5.302  -8.608  0.00  0.00    +0.015 A 
ATOM      8  C   UNL     1       4.422   5.517  -7.257  0.00  0.00    -0.003 A 
ENDBRANCH   1   6
BRANCH   1   9
ATOM      9  C   UNL     1       4.948   6.478 -11.077  0.00  0.00    +0.055 A 
ATOM     10  C   UNL     1       5.636   5.472 -11.733  0.00  0.00    +0.057 A 
ATOM     11  C   UNL     1       6.967   5.625 -12.100  0.00  0.00    +0.197 A 
ATOM     12  O   UNL     1       7.677   4.516 -12.569  0.00  0.00    -0.287 OA
ATOM     13  C   UNL     1       7.710   6.627 -11.492  0.00  0.00    +0.042 A 
ATOM     14  C   UNL     1       7.055   7.650 -10.852  0.00  0.00    +0.005 A 
ATOM     15  C   UNL     1       5.671   7.639 -10.844  0.00  0.00    +0.015 A 
ENDBRANCH   1   9
BRANCH   1  16
ATOM     16  C   UNL     1       2.742   5.624 -11.679  0.00  0.00    +0.217 C 
BRANCH  16  17
ATOM     17  C   UNL     1       1.511   6.354 -12.041  0.00  0.00    +0.353 C 
ATOM     18  N   UNL     1       1.361   6.913 -13.353  0.00  0.00    -0.029 NA
ATOM     19  C   UNL     1       0.209   7.781 -13.353  0.00  0.00    +0.308 C 
ATOM     20  C   UNL     1      -0.326   7.576 -11.953  0.00  0.00    +0.318 C 
ATOM     21  N   UNL     1       0.330   6.337 -11.547  0.00  0.00    -0.060 NA
ENDBRANCH  16  17
ENDBRANCH   1  16
TORSDOF 4
ENDMDL
MODEL 2
REMARK VINA RESULT:      -7.7      5.212      8.589
REMARK  Name = 
REMARK  4 active torsions:
REMARK  status: ('A' for Active; 'I' for Inactive)
REMARK    1  A    between atoms: C_5  and  N_6
REMARK    2  A    between atoms: N_6  and  C_7
REMARK    3  A    between atoms: N_6  and  C_13
REMARK    4  A    between atoms: C_7  and  C_8
REMARK                            x       y       z     vdW  Elec       q    Type
REMARK                         _______ _______ _______ _____ _____    ______ ____
ROOT
ATOM      1  N   UNL     1       0.873   6.247  -5.442  0.00  0.00    -0.276 N 
ENDROOT
BRANCH   1   6
ATOM      2  C   UNL     1       2.648   5.802 -10.630  0.00  0.00    +0.031 C 
ATOM      3  C   UNL     1       1.942   6.239  -9.391  0.00  0.00    -0.022 A 
ATOM      4  C   UNL     1       0.681   5.758  -9.062  0.00  0.00    -0.003 A 
ATOM      5  C   UNL     1       0.338   5.748  -7.715  0.00  0.00    +0.015 A 
ATOM      6  C   UNL     1       0.890   6.653  -6.818  0.00  0.00    +0.052 A 
ATOM      7  C   UNL     1       1.931   7.426  -7.318  0.00  0.00    +0.015 A 
ATOM      8  C   UNL     1       2.399   7.292  -8.612  0.00  0.00    -0.003 A 
ENDBRANCH   1   6
BRANCH   1   9
ATOM      9  C   UNL     1      -0.369   6.447  -4.757  0.00  0.00    +0.055 A 
ATOM     10  C   UNL     1      -0.906   5.499  -3.904  0.00  0.00    +0.057 A 
ATOM     11  C   UNL     1      -2.094   5.730  -3.220  0.00  0.00    +0.197 A 
ATOM     12  O   UNL     1      -2.704   4.674  -2.539  0.00  0.00    -0.287 OA
ATOM     13  C   UNL     1      -2.926   6.747  -3.664  0.00  0.00    +0.042 A 
ATOM     14  C   UNL     1      -2.415   7.715  -4.494  0.00  0.00    +0.005 A 
ATOM     15  C   UNL     1      -1.080   7.635  -4.851  0.00  0.00    +0.015 A 
ENDBRANCH   1   9
BRANCH   1  16
ATOM     16  C   UNL     1       1.524   4.966  -5.188  0.00  0.00    +0.217 C 
BRANCH  16  17
ATOM     17  C   UNL     1       2.753   5.109  -4.383  0.00  0.00    +0.353 C 
ATOM     18  N   UNL     1       4.037   5.143  -5.021  0.00  0.00    -0.029 NA
ATOM     19  C   UNL     1       5.056   5.022  -4.008  0.00  0.00    +0.308 C 
ATOM     20  C   UNL     1       4.227   5.019  -2.742  0.00  0.00    +0.318 C 
ATOM     21  N   UNL     1       2.953   5.561  -3.202  0.00  0.00    -0.060 NA
ENDBRANCH  16  17
ENDBRANCH   1  16
TORSDOF 4
ENDMDL
MODEL 3
REMARK VINA RESULT:      -7.6      2.409      4.793
REMARK  Name = 
REMARK  4 active torsions:
REMARK  status: ('A' for Active; 'I' for Inactive)
REMARK    1  A    between atoms: C_5  and  N_6
REMARK    2  A    between atoms: N_6  and  C_7
REMARK    3  A    between atoms: N_6  and  C_13
REMARK    4  A    between atoms: C_7  and  C_8
REMARK                            x       y       z     vdW  Elec       q    Type
REMARK                         _______ _______ _______ _____ _____    ______ ____
ROOT
ATOM      1  N   UNL     1       3.888   6.012 -10.158  0.00  0.00    -0.276 N 
ENDROOT
BRANCH   1   6
ATOM      2  C   UNL     1       9.064   5.933 -12.018  0.00  0.00    +0.031 C 
ATOM      3  C   UNL     1       7.826   6.232 -11.241  0.00  0.00    -0.022 A 
ATOM      4  C   UNL     1       7.008   7.308 -11.559  0.00  0.00    -0.003 A 
ATOM      5  C   UNL     1       5.668   7.212 -11.203  0.00  0.00    +0.015 A 
ATOM      6  C   UNL     1       5.255   6.441 -10.124  0.00  0.00    +0.052 A 
ATOM      7  C   UNL     1       6.238   5.638  -9.558  0.00  0.00    +0.015 A 
ATOM      8  C   UNL     1       7.531   5.593 -10.046  0.00  0.00    -0.003 A 
ENDBRANCH   1   6
BRANCH   1   9
ATOM      9  C   UNL     1       3.189   6.085  -8.910  0.00  0.00    +0.055 A 
ATOM     10  C   UNL     1       2.871   4.959  -8.171  0.00  0.00    +0.057 A 
ATOM     11  C   UNL     1       2.226   5.056  -6.944  0.00  0.00    +0.197 A 
ATOM     12  O   UNL     1       1.740   3.895  -6.336  0.00  0.00    -0.287 OA
ATOM     13  C   UNL     1       1.576   6.240  -6.630  0.00  0.00    +0.042 A 
ATOM     14  C   UNL     1       1.888   7.379  -7.331  0.00  0.00    +0.005 A 
ATOM     15  C   UNL     1       2.845   7.296  -8.327  0.00  0.00    +0.015 A 
ENDBRANCH   1   9
BRANCH   1  16
ATOM     16  C   UNL     1       3.140   6.488 -11.317  0.00  0.00    +0.217 C 
BRANCH  16  17
ATOM     17  C   UNL     1       1.744   6.008 -11.323  0.00  0.00    +0.353 C 
ATOM     18  N   UNL     1       0.658   6.937 -11.207  0.00  0.00    -0.029 NA
ATOM     19  C   UNL     1      -0.558   6.196 -10.976  0.00  0.00    +0.308 C 
ATOM     20  C   UNL     1      -0.067   4.768 -11.075  0.00  0.00    +0.318 C 
ATOM     21  N   UNL     1       1.214   4.926 -11.757  0.00  0.00    -0.060 NA
ENDBRANCH  16  17
ENDBRANCH   1  16
TORSDOF 4
ENDMDL
MODEL 4
REMARK VINA RESULT:      -7.6      4.478      7.818
REMARK  Name = 
REMARK  4 active torsions:
REMARK  status: ('A' for Active; 'I' for Inactive)
REMARK    1  A    between atoms: C_5  and  N_6
REMARK    2  A    between atoms: N_6  and  C_7
REMARK    3  A    between atoms: N_6  and  C_13
REMARK    4  A    between atoms: C_7  and  C_8
REMARK                            x       y       z     vdW  Elec       q    Type
REMARK                         _______ _______ _______ _____ _____    ______ ____
ROOT
ATOM      1  N   UNL     1       1.818   6.273  -6.336  0.00  0.00    -0.276 N 
ENDROOT
BRANCH   1   6
ATOM      2  C   UNL     1       5.859   5.750 -10.031  0.00  0.00    +0.031 C 
ATOM      3  C   UNL     1       4.529   5.766  -9.358  0.00  0.00    -0.022 A 
ATOM      4  C   UNL     1       3.996   4.626  -8.769  0.00  0.00    -0.003 A 
ATOM      5  C   UNL     1       3.091   4.812  -7.732  0.00  0.00    +0.015 A 
ATOM      6  C   UNL     1       2.307   5.955  -7.646  0.00  0.00    +0.052 A 
ATOM      7  C   UNL     1       2.625   6.963  -8.549  0.00  0.00    +0.015 A 
ATOM      8  C   UNL     1       3.662   6.845  -9.456  0.00  0.00    -0.003 A 
ENDBRANCH   1   6
BRANCH   1   9
ATOM      9  C   UNL     1       0.392   6.271  -6.194  0.00  0.00    +0.055 A 
ATOM     10  C   UNL     1      -0.259   7.031  -5.238  0.00  0.00    +0.057 A 
ATOM     11  C   UNL     1      -1.645   7.043  -5.143  0.00  0.00    +0.197 A 
ATOM     12  O   UNL     1      -2.248   7.653  -4.040  0.00  0.00    -0.287 OA
ATOM     13  C   UNL     1      -2.359   6.023  -5.756  0.00  0.00    +0.042 A 
ATOM     14  C   UNL     1      -1.746   5.267  -6.725  0.00  0.00    +0.005 A 
ATOM     15  C   UNL     1      -0.433   5.558  -7.052  0.00  0.00    +0.015 A 
ENDBRANCH   1   9
BRANCH   1  16
ATOM     16  C   UNL     1       2.551   5.629  -5.251  0.00  0.00    +0.217 C 
BRANCH  16  17
ATOM     17  C   UNL     1       3.361   6.587  -4.473  0.00  0.00    +0.353 C 
ATOM     18  N   UNL     1       4.538   7.174  -5.046  0.00  0.00    -0.029 NA
ATOM     19  C   UNL     1       5.269   7.849  -4.002  0.00  0.00    +0.308 C 
ATOM     20  C   UNL     1       4.343   7.671  -2.819  0.00  0.00    +0.318 C 
ATOM     21  N   UNL     1       3.080   7.319  -3.461  0.00  0.00    -0.060 NA
ENDBRANCH  16  17
ENDBRANCH   1  16
TORSDOF 4
ENDMDL
MODEL 5
REMARK VINA RESULT:      -7.5      3.704      5.961
REMARK  Name = 
REMARK  4 active torsions:
REMARK  status: ('A' for Active; 'I' for Inactive)
REMARK    1  A    between atoms: C_5  and  N_6
REMARK    2  A    between atoms: N_6  and  C_7
REMARK    3  A    between atoms: N_6  and  C_13
REMARK    4  A    between atoms: C_7  and  C_8
REMARK                            x       y       z     vdW  Elec       q    Type
REMARK                         _______ _______ _______ _____ _____    ______ ____
ROOT
ATOM      1  N   UNL     1       2.014   5.131  -6.646  0.00  0.00    -0.276 N 
ENDROOT
BRANCH   1   6
ATOM      2  C   UNL     1      -2.811   7.286  -5.119  0.00  0.00    +0.031 C 
ATOM      3  C   UNL     1      -1.696   6.343  -5.419  0.00  0.00    -0.022 A 
ATOM      4  C   UNL     1      -1.600   5.691  -6.642  0.00  0.00    -0.003 A 
ATOM      5  C   UNL     1      -0.332   5.302  -7.056  0.00  0.00    +0.015 A 
ATOM      6  C   UNL     1       0.676   5.019  -6.144  0.00  0.00    +0.052 A 
ATOM      7  C   UNL     1       0.385   5.332  -4.821  0.00  0.00    +0.015 A 
ATOM      8  C   UNL     1      -0.815   5.904  -4.441  0.00  0.00    -0.003 A 
ENDBRANCH   1   6
BRANCH   1   9
ATOM      9  C   UNL     1       3.012   5.458  -5.672  0.00  0.00    +0.055 A 
ATOM     10  C   UNL     1       3.443   6.755  -5.458  0.00  0.00    +0.057 A 
ATOM     11  C   UNL     1       4.385   7.054  -4.481  0.00  0.00    +0.197 A 
ATOM     12  O   UNL     1       4.942   8.335  -4.441  0.00  0.00    -0.287 OA
ATOM     13  C   UNL     1       5.161   6.022  -3.973  0.00  0.00    +0.042 A 
ATOM     14  C   UNL     1       4.747   4.725  -4.150  0.00  0.00    +0.005 A 
ATOM     15  C   UNL     1       3.563   4.501  -4.831  0.00  0.00    +0.015 A 
ENDBRANCH   1   9
BRANCH   1  16
ATOM     16  C   UNL     1       2.388   4.084  -7.591  0.00  0.00    +0.217 C 
BRANCH  16  17
ATOM     17  C   UNL     1       2.820   4.629  -8.894  0.00  0.00    +0.353 C 
ATOM     18  N   UNL     1       4.172   4.455  -9.339  0.00  0.00    -0.029 NA
ATOM     19  C   UNL     1       4.387   5.295 -10.492  0.00  0.00    +0.308 C 
ATOM     20  C   UNL     1       3.006   5.874 -10.708  0.00  0.00    +0.318 C 
ATOM     21  N   UNL     1       2.162   4.963  -9.940  0.00  0.00    -0.060 NA
ENDBRANCH  16  17
ENDBRANCH   1  16
TORSDOF 4
ENDMDL
MODEL 6
REMARK VINA RESULT:      -7.4      2.253      5.806
REMARK  Name = 
REMARK  4 active torsions:
REMARK  status: ('A' for Active; 'I' for Inactive)
REMARK    1  A    between atoms: C_5  and  N_6
REMARK    2  A    between atoms: N_6  and  C_7
REMARK    3  A    between atoms: N_6  and  C_13
REMARK    4  A    between atoms: C_7  and  C_8
REMARK                            x       y       z     vdW  Elec       q    Type
REMARK                         _______ _______ _______ _____ _____    ______ ____
ROOT
ATOM      1  N   UNL     1       3.644   6.107 -10.510  0.00  0.00    -0.276 N 
ENDROOT
BRANCH   1   6
ATOM      2  C   UNL     1       8.933   5.890 -12.009  0.00  0.00    +0.031 C 
ATOM      3  C   UNL     1       7.472   6.185 -11.952  0.00  0.00    -0.022 A 
ATOM      4  C   UNL     1       6.543   5.403 -12.626  0.00  0.00    -0.003 A 
ATOM      5  C   UNL     1       5.251   5.370 -12.115  0.00  0.00    +0.015 A 
ATOM      6  C   UNL     1       4.729   6.433 -11.390  0.00  0.00    +0.052 A 
ATOM      7  C   UNL     1       5.639   7.430 -11.057  0.00  0.00    +0.015 A 
ATOM      8  C   UNL     1       6.975   7.359 -11.406  0.00  0.00    -0.003 A 
ENDBRANCH   1   6
BRANCH   1   9
ATOM      9  C   UNL     1       2.333   6.344 -11.036  0.00  0.00    +0.055 A 
ATOM     10  C   UNL     1       2.089   6.464 -12.393  0.00  0.00    +0.057 A 
ATOM     11  C   UNL     1       0.803   6.655 -12.883  0.00  0.00    +0.197 A 
ATOM     12  O   UNL     1       0.628   6.978 -14.231  0.00  0.00    -0.287 OA
ATOM     13  C   UNL     1      -0.181   7.091 -12.007  0.00  0.00    +0.042 A 
ATOM     14  C   UNL     1       0.024   6.964 -10.655  0.00  0.00    +0.005 A 
ATOM     15  C   UNL     1       1.211   6.400 -10.221  0.00  0.00    +0.015 A 
ENDBRANCH   1   9
BRANCH   1  16
ATOM     16  C   UNL     1       3.810   4.845  -9.798  0.00  0.00    +0.217 C 
BRANCH  16  17
ATOM     17  C   UNL     1       3.881   5.028  -8.335  0.00  0.00    +0.353 C 
ATOM     18  N   UNL     1       2.886   4.444  -7.483  0.00  0.00    -0.029 NA
ATOM     19  C   UNL     1       3.042   4.989  -6.156  0.00  0.00    +0.308 C 
ATOM     20  C   UNL     1       4.274   5.850  -6.324  0.00  0.00    +0.318 C 
ATOM     21  N   UNL     1       4.853   5.329  -7.558  0.00  0.00    -0.060 NA
ENDBRANCH  16  17
ENDBRANCH   1  16
TORSDOF 4
ENDMDL
MODEL 7
REMARK VINA RESULT:      -7.4      1.722      4.903
REMARK  Name = 
REMARK  4 active torsions:
REMARK  status: ('A' for Active; 'I' for Inactive)
REMARK    1  A    between atoms: C_5  and  N_6
REMARK    2  A    between atoms: N_6  and  C_7
REMARK    3  A    between atoms: N_6  and  C_13
REMARK    4  A    between atoms: C_7  and  C_8
REMARK                            x       y       z     vdW  Elec       q    Type
REMARK                         _______ _______ _______ _____ _____    ______ ____
ROOT
ATOM      1  N   UNL     1       3.518   6.139 -10.523  0.00  0.00    -0.276 N 
ENDROOT
BRANCH   1   6
ATOM      2  C   UNL     1       0.383   3.702 -14.330  0.00  0.00    +0.031 C 
ATOM      3  C   UNL     1       1.003   4.699 -13.410  0.00  0.00    -0.022 A 
ATOM      4  C   UNL     1       0.462   4.972 -12.160  0.00  0.00    -0.003 A 
ATOM      5  C   UNL     1       1.331   5.443 -11.183  0.00  0.00    +0.015 A 
ATOM      6  C   UNL     1       2.478   6.153 -11.511  0.00  0.00    +0.052 A 
ATOM      7  C   UNL     1       2.786   6.193 -12.866  0.00  0.00    +0.015 A 
ATOM      8  C   UNL     1       2.017   5.553 -13.819  0.00  0.00    -0.003 A 
ENDBRANCH   1   6
BRANCH   1   9
ATOM      9  C   UNL     1       4.843   6.362 -11.020  0.00  0.00    +0.055 A 
ATOM     10  C   UNL     1       5.578   5.368 -11.641  0.00  0.00    +0.057 A 
ATOM     11  C   UNL     1       6.847   5.617 -12.151  0.00  0.00    +0.197 A 
ATOM     12  O   UNL     1       7.633   4.543 -12.578  0.00  0.00    -0.287 OA
ATOM     13  C   UNL     1       7.524   6.748 -11.717  0.00  0.00    +0.042 A 
ATOM     14  C   UNL     1       6.816   7.761 -11.117  0.00  0.00    +0.005 A 
ATOM     15  C   UNL     1       5.448   7.609 -10.972  0.00  0.00    +0.015 A 
ENDBRANCH   1   9
BRANCH   1  16
ATOM     16  C   UNL     1       3.187   6.855  -9.296  0.00  0.00    +0.217 C 
BRANCH  16  17
ATOM     17  C   UNL     1       3.378   6.025  -8.090  0.00  0.00    +0.353 C 
ATOM     18  N   UNL     1       2.368   5.090  -7.687  0.00  0.00    -0.029 NA
ATOM     19  C   UNL     1       2.684   4.615  -6.362  0.00  0.00    +0.308 C 
ATOM     20  C   UNL     1       4.013   5.292  -6.106  0.00  0.00    +0.318 C 
ATOM     21  N   UNL     1       4.431   5.677  -7.450  0.00  0.00    -0.060 NA
ENDBRANCH  16  17
ENDBRANCH   1  16
TORSDOF 4
ENDMDL
MODEL 8
REMARK VINA RESULT:      -7.4      2.980      4.706
REMARK  Name = 
REMARK  4 active torsions:
REMARK  status: ('A' for Active; 'I' for Inactive)
REMARK    1  A    between atoms: C_5  and  N_6
REMARK    2  A    between atoms: N_6  and  C_7
REMARK    3  A    between atoms: N_6  and  C_13
REMARK    4  A    between atoms: C_7  and  C_8
REMARK                            x       y       z     vdW  Elec       q    Type
REMARK                         _______ _______ _______ _____ _____    ______ ____
ROOT
ATOM      1  N   UNL     1       3.384   5.716  -6.638  0.00  0.00    -0.276 N 
ENDROOT
BRANCH   1   6
ATOM      2  C   UNL     1       4.107   6.636  -1.263  0.00  0.00    +0.031 C 
ATOM      3  C   UNL     1       4.334   6.377  -2.714  0.00  0.00    -0.022 A 
ATOM      4  C   UNL     1       4.491   5.089  -3.209  0.00  0.00    -0.003 A 
ATOM      5  C   UNL     1       4.146   4.874  -4.538  0.00  0.00    +0.015 A 
ATOM      6  C   UNL     1       4.211   5.892  -5.480  0.00  0.00    +0.052 A 
ATOM      7  C   UNL     1       4.457   7.161  -4.968  0.00  0.00    +0.015 A 
ATOM      8  C   UNL     1       4.606   7.397  -3.614  0.00  0.00    -0.003 A 
ENDBRANCH   1   6
BRANCH   1   9
ATOM      9  C   UNL     1       4.051   5.855  -7.898  0.00  0.00    +0.055 A 
ATOM     10  C   UNL     1       5.356   5.440  -8.096  0.00  0.00    +0.057 A 
ATOM     11  C   UNL     1       5.971   5.550  -9.337  0.00  0.00    +0.197 A 
ATOM     12  O   UNL     1       7.344   5.316  -9.441  0.00  0.00    -0.287 OA
ATOM     13  C   UNL     1       5.413   6.403 -10.279  0.00  0.00    +0.042 A 
ATOM     14  C   UNL     1       4.112   6.814 -10.120  0.00  0.00    +0.005 A 
ATOM     15  C   UNL     1       3.407   6.354  -9.022  0.00  0.00    +0.015 A 
ENDBRANCH   1   9
BRANCH   1  16
ATOM     16  C   UNL     1       2.457   4.593  -6.546  0.00  0.00    +0.217 C 
BRANCH  16  17
ATOM     17  C   UNL     1       1.048   5.029  -6.484  0.00  0.00    +0.353 C 
ATOM     18  N   UNL     1       0.489   5.497  -5.249  0.00  0.00    -0.029 NA
ATOM     19  C   UNL     1      -0.942   5.603  -5.403  0.00  0.00    +0.308 C 
ATOM     20  C   UNL     1      -1.116   5.250  -6.865  0.00  0.00    +0.318 C 
ATOM     21  N   UNL     1       0.234   5.423  -7.391  0.00  0.00    -0.060 NA
ENDBRANCH  16  17
ENDBRANCH   1  16
TORSDOF 4
ENDMDL
MODEL 9
REMARK VINA RESULT:      -7.4      2.157      4.701
REMARK  Name = 
REMARK  4 active torsions:
REMARK  status: ('A' for Active; 'I' for Inactive)
REMARK    1  A    between atoms: C_5  and  N_6
REMARK    2  A    between atoms: N_6  and  C_7
REMARK    3  A    between atoms: N_6  and  C_13
REMARK    4  A    between atoms: C_7  and  C_8
REMARK                            x       y       z     vdW  Elec       q    Type
REMARK                         _______ _______ _______ _____ _____    ______ ____
ROOT
ATOM      1  N   UNL     1       3.503   6.051 -10.959  0.00  0.00    -0.276 N 
ENDROOT
BRANCH   1   6
ATOM      2  C   UNL     1       8.878   5.813 -12.102  0.00  0.00    +0.031 C 
ATOM      3  C   UNL     1       7.422   6.134 -12.129  0.00  0.00    -0.022 A 
ATOM      4  C   UNL     1       6.530   5.409 -12.909  0.00  0.00    -0.003 A 
ATOM      5  C   UNL     1       5.205   5.374 -12.490  0.00  0.00    +0.015 A 
ATOM      6  C   UNL     1       4.651   6.404 -11.742  0.00  0.00    +0.052 A 
ATOM      7  C   UNL     1       5.552   7.362 -11.291  0.00  0.00    +0.015 A 
ATOM      8  C   UNL     1       6.907   7.285 -11.551  0.00  0.00    -0.003 A 
ENDBRANCH   1   6
BRANCH   1   9
ATOM      9  C   UNL     1       3.740   5.892  -9.555  0.00  0.00    +0.055 A 
ATOM     10  C   UNL     1       3.150   6.708  -8.606  0.00  0.00    +0.057 A 
ATOM     11  C   UNL     1       3.365   6.511  -7.247  0.00  0.00    +0.197 A 
ATOM     12  O   UNL     1       2.923   7.478  -6.340  0.00  0.00    -0.287 OA
ATOM     13  C   UNL     1       4.448   5.738  -6.854  0.00  0.00    +0.042 A 
ATOM     14  C   UNL     1       5.039   4.902  -7.769  0.00  0.00    +0.005 A 
ATOM     15  C   UNL     1       4.524   4.864  -9.053  0.00  0.00    +0.015 A 
ENDBRANCH   1   9
BRANCH   1  16
ATOM     16  C   UNL     1       2.293   6.791 -11.304  0.00  0.00    +0.217 C 
BRANCH  16  17
ATOM     17  C   UNL     1       1.653   6.281 -12.533  0.00  0.00    +0.353 C 
ATOM     18  N   UNL     1       1.187   4.926 -12.599  0.00  0.00    -0.029 NA
ATOM     19  C   UNL     1       0.855   4.621 -13.969  0.00  0.00    +0.308 C 
ATOM     20  C   UNL     1       1.081   5.957 -14.641  0.00  0.00    +0.318 C 
ATOM     21  N   UNL     1       1.081   6.879 -13.510  0.00  0.00    -0.060 NA
ENDBRANCH  16  17
ENDBRANCH   1  16
TORSDOF 4
ENDMDL
