MODEL 1
REMARK VINA RESULT:      -8.6      0.000      0.000
REMARK  Name = 
REMARK  6 active torsions:
REMARK  status: ('A' for Active; 'I' for Inactive)
REMARK    1  A    between atoms: C_2  and  C_4
REMARK    2  A    between atoms: C_7  and  C_8
REMARK    3  A    between atoms: N_10  and  CA_11
REMARK    4  A    between atoms: CA_11  and  CB_12
REMARK    5  A    between atoms: CA_11  and  C_19
REMARK    6  A    between atoms: CB_12  and  CG_13
REMARK                            x       y       z     vdW  Elec       q    Type
REMARK                         _______ _______ _______ _____ _____    ______ ____
ROOT
ATOM      1  C   UNK A   0       0.483   5.285  -7.243  0.00  0.00    +0.241 C 
ATOM      2  N   PHE A   1       1.875   5.145  -7.491  0.00  0.00    -0.195 NA
ATOM      3  O   UNK A   0      -0.255   5.604  -8.225  0.00  0.00    -0.273 OA
ENDROOT
BRANCH   1   7
ATOM      4  C   UNK A   0      -1.809   6.973  -4.845  0.00  0.00    +0.000 C 
ATOM      5  C   UNK A   0      -2.348   6.287  -6.072  0.00  0.00    +0.000 C 
ATOM      6  C   UNK A   0      -1.687   4.946  -6.172  0.00  0.00    +0.009 C 
ATOM      7  C   UNK A   0      -0.211   4.961  -6.000  0.00  0.00    +0.078 C 
ATOM      8  C   UNK A   0       0.306   5.772  -4.865  0.00  0.00    +0.009 C 
ATOM      9  C   UNK A   0      -0.317   7.138  -4.922  0.00  0.00    +0.000 C 
BRANCH   4  11
ATOM     10  C   UNK A   0      -3.483   5.864  -3.510  0.00  0.00    +0.000 C 
ATOM     11  C   UNK A   0      -2.277   6.364  -3.560  0.00  0.00    +0.000 C 
ATOM     12  C   UNK A   0      -2.014   7.282  -2.397  0.00  0.00    +0.000 C 
ENDBRANCH   4  11
ENDBRANCH   1   7
BRANCH   2  13
ATOM     13  CA  PHE A   1       2.486   6.210  -8.481  0.00  0.00    +0.202 C 
BRANCH  13  14
ATOM     14  C   PHE A   1       2.395   7.449  -7.458  0.00  0.00    +0.385 C 
ATOM     15  OXT PHE A   1       2.159   8.703  -7.869  0.00  0.00    -0.244 OA
ATOM     16  O   PHE A   1       3.305   7.281  -6.587  0.00  0.00    -0.244 OA
ENDBRANCH  13  14
BRANCH  13  17
ATOM     17  CB  PHE A   1       4.018   5.838  -8.019  0.00  0.00    +0.060 C 
BRANCH  17  18
ATOM     18  CG  PHE A   1       4.819   5.717  -9.277  0.00  0.00    -0.020 A 
ATOM     19  CD2 PHE A   1       4.635   6.778 -10.159  0.00  0.00    -0.004 A 
ATOM     20  CE2 PHE A   1       5.607   7.245 -10.998  0.00  0.00    -0.000 A 
ATOM     21  CZ  PHE A   1       6.916   7.029 -10.637  0.00  0.00    -0.000 A 
ATOM     22  CE1 PHE A   1       7.195   6.166  -9.586  0.00  0.00    -0.000 A 
ATOM     23  CD1 PHE A   1       6.157   5.373  -9.106  0.00  0.00    -0.004 A 
ENDBRANCH  17  18
ENDBRANCH  13  17
ENDBRANCH   2  13
TORSDOF 6
ENDMDL
MODEL 2
REMARK VINA RESULT:      -8.5      1.250      8.081
REMARK  Name = 
REMARK  6 active torsions:
REMARK  status: ('A' for Active; 'I' for Inactive)
REMARK    1  A    between atoms: C_2  and  C_4
REMARK    2  A    between atoms: C_7  and  C_8
REMARK    3  A    between atoms: N_10  and  CA_11
REMARK    4  A    between atoms: CA_11  and  CB_12
REMARK    5  A    between atoms: CA_11  and  C_19
REMARK    6  A    between atoms: CB_12  and  CG_13
REMARK                            x       y       z     vdW  Elec       q    Type
REMARK                         _______ _______ _______ _____ _____    ______ ____
ROOT
ATOM      1  C   UNK A   0       4.233   5.288  -8.264  0.00  0.00    +0.241 C 
ATOM      2  N   PHE A   1       2.835   5.117  -8.085  0.00  0.00    -0.195 NA
ATOM      3  O   UNK A   0       4.908   5.667  -7.258  0.00  0.00    -0.273 OA
ENDROOT
BRANCH   1   7
ATOM      4  C   UNK A   0       6.491   6.985 -10.688  0.00  0.00    +0.000 C 
ATOM      5  C   UNK A   0       7.027   6.428  -9.396  0.00  0.00    +0.000 C 
ATOM      6  C   UNK A   0       6.467   5.049  -9.226  0.00  0.00    +0.009 C 
ATOM      7  C   UNK A   0       5.002   4.936  -9.454  0.00  0.00    +0.078 C 
ATOM      8  C   UNK A   0       4.474   5.626 -10.662  0.00  0.00    +0.009 C 
ATOM      9  C   UNK A   0       4.989   7.038 -10.679  0.00  0.00    +0.000 C 
BRANCH   4  11
ATOM     10  C   UNK A   0       8.346   6.116 -11.960  0.00  0.00    +0.000 C 
ATOM     11  C   UNK A   0       7.058   6.329 -11.909  0.00  0.00    +0.000 C 
ATOM     12  C   UNK A   0       6.561   6.995 -13.163  0.00  0.00    +0.000 C 
ENDBRANCH   4  11
ENDBRANCH   1   7
BRANCH   2  13
ATOM     13  CA  PHE A   1       2.142   6.202  -7.173  0.00  0.00    +0.202 C 
BRANCH  13  14
ATOM     14  C   PHE A   1       2.202   7.386  -8.261  0.00  0.00    +0.385 C 
ATOM     15  OXT PHE A   1       2.266   8.679  -7.911  0.00  0.00    -0.244 OA
ATOM     16  O   PHE A   1       1.401   7.074  -9.196  0.00  0.00    -0.244 OA
ENDBRANCH  13  14
BRANCH  13  17
ATOM     17  CB  PHE A   1       0.645   5.727  -7.654  0.00  0.00    +0.060 C 
BRANCH  17  18
ATOM     18  CG  PHE A   1      -0.194   5.659  -6.417  0.00  0.00    -0.020 A 
ATOM     19  CD2 PHE A   1      -0.039   6.758  -5.577  0.00  0.00    -0.004 A 
ATOM     20  CE2 PHE A   1      -1.036   7.258  -4.790  0.00  0.00    -0.000 A 
ATOM     21  CZ  PHE A   1      -2.333   7.023  -5.179  0.00  0.00    -0.000 A 
ATOM     22  CE1 PHE A   1      -2.579   6.113  -6.199  0.00  0.00    -0.000 A 
ATOM     23  CD1 PHE A   1      -1.525   5.304  -6.613  0.00  0.00    -0.004 A 
ENDBRANCH  17  18
ENDBRANCH  13  17
ENDBRANCH   2  13
TORSDOF 6
ENDMDL
MODEL 3
REMARK VINA RESULT:      -8.0      1.711      3.244
REMARK  Name = 
REMARK  6 active torsions:
REMARK  status: ('A' for Active; 'I' for Inactive)
REMARK    1  A    between atoms: C_2  and  C_4
REMARK    2  A    between atoms: C_7  and  C_8
REMARK    3  A    between atoms: N_10  and  CA_11
REMARK    4  A    between atoms: CA_11  and  CB_12
REMARK    5  A    between atoms: CA_11  and  C_19
REMARK    6  A    between atoms: CB_12  and  CG_13
REMARK                            x       y       z     vdW  Elec       q    Type
REMARK                         _______ _______ _______ _____ _____    ______ ____
ROOT
ATOM      1  C   UNK A   0       3.362   6.577  -7.014  0.00  0.00    +0.241 C 
ATOM      2  N   PHE A   1       3.638   6.791  -8.391  0.00  0.00    -0.195 NA
ATOM      3  O   UNK A   0       4.302   6.122  -6.294  0.00  0.00    -0.273 OA
ENDROOT
BRANCH   1   7
ATOM      4  C   UNK A   0       0.097   5.036  -6.108  0.00  0.00    +0.000 C 
ATOM      5  C   UNK A   0       1.308   4.845  -5.234  0.00  0.00    +0.000 C 
ATOM      6  C   UNK A   0       1.957   6.183  -5.054  0.00  0.00    +0.009 C 
ATOM      7  C   UNK A   0       2.144   6.961  -6.306  0.00  0.00    +0.078 C 
ATOM      8  C   UNK A   0       0.976   7.009  -7.226  0.00  0.00    +0.009 C 
ATOM      9  C   UNK A   0       0.474   5.610  -7.446  0.00  0.00    +0.000 C 
BRANCH   4  11
ATOM     10  C   UNK A   0      -1.229   5.561  -4.164  0.00  0.00    +0.000 C 
ATOM     11  C   UNK A   0      -1.021   5.771  -5.437  0.00  0.00    +0.000 C 
ATOM     12  C   UNK A   0      -2.296   5.659  -6.227  0.00  0.00    +0.000 C 
ENDBRANCH   4  11
ENDBRANCH   1   7
BRANCH   2  13
ATOM     13  CA  PHE A   1       4.538   5.687  -9.069  0.00  0.00    +0.202 C 
BRANCH  13  14
ATOM     14  C   PHE A   1       3.315   4.847  -9.693  0.00  0.00    +0.385 C 
ATOM     15  OXT PHE A   1       2.269   5.438 -10.288  0.00  0.00    -0.244 OA
ATOM     16  O   PHE A   1       3.068   3.895  -8.889  0.00  0.00    -0.244 OA
ENDBRANCH  13  14
BRANCH  13  17
ATOM     17  CB  PHE A   1       4.714   6.591 -10.429  0.00  0.00    +0.060 C 
BRANCH  17  18
ATOM     18  CG  PHE A   1       6.181   6.841 -10.581  0.00  0.00    -0.020 A 
ATOM     19  CD2 PHE A   1       6.977   5.861  -9.997  0.00  0.00    -0.004 A 
ATOM     20  CE2 PHE A   1       8.201   5.492 -10.477  0.00  0.00    -0.000 A 
ATOM     21  CZ  PHE A   1       8.451   5.702 -11.813  0.00  0.00    -0.000 A 
ATOM     22  CE1 PHE A   1       7.565   6.473 -12.553  0.00  0.00    -0.000 A 
ATOM     23  CD1 PHE A   1       6.600   7.197 -11.860  0.00  0.00    -0.004 A 
ENDBRANCH  17  18
ENDBRANCH  13  17
ENDBRANCH   2  13
TORSDOF 6
ENDMDL
MODEL 4
REMARK VINA RESULT:      -7.9      2.326      3.891
REMARK  Name = 
REMARK  6 active torsions:
REMARK  status: ('A' for Active; 'I' for Inactive)
REMARK    1  A    between atoms: C_2  and  C_4
REMARK    2  A    between atoms: C_7  and  C_8
REMARK    3  A    between atoms: N_10  and  CA_11
REMARK    4  A    between atoms: CA_11  and  CB_12
REMARK    5  A    between atoms: CA_11  and  C_19
REMARK    6  A    between atoms: CB_12  and  CG_13
REMARK                            x       y       z     vdW  Elec       q    Type
REMARK                         _______ _______ _______ _____ _____    ______ ____
ROOT
ATOM      1  C   UNK A   0       4.116   5.451  -8.357  0.00  0.00    +0.241 C 
ATOM      2  N   PHE A   1       3.890   6.255  -9.505  0.00  0.00    -0.195 NA
ATOM      3  O   UNK A   0       5.315   5.133  -8.093  0.00  0.00    -0.273 OA
ENDROOT
BRANCH   1   7
ATOM      4  C   UNK A   0       0.752   6.589  -7.240  0.00  0.00    +0.000 C 
ATOM      5  C   UNK A   0       0.898   5.636  -8.396  0.00  0.00    +0.000 C 
ATOM      6  C   UNK A   0       1.867   4.568  -7.988  0.00  0.00    +0.009 C 
ATOM      7  C   UNK A   0       3.119   5.066  -7.361  0.00  0.00    +0.078 C 
ATOM      8  C   UNK A   0       2.956   6.121  -6.324  0.00  0.00    +0.009 C 
ATOM      9  C   UNK A   0       2.072   7.206  -6.871  0.00  0.00    +0.000 C 
BRANCH   4  11
ATOM     10  C   UNK A   0      -1.099   5.366  -6.295  0.00  0.00    +0.000 C 
ATOM     11  C   UNK A   0       0.015   6.012  -6.072  0.00  0.00    +0.000 C 
ATOM     12  C   UNK A   0      -0.149   7.030  -4.977  0.00  0.00    +0.000 C 
ENDBRANCH   4  11
ENDBRANCH   1   7
BRANCH   2  13
ATOM     13  CA  PHE A   1       4.788   5.900 -10.754  0.00  0.00    +0.202 C 
BRANCH  13  14
ATOM     14  C   PHE A   1       3.613   6.049 -11.842  0.00  0.00    +0.385 C 
ATOM     15  OXT PHE A   1       2.318   6.108 -11.497  0.00  0.00    -0.244 OA
ATOM     16  O   PHE A   1       3.921   5.310 -12.828  0.00  0.00    -0.244 OA
ENDBRANCH  13  14
BRANCH  13  17
ATOM     17  CB  PHE A   1       5.256   7.465 -10.928  0.00  0.00    +0.060 C 
BRANCH  17  18
ATOM     18  CG  PHE A   1       6.650   7.430 -11.470  0.00  0.00    -0.020 A 
ATOM     19  CD2 PHE A   1       7.495   6.565 -10.780  0.00  0.00    -0.004 A 
ATOM     20  CE2 PHE A   1       8.525   5.885 -11.363  0.00  0.00    -0.000 A 
ATOM     21  CZ  PHE A   1       8.441   5.637 -12.713  0.00  0.00    -0.000 A 
ATOM     22  CE1 PHE A   1       7.455   6.271 -13.457  0.00  0.00    -0.000 A 
ATOM     23  CD1 PHE A   1       6.755   7.310 -12.852  0.00  0.00    -0.004 A 
ENDBRANCH  17  18
ENDBRANCH  13  17
ENDBRANCH   2  13
TORSDOF 6
ENDMDL
MODEL 5
REMARK VINA RESULT:      -7.8      1.895      8.203
REMARK  Name = 
REMARK  6 active torsions:
REMARK  status: ('A' for Active; 'I' for Inactive)
REMARK    1  A    between atoms: C_2  and  C_4
REMARK    2  A    between atoms: C_7  and  C_8
REMARK    3  A    between atoms: N_10  and  CA_11
REMARK    4  A    between atoms: CA_11  and  CB_12
REMARK    5  A    between atoms: CA_11  and  C_19
REMARK    6  A    between atoms: CB_12  and  CG_13
REMARK                            x       y       z     vdW  Elec       q    Type
REMARK                         _______ _______ _______ _____ _____    ______ ____
ROOT
ATOM      1  C   UNK A   0       3.649   5.662  -9.344  0.00  0.00    +0.241 C 
ATOM      2  N   PHE A   1       2.276   5.343  -9.519  0.00  0.00    -0.195 NA
ATOM      3  O   UNK A   0       3.955   6.414  -8.369  0.00  0.00    -0.273 OA
ENDROOT
BRANCH   1   7
ATOM      4  C   UNK A   0       6.206   6.837 -11.782  0.00  0.00    +0.000 C 
ATOM      5  C   UNK A   0       6.434   6.973 -10.300  0.00  0.00    +0.000 C 
ATOM      6  C   UNK A   0       6.072   5.668  -9.660  0.00  0.00    +0.009 C 
ATOM      7  C   UNK A   0       4.770   5.099 -10.092  0.00  0.00    +0.078 C 
ATOM      8  C   UNK A   0       4.504   5.113 -11.557  0.00  0.00    +0.009 C 
ATOM      9  C   UNK A   0       4.774   6.494 -12.085  0.00  0.00    +0.000 C 
BRANCH   4  11
ATOM     10  C   UNK A   0       8.453   6.036 -12.137  0.00  0.00    +0.000 C 
ATOM     11  C   UNK A   0       7.191   5.939 -12.464  0.00  0.00    +0.000 C 
ATOM     12  C   UNK A   0       7.006   5.965 -13.956  0.00  0.00    +0.000 C 
ENDBRANCH   4  11
ENDBRANCH   1   7
BRANCH   2  13
ATOM     13  CA  PHE A   1       1.275   6.530  -9.237  0.00  0.00    +0.202 C 
BRANCH  13  14
ATOM     14  C   PHE A   1       0.783   6.687 -10.761  0.00  0.00    +0.385 C 
ATOM     15  OXT PHE A   1      -0.161   7.568 -11.122  0.00  0.00    -0.244 OA
ATOM     16  O   PHE A   1       0.709   5.517 -11.252  0.00  0.00    -0.244 OA
ENDBRANCH  13  14
BRANCH  13  17
ATOM     17  CB  PHE A   1       0.060   5.487  -8.868  0.00  0.00    +0.060 C 
BRANCH  17  18
ATOM     18  CG  PHE A   1      -0.012   5.435  -7.375  0.00  0.00    -0.020 A 
ATOM     19  CD2 PHE A   1       0.633   6.498  -6.749  0.00  0.00    -0.004 A 
ATOM     20  CE2 PHE A   1       0.231   7.036  -5.560  0.00  0.00    -0.000 A 
ATOM     21  CZ  PHE A   1      -1.092   6.892  -5.212  0.00  0.00    -0.000 A 
ATOM     22  CE1 PHE A   1      -1.895   6.029  -5.946  0.00  0.00    -0.000 A 
ATOM     23  CD1 PHE A   1      -1.270   5.169  -6.843  0.00  0.00    -0.004 A 
ENDBRANCH  17  18
ENDBRANCH  13  17
ENDBRANCH   2  13
TORSDOF 6
ENDMDL
MODEL 6
REMARK VINA RESULT:      -7.6      3.527      4.455
REMARK  Name = 
REMARK  6 active torsions:
REMARK  status: ('A' for Active; 'I' for Inactive)
REMARK    1  A    between atoms: C_2  and  C_4
REMARK    2  A    between atoms: C_7  and  C_8
REMARK    3  A    between atoms: N_10  and  CA_11
REMARK    4  A    between atoms: CA_11  and  CB_12
REMARK    5  A    between atoms: CA_11  and  C_19
REMARK    6  A    between atoms: CB_12  and  CG_13
REMARK                            x       y       z     vdW  Elec       q    Type
REMARK                         _______ _______ _______ _____ _____    ______ ____
ROOT
ATOM      1  C   UNK A   0       3.714   5.877  -6.945  0.00  0.00    +0.241 C 
ATOM      2  N   PHE A   1       3.082   6.221  -8.169  0.00  0.00    -0.195 NA
ATOM      3  O   UNK A   0       4.919   5.484  -7.000  0.00  0.00    -0.273 OA
ENDROOT
BRANCH   1   7
ATOM      4  C   UNK A   0       4.968   5.993  -3.442  0.00  0.00    +0.000 C 
ATOM      5  C   UNK A   0       4.975   7.227  -4.304  0.00  0.00    +0.000 C 
ATOM      6  C   UNK A   0       3.640   7.323  -4.976  0.00  0.00    +0.009 C 
ATOM      7  C   UNK A   0       3.164   6.064  -5.605  0.00  0.00    +0.078 C 
ATOM      8  C   UNK A   0       3.308   4.830  -4.785  0.00  0.00    +0.009 C 
ATOM      9  C   UNK A   0       4.713   4.757  -4.259  0.00  0.00    +0.000 C 
BRANCH   4  11
ATOM     10  C   UNK A   0       4.175   7.177  -1.496  0.00  0.00    +0.000 C 
ATOM     11  C   UNK A   0       4.085   6.105  -2.237  0.00  0.00    +0.000 C 
ATOM     12  C   UNK A   0       4.144   4.854  -1.404  0.00  0.00    +0.000 C 
ENDBRANCH   4  11
ENDBRANCH   1   7
BRANCH   2  13
ATOM     13  CA  PHE A   1       3.433   5.282  -9.387  0.00  0.00    +0.202 C 
BRANCH  13  14
ATOM     14  C   PHE A   1       1.912   5.061  -9.862  0.00  0.00    +0.385 C 
ATOM     15  OXT PHE A   1       1.481   5.423 -11.080  0.00  0.00    -0.244 OA
ATOM     16  O   PHE A   1       1.167   5.343  -8.872  0.00  0.00    -0.244 OA
ENDBRANCH  13  14
BRANCH  13  17
ATOM     17  CB  PHE A   1       3.643   6.569 -10.387  0.00  0.00    +0.060 C 
BRANCH  17  18
ATOM     18  CG  PHE A   1       5.023   6.443 -10.951  0.00  0.00    -0.020 A 
ATOM     19  CD2 PHE A   1       5.648   7.667 -11.172  0.00  0.00    -0.004 A 
ATOM     20  CE2 PHE A   1       6.996   7.861 -11.068  0.00  0.00    -0.000 A 
ATOM     21  CZ  PHE A   1       7.701   7.004 -10.256  0.00  0.00    -0.000 A 
ATOM     22  CE1 PHE A   1       7.075   5.862  -9.772  0.00  0.00    -0.000 A 
ATOM     23  CD1 PHE A   1       5.846   5.513 -10.323  0.00  0.00    -0.004 A 
ENDBRANCH  17  18
ENDBRANCH  13  17
ENDBRANCH   2  13
TORSDOF 6
ENDMDL
MODEL 7
REMARK VINA RESULT:      -7.6      3.302      8.093
REMARK  Name = 
REMARK  6 active torsions:
REMARK  status: ('A' for Active; 'I' for Inactive)
REMARK    1  A    between atoms: C_2  and  C_4
REMARK    2  A    between atoms: C_7  and  C_8
REMARK    3  A    between atoms: N_10  and  CA_11
REMARK    4  A    between atoms: CA_11  and  CB_12
REMARK    5  A    between atoms: CA_11  and  C_19
REMARK    6  A    between atoms: CB_12  and  CG_13
REMARK                            x       y       z     vdW  Elec       q    Type
REMARK                         _______ _______ _______ _____ _____    ______ ____
ROOT
ATOM      1  C   UNK A   0       4.326   6.040  -8.812  0.00  0.00    +0.241 C 
ATOM      2  N   PHE A   1       4.340   5.754  -7.421  0.00  0.00    -0.195 NA
ATOM      3  O   UNK A   0       3.628   7.025  -9.200  0.00  0.00    -0.273 OA
ENDROOT
BRANCH   1   7
ATOM      4  C   UNK A   0       7.137   6.970 -11.069  0.00  0.00    +0.000 C 
ATOM      5  C   UNK A   0       7.401   6.510  -9.660  0.00  0.00    +0.000 C 
ATOM      6  C   UNK A   0       6.572   5.286  -9.416  0.00  0.00    +0.009 C 
ATOM      7  C   UNK A   0       5.150   5.399  -9.834  0.00  0.00    +0.078 C 
ATOM      8  C   UNK A   0       4.910   5.998 -11.175  0.00  0.00    +0.009 C 
ATOM      9  C   UNK A   0       5.682   7.283 -11.278  0.00  0.00    +0.000 C 
BRANCH   4  11
ATOM     10  C   UNK A   0       8.986   5.789 -12.070  0.00  0.00    +0.000 C 
ATOM     11  C   UNK A   0       7.710   6.064 -12.115  0.00  0.00    +0.000 C 
ATOM     12  C   UNK A   0       7.287   6.492 -13.493  0.00  0.00    +0.000 C 
ENDBRANCH   4  11
ENDBRANCH   1   7
BRANCH   2  13
ATOM     13  CA  PHE A   1       2.951   5.930  -6.692  0.00  0.00    +0.202 C 
BRANCH  13  14
ATOM     14  C   PHE A   1       2.250   4.653  -7.376  0.00  0.00    +0.385 C 
ATOM     15  OXT PHE A   1       1.203   4.768  -8.205  0.00  0.00    -0.244 OA
ATOM     16  O   PHE A   1       2.200   3.738  -6.495  0.00  0.00    -0.244 OA
ENDBRANCH  13  14
BRANCH  13  17
ATOM     17  CB  PHE A   1       3.461   5.056  -5.397  0.00  0.00    +0.060 C 
BRANCH  17  18
ATOM     18  CG  PHE A   1       3.302   5.942  -4.203  0.00  0.00    -0.020 A 
ATOM     19  CD2 PHE A   1       3.797   5.387  -3.027  0.00  0.00    -0.004 A 
ATOM     20  CE2 PHE A   1       4.342   6.120  -2.011  0.00  0.00    -0.000 A 
ATOM     21  CZ  PHE A   1       4.879   7.345  -2.328  0.00  0.00    -0.000 A 
ATOM     22  CE1 PHE A   1       4.646   7.881  -3.588  0.00  0.00    -0.000 A 
ATOM     23  CD1 PHE A   1       3.682   7.269  -4.384  0.00  0.00    -0.004 A 
ENDBRANCH  17  18
ENDBRANCH  13  17
ENDBRANCH   2  13
TORSDOF 6
ENDMDL
MODEL 8
REMARK VINA RESULT:      -7.6      1.523      7.702
REMARK  Name = 
REMARK  6 active torsions:
REMARK  status: ('A' for Active; 'I' for Inactive)
REMARK    1  A    between atoms: C_2  and  C_4
REMARK    2  A    between atoms: C_7  and  C_8
REMARK    3  A    between atoms: N_10  and  CA_11
REMARK    4  A    between atoms: CA_11  and  CB_12
REMARK    5  A    between atoms: CA_11  and  C_19
REMARK    6  A    between atoms: CB_12  and  CG_13
REMARK                            x       y       z     vdW  Elec       q    Type
REMARK                         _______ _______ _______ _____ _____    ______ ____
ROOT
ATOM      1  C   UNK A   0       2.958   5.007  -8.355  0.00  0.00    +0.241 C 
ATOM      2  N   PHE A   1       3.158   5.942  -7.305  0.00  0.00    -0.195 NA
ATOM      3  O   UNK A   0       1.793   4.526  -8.494  0.00  0.00    -0.273 OA
ENDROOT
BRANCH   1   7
ATOM      4  C   UNK A   0       5.789   6.610 -10.164  0.00  0.00    +0.000 C 
ATOM      5  C   UNK A   0       6.005   5.948  -8.829  0.00  0.00    +0.000 C 
ATOM      6  C   UNK A   0       5.317   4.617  -8.863  0.00  0.00    +0.009 C 
ATOM      7  C   UNK A   0       3.926   4.645  -9.386  0.00  0.00    +0.078 C 
ATOM      8  C   UNK A   0       3.712   5.434 -10.630  0.00  0.00    +0.009 C 
ATOM      9  C   UNK A   0       4.326   6.794 -10.453  0.00  0.00    +0.000 C 
BRANCH   4  11
ATOM     10  C   UNK A   0       7.781   5.602 -11.077  0.00  0.00    +0.000 C 
ATOM     11  C   UNK A   0       6.543   5.964 -11.285  0.00  0.00    +0.000 C 
ATOM     12  C   UNK A   0       6.408   6.756 -12.557  0.00  0.00    +0.000 C 
ENDBRANCH   4  11
ENDBRANCH   1   7
BRANCH   2  13
ATOM     13  CA  PHE A   1       2.397   5.611  -5.963  0.00  0.00    +0.202 C 
BRANCH  13  14
ATOM     14  C   PHE A   1       3.290   6.572  -5.032  0.00  0.00    +0.385 C 
ATOM     15  OXT PHE A   1       2.955   6.854  -3.764  0.00  0.00    -0.244 OA
ATOM     16  O   PHE A   1       3.685   7.535  -5.760  0.00  0.00    -0.244 OA
ENDBRANCH  13  14
BRANCH  13  17
ATOM     17  CB  PHE A   1       1.283   6.785  -6.244  0.00  0.00    +0.060 C 
BRANCH  17  18
ATOM     18  CG  PHE A   1       0.042   6.371  -5.519  0.00  0.00    -0.020 A 
ATOM     19  CD2 PHE A   1      -0.683   7.439  -4.999  0.00  0.00    -0.004 A 
ATOM     20  CE2 PHE A   1      -2.043   7.444  -4.873  0.00  0.00    -0.000 A 
ATOM     21  CZ  PHE A   1      -2.763   6.627  -5.713  0.00  0.00    -0.000 A 
ATOM     22  CE1 PHE A   1      -2.091   5.681  -6.475  0.00  0.00    -0.000 A 
ATOM     23  CD1 PHE A   1      -0.755   5.437  -6.175  0.00  0.00    -0.004 A 
ENDBRANCH  17  18
ENDBRANCH  13  17
ENDBRANCH   2  13
TORSDOF 6
ENDMDL
MODEL 9
REMARK VINA RESULT:      -7.6      1.511      7.699
REMARK  Name = 
REMARK  6 active torsions:
REMARK  status: ('A' for Active; 'I' for Inactive)
REMARK    1  A    between atoms: C_2  and  C_4
REMARK    2  A    between atoms: C_7  and  C_8
REMARK    3  A    between atoms: N_10  and  CA_11
REMARK    4  A    between atoms: CA_11  and  CB_12
REMARK    5  A    between atoms: CA_11  and  C_19
REMARK    6  A    between atoms: CB_12  and  CG_13
REMARK                            x       y       z     vdW  Elec       q    Type
REMARK                         _______ _______ _______ _____ _____    ______ ____
ROOT
ATOM      1  C   UNK A   0       0.750   5.477  -7.729  0.00  0.00    +0.241 C 
ATOM      2  N   PHE A   1       0.982   6.033  -6.443  0.00  0.00    -0.195 NA
ATOM      3  O   UNK A   0      -0.455   5.378  -8.113  0.00  0.00    -0.273 OA
ENDROOT
BRANCH   1   7
ATOM      4  C   UNK A   0       4.225   6.505  -8.583  0.00  0.00    +0.000 C 
ATOM      5  C   UNK A   0       3.968   5.446  -7.544  0.00  0.00    +0.000 C 
ATOM      6  C   UNK A   0       2.955   4.493  -8.103  0.00  0.00    +0.009 C 
ATOM      7  C   UNK A   0       1.766   5.135  -8.721  0.00  0.00    +0.078 C 
ATOM      8  C   UNK A   0       2.041   6.281  -9.630  0.00  0.00    +0.009 C 
ATOM      9  C   UNK A   0       2.963   7.242  -8.935  0.00  0.00    +0.000 C 
BRANCH   4  11
ATOM     10  C   UNK A   0       6.132   5.424  -9.587  0.00  0.00    +0.000 C 
ATOM     11  C   UNK A   0       4.978   6.007  -9.777  0.00  0.00    +0.000 C 
ATOM     12  C   UNK A   0       5.065   7.064 -10.843  0.00  0.00    +0.000 C 
ENDBRANCH   4  11
ENDBRANCH   1   7
BRANCH   2  13
ATOM     13  CA  PHE A   1      -0.050   5.596  -5.332  0.00  0.00    +0.202 C 
BRANCH  13  14
ATOM     14  C   PHE A   1       0.996   5.659  -4.111  0.00  0.00    +0.385 C 
ATOM     15  OXT PHE A   1       0.674   5.263  -2.871  0.00  0.00    -0.244 OA
ATOM     16  O   PHE A   1       1.641   6.748  -4.227  0.00  0.00    -0.244 OA
ENDBRANCH  13  14
BRANCH  13  17
ATOM     17  CB  PHE A   1      -0.536   7.148  -5.100  0.00  0.00    +0.060 C 
BRANCH  17  18
ATOM     18  CG  PHE A   1      -1.906   7.076  -4.503  0.00  0.00    -0.020 A 
ATOM     19  CD2 PHE A   1      -2.445   5.792  -4.500  0.00  0.00    -0.004 A 
ATOM     20  CE2 PHE A   1      -3.299   5.330  -3.540  0.00  0.00    -0.000 A 
ATOM     21  CZ  PHE A   1      -3.245   5.924  -2.301  0.00  0.00    -0.000 A 
ATOM     22  CE1 PHE A   1      -2.513   7.093  -2.143  0.00  0.00    -0.000 A 
ATOM     23  CD1 PHE A   1      -2.070   7.741  -3.292  0.00  0.00    -0.004 A 
ENDBRANCH  17  18
ENDBRANCH  13  17
ENDBRANCH   2  13
TORSDOF 6
ENDMDL
