MODEL 1
REMARK VINA RESULT:      -9.5      0.000      0.000
REMARK  Name = 
REMARK  5 active torsions:
REMARK  status: ('A' for Active; 'I' for Inactive)
REMARK    1  A    between atoms: C_6  and  C_7
REMARK    2  A    between atoms: C_7  and  N_8
REMARK    3  A    between atoms: N_11  and  C_12
REMARK    4  A    between atoms: C_12  and  C_13
REMARK    5  A    between atoms: C_12  and  C_19
REMARK                            x       y       z     vdW  Elec       q    Type
REMARK                         _______ _______ _______ _____ _____    ______ ____
ROOT
ATOM      1  N   UNL     1       4.187   6.135  -7.023  0.00  0.00    -0.267 NA
ATOM      2  C   UNL     1       3.063   7.049  -7.040  0.00  0.00    +0.090 C 
ATOM      3  C   UNL     1       1.769   6.370  -6.604  0.00  0.00    +0.090 C 
ATOM      4  N   UNL     1       2.020   6.011  -5.234  0.00  0.00    -0.264 NA
ATOM      5  C   UNL     1       3.032   4.955  -5.276  0.00  0.00    +0.090 C 
ATOM      6  C   UNL     1       4.338   5.576  -5.692  0.00  0.00    +0.090 C 
ENDROOT
BRANCH   1   7
ATOM      7  C   UNL     1       3.923   5.025  -7.899  0.00  0.00    +0.099 C 
BRANCH   7  11
ATOM      8  C   UNL     1       4.742   5.410 -12.783  0.00  0.00    +0.031 C 
ATOM      9  C   UNL     1       5.181   5.461 -11.436  0.00  0.00    -0.022 A 
ATOM     10  C   UNL     1       4.297   5.223 -10.389  0.00  0.00    -0.007 A 
ATOM     11  C   UNL     1       4.788   5.106  -9.118  0.00  0.00    -0.006 A 
ATOM     12  C   UNL     1       6.103   5.459  -8.838  0.00  0.00    -0.003 A 
ATOM     13  C   UNL     1       6.907   5.829  -9.877  0.00  0.00    -0.001 A 
ATOM     14  C   UNL     1       6.461   5.905 -11.177  0.00  0.00    -0.004 A 
ENDBRANCH   7  11
ENDBRANCH   1   7
BRANCH   4  15
ATOM     15  C   UNL     1       0.787   5.139  -4.772  0.00  0.00    +0.103 C 
BRANCH  15  16
ATOM     16  C   UNL     1       0.803   5.700  -3.258  0.00  0.00    -0.004 A 
ATOM     17  C   UNL     1      -0.066   5.057  -2.393  0.00  0.00    -0.002 A 
ATOM     18  C   UNL     1      -0.091   5.561  -1.095  0.00  0.00    +0.011 A 
ATOM     19  C   UNL     1       0.840   6.502  -0.679  0.00  0.00    +0.058 A 
ATOM     20 CL   UNL     1       0.507   7.685   0.578  0.00  0.00    -0.082 Cl
ATOM     21  C   UNL     1       2.010   6.545  -1.405  0.00  0.00    +0.011 A 
ATOM     22  C   UNL     1       1.938   6.184  -2.732  0.00  0.00    -0.002 A 
ENDBRANCH  15  16
BRANCH  15  23
ATOM     23  C   UNL     1      -0.318   6.207  -5.263  0.00  0.00    -0.004 A 
ATOM     24  C   UNL     1      -1.383   5.486  -5.784  0.00  0.00    -0.003 A 
ATOM     25  C   UNL     1      -2.576   6.122  -6.094  0.00  0.00    -0.000 A 
ATOM     26  C   UNL     1      -2.790   7.322  -5.429  0.00  0.00    -0.000 A 
ATOM     27  C   UNL     1      -1.812   7.936  -4.666  0.00  0.00    -0.000 A 
ATOM     28  C   UNL     1      -0.556   7.339  -4.618  0.00  0.00    -0.003 A 
ENDBRANCH  15  23
ENDBRANCH   4  15
TORSDOF 5
ENDMDL
MODEL 2
REMARK VINA RESULT:      -9.3      3.369      8.716
REMARK  Name = 
REMARK  5 active torsions:
REMARK  status: ('A' for Active; 'I' for Inactive)
REMARK    1  A    between atoms: C_6  and  C_7
REMARK    2  A    between atoms: C_7  and  N_8
REMARK    3  A    between atoms: N_11  and  C_12
REMARK    4  A    between atoms: C_12  and  C_13
REMARK    5  A    between atoms: C_12  and  C_19
REMARK                            x       y       z     vdW  Elec       q    Type
REMARK                         _______ _______ _______ _____ _____    ______ ____
ROOT
ATOM      1  N   UNL     1       1.870   5.048  -7.148  0.00  0.00    -0.267 NA
ATOM      2  C   UNL     1       2.093   4.277  -8.354  0.00  0.00    +0.090 C 
ATOM      3  C   UNL     1       2.259   5.169  -9.580  0.00  0.00    +0.090 C 
ATOM      4  N   UNL     1       3.463   5.904  -9.302  0.00  0.00    -0.264 NA
ATOM      5  C   UNL     1       3.138   6.803  -8.195  0.00  0.00    +0.090 C 
ATOM      6  C   UNL     1       2.973   5.971  -6.952  0.00  0.00    +0.090 C 
ENDROOT
BRANCH   1   7
ATOM      7  C   UNL     1       0.690   5.858  -7.302  0.00  0.00    +0.099 C 
BRANCH   7  11
ATOM      8  C   UNL     1      -0.780   5.551  -2.568  0.00  0.00    +0.031 C 
ATOM      9  C   UNL     1      -1.049   5.573  -3.959  0.00  0.00    -0.022 A 
ATOM     10  C   UNL     1      -0.019   5.716  -4.882  0.00  0.00    -0.007 A 
ATOM     11  C   UNL     1      -0.292   5.558  -6.213  0.00  0.00    -0.006 A 
ATOM     12  C   UNL     1      -1.608   5.498  -6.657  0.00  0.00    -0.003 A 
ATOM     13  C   UNL     1      -2.605   5.505  -5.725  0.00  0.00    -0.001 A 
ATOM     14  C   UNL     1      -2.364   5.609  -4.374  0.00  0.00    -0.004 A 
ENDBRANCH   7  11
ENDBRANCH   1   7
BRANCH   4  15
ATOM     15  C   UNL     1       3.598   6.982 -10.449  0.00  0.00    +0.103 C 
BRANCH  15  16
ATOM     16  C   UNL     1       5.175   6.718 -10.677  0.00  0.00    -0.004 A 
ATOM     17  C   UNL     1       5.881   7.809 -11.155  0.00  0.00    -0.002 A 
ATOM     18  C   UNL     1       7.233   7.581 -11.396  0.00  0.00    +0.011 A 
ATOM     19  C   UNL     1       7.839   6.401 -10.988  0.00  0.00    +0.058 A 
ATOM     20 CL   UNL     1       9.229   5.707 -11.811  0.00  0.00    -0.082 Cl
ATOM     21  C   UNL     1       7.204   5.726  -9.969  0.00  0.00    +0.011 A 
ATOM     22  C   UNL     1       5.837   5.867  -9.880  0.00  0.00    -0.002 A 
ENDBRANCH  15  16
BRANCH  15  23
ATOM     23  C   UNL     1       3.157   5.972 -11.627  0.00  0.00    -0.004 A 
ATOM     24  C   UNL     1       1.955   6.440 -12.140  0.00  0.00    -0.003 A 
ATOM     25  C   UNL     1       1.432   5.901 -13.306  0.00  0.00    -0.000 A 
ATOM     26  C   UNL     1       2.358   5.276 -14.129  0.00  0.00    -0.000 A 
ATOM     27  C   UNL     1       3.663   5.037 -13.736  0.00  0.00    -0.000 A 
ATOM     28  C   UNL     1       4.028   5.397 -12.442  0.00  0.00    -0.003 A 
ENDBRANCH  15  23
ENDBRANCH   4  15
TORSDOF 5
ENDMDL
MODEL 3
REMARK VINA RESULT:      -9.2      0.403      1.182
REMARK  Name = 
REMARK  5 active torsions:
REMARK  status: ('A' for Active; 'I' for Inactive)
REMARK    1  A    between atoms: C_6  and  C_7
REMARK    2  A    between atoms: C_7  and  N_8
REMARK    3  A    between atoms: N_11  and  C_12
REMARK    4  A    between atoms: C_12  and  C_13
REMARK    5  A    between atoms: C_12  and  C_19
REMARK                            x       y       z     vdW  Elec       q    Type
REMARK                         _______ _______ _______ _____ _____    ______ ____
ROOT
ATOM      1  N   UNL     1       4.203   6.323  -6.913  0.00  0.00    -0.267 NA
ATOM      2  C   UNL     1       3.074   7.228  -6.869  0.00  0.00    +0.090 C 
ATOM      3  C   UNL     1       1.784   6.514  -6.481  0.00  0.00    +0.090 C 
ATOM      4  N   UNL     1       2.037   6.065  -5.139  0.00  0.00    -0.264 NA
ATOM      5  C   UNL     1       3.054   5.019  -5.251  0.00  0.00    +0.090 C 
ATOM      6  C   UNL     1       4.356   5.674  -5.624  0.00  0.00    +0.090 C 
ENDROOT
BRANCH   1   7
ATOM      7  C   UNL     1       3.945   5.273  -7.864  0.00  0.00    +0.099 C 
BRANCH   7  11
ATOM      8  C   UNL     1       7.862   6.017 -10.825  0.00  0.00    +0.031 C 
ATOM      9  C   UNL     1       6.482   5.768 -10.621  0.00  0.00    -0.022 A 
ATOM     10  C   UNL     1       5.963   5.643  -9.336  0.00  0.00    -0.007 A 
ATOM     11  C   UNL     1       4.607   5.580  -9.170  0.00  0.00    -0.006 A 
ATOM     12  C   UNL     1       3.773   5.397 -10.267  0.00  0.00    -0.003 A 
ATOM     13  C   UNL     1       4.336   5.380 -11.511  0.00  0.00    -0.001 A 
ATOM     14  C   UNL     1       5.692   5.495 -11.718  0.00  0.00    -0.004 A 
ENDBRANCH   7  11
ENDBRANCH   1   7
BRANCH   4  15
ATOM     15  C   UNL     1       0.808   5.156  -4.738  0.00  0.00    +0.103 C 
BRANCH  15  16
ATOM     16  C   UNL     1       0.758   5.687  -3.213  0.00  0.00    -0.004 A 
ATOM     17  C   UNL     1      -0.165   5.044  -2.407  0.00  0.00    -0.002 A 
ATOM     18  C   UNL     1      -0.247   5.522  -1.102  0.00  0.00    +0.011 A 
ATOM     19  C   UNL     1       0.679   6.437  -0.620  0.00  0.00    +0.058 A 
ATOM     20 CL   UNL     1       0.303   7.601   0.643  0.00  0.00    -0.082 Cl
ATOM     21  C   UNL     1       1.884   6.472  -1.286  0.00  0.00    +0.011 A 
ATOM     22  C   UNL     1       1.873   6.139  -2.621  0.00  0.00    -0.002 A 
ENDBRANCH  15  16
BRANCH  15  23
ATOM     23  C   UNL     1      -0.303   6.208  -5.247  0.00  0.00    -0.004 A 
ATOM     24  C   UNL     1      -1.355   5.472  -5.774  0.00  0.00    -0.003 A 
ATOM     25  C   UNL     1      -2.552   6.093  -6.100  0.00  0.00    -0.000 A 
ATOM     26  C   UNL     1      -2.785   7.295  -5.447  0.00  0.00    -0.000 A 
ATOM     27  C   UNL     1      -1.822   7.925  -4.679  0.00  0.00    -0.000 A 
ATOM     28  C   UNL     1      -0.560   7.342  -4.613  0.00  0.00    -0.003 A 
ENDBRANCH  15  23
ENDBRANCH   4  15
TORSDOF 5
ENDMDL
MODEL 4
REMARK VINA RESULT:      -9.1      2.043      4.047
REMARK  Name = 
REMARK  5 active torsions:
REMARK  status: ('A' for Active; 'I' for Inactive)
REMARK    1  A    between atoms: C_6  and  C_7
REMARK    2  A    between atoms: C_7  and  N_8
REMARK    3  A    between atoms: N_11  and  C_12
REMARK    4  A    between atoms: C_12  and  C_13
REMARK    5  A    between atoms: C_12  and  C_19
REMARK                            x       y       z     vdW  Elec       q    Type
REMARK                         _______ _______ _______ _____ _____    ______ ____
ROOT
ATOM      1  N   UNL     1       3.237   5.361  -9.914  0.00  0.00    -0.267 NA
ATOM      2  C   UNL     1       3.491   4.696  -8.653  0.00  0.00    +0.090 C 
ATOM      3  C   UNL     1       3.387   5.654  -7.471  0.00  0.00    +0.090 C 
ATOM      4  N   UNL     1       2.007   6.056  -7.482  0.00  0.00    -0.264 NA
ATOM      5  C   UNL     1       1.839   6.879  -8.680  0.00  0.00    +0.090 C 
ATOM      6  C   UNL     1       1.923   5.978  -9.881  0.00  0.00    +0.090 C 
ENDROOT
BRANCH   1   7
ATOM      7  C   UNL     1       4.180   6.434 -10.095  0.00  0.00    +0.099 C 
BRANCH   7  11
ATOM      8  C   UNL     1       7.289   5.407 -13.830  0.00  0.00    +0.031 C 
ATOM      9  C   UNL     1       7.008   5.577 -12.451  0.00  0.00    -0.022 A 
ATOM     10  C   UNL     1       5.732   5.928 -12.022  0.00  0.00    -0.007 A 
ATOM     11  C   UNL     1       5.453   5.912 -10.683  0.00  0.00    -0.006 A 
ATOM     12  C   UNL     1       6.479   5.787  -9.754  0.00  0.00    -0.003 A 
ATOM     13  C   UNL     1       7.748   5.585 -10.216  0.00  0.00    -0.001 A 
ATOM     14  C   UNL     1       8.057   5.543 -11.556  0.00  0.00    -0.004 A 
ENDBRANCH   7  11
ENDBRANCH   1   7
BRANCH   4  15
ATOM     15  C   UNL     1       1.868   7.192  -6.393  0.00  0.00    +0.103 C 
BRANCH  15  16
ATOM     16  C   UNL     1       0.439   6.668  -5.852  0.00  0.00    -0.004 A 
ATOM     17  C   UNL     1      -0.306   7.616  -5.174  0.00  0.00    -0.002 A 
ATOM     18  C   UNL     1      -1.521   7.162  -4.666  0.00  0.00    +0.011 A 
ATOM     19  C   UNL     1      -2.011   5.909  -5.005  0.00  0.00    +0.058 A 
ATOM     20 CL   UNL     1      -3.061   4.976  -3.949  0.00  0.00    -0.082 Cl
ATOM     21  C   UNL     1      -1.515   5.371  -6.172  0.00  0.00    +0.011 A 
ATOM     22  C   UNL     1      -0.240   5.737  -6.540  0.00  0.00    -0.002 A 
ENDBRANCH  15  16
BRANCH  15  23
ATOM     23  C   UNL     1       2.701   6.393  -5.266  0.00  0.00    -0.004 A 
ATOM     24  C   UNL     1       3.733   7.223  -4.854  0.00  0.00    -0.003 A 
ATOM     25  C   UNL     1       4.495   6.896  -3.742  0.00  0.00    -0.000 A 
ATOM     26  C   UNL     1       3.884   6.027  -2.849  0.00  0.00    -0.000 A 
ATOM     27  C   UNL     1       2.692   5.385  -3.131  0.00  0.00    -0.000 A 
ATOM     28  C   UNL     1       2.125   5.589  -4.385  0.00  0.00    -0.003 A 
ENDBRANCH  15  23
ENDBRANCH   4  15
TORSDOF 5
ENDMDL
MODEL 5
REMARK VINA RESULT:      -8.8      3.554      9.097
REMARK  Name = 
REMARK  5 active torsions:
REMARK  status: ('A' for Active; 'I' for Inactive)
REMARK    1  A    between atoms: C_6  and  C_7
REMARK    2  A    between atoms: C_7  and  N_8
REMARK    3  A    between atoms: N_11  and  C_12
REMARK    4  A    between atoms: C_12  and  C_13
REMARK    5  A    between atoms: C_12  and  C_19
REMARK                            x       y       z     vdW  Elec       q    Type
REMARK                         _______ _______ _______ _____ _____    ______ ____
ROOT
ATOM      1  N   UNL     1       1.066   6.597  -7.328  0.00  0.00    -0.267 NA
ATOM      2  C   UNL     1       2.190   7.458  -7.637  0.00  0.00    +0.090 C 
ATOM      3  C   UNL     1       3.335   6.691  -8.289  0.00  0.00    +0.090 C 
ATOM      4  N   UNL     1       2.774   6.241  -9.535  0.00  0.00    -0.264 NA
ATOM      5  C   UNL     1       1.770   5.237  -9.183  0.00  0.00    +0.090 C 
ATOM      6  C   UNL     1       0.607   5.945  -8.542  0.00  0.00    +0.090 C 
ENDROOT
BRANCH   1   7
ATOM      7  C   UNL     1       1.491   5.545  -6.442  0.00  0.00    +0.099 C 
BRANCH   7  11
ATOM      8  C   UNL     1      -2.413   5.493  -3.372  0.00  0.00    +0.031 C 
ATOM      9  C   UNL     1      -1.016   5.494  -3.615  0.00  0.00    -0.022 A 
ATOM     10  C   UNL     1      -0.520   5.508  -4.914  0.00  0.00    -0.007 A 
ATOM     11  C   UNL     1       0.822   5.685  -5.111  0.00  0.00    -0.006 A 
ATOM     12  C   UNL     1       1.705   5.609  -4.040  0.00  0.00    -0.003 A 
ATOM     13  C   UNL     1       1.187   5.450  -2.787  0.00  0.00    -0.001 A 
ATOM     14  C   UNL     1      -0.162   5.321  -2.546  0.00  0.00    -0.004 A 
ENDBRANCH   7  11
ENDBRANCH   1   7
BRANCH   4  15
ATOM     15  C   UNL     1       3.849   5.282 -10.184  0.00  0.00    +0.103 C 
BRANCH  15  16
ATOM     16  C   UNL     1       3.468   5.683 -11.701  0.00  0.00    -0.004 A 
ATOM     17  C   UNL     1       4.234   5.063 -12.673  0.00  0.00    -0.002 A 
ATOM     18  C   UNL     1       3.943   5.434 -13.983  0.00  0.00    +0.011 A 
ATOM     19  C   UNL     1       2.831   6.213 -14.272  0.00  0.00    +0.058 A 
ATOM     20 CL   UNL     1       2.756   7.295 -15.655  0.00  0.00    -0.082 Cl
ATOM     21  C   UNL     1       1.827   6.191 -13.329  0.00  0.00    +0.011 A 
ATOM     22  C   UNL     1       2.199   5.976 -12.021  0.00  0.00    -0.002 A 
ENDBRANCH  15  16
BRANCH  15  23
ATOM     23  C   UNL     1       5.050   6.356 -10.095  0.00  0.00    -0.004 A 
ATOM     24  C   UNL     1       6.200   5.658  -9.755  0.00  0.00    -0.003 A 
ATOM     25  C   UNL     1       7.440   6.278  -9.810  0.00  0.00    -0.000 A 
ATOM     26  C   UNL     1       7.503   7.387 -10.643  0.00  0.00    -0.000 A 
ATOM     27  C   UNL     1       6.379   7.947 -11.224  0.00  0.00    -0.000 A 
ATOM     28  C   UNL     1       5.141   7.398 -10.907  0.00  0.00    -0.003 A 
ENDBRANCH  15  23
ENDBRANCH   4  15
TORSDOF 5
ENDMDL
MODEL 6
REMARK VINA RESULT:      -8.5      3.572      8.947
REMARK  Name = 
REMARK  5 active torsions:
REMARK  status: ('A' for Active; 'I' for Inactive)
REMARK    1  A    between atoms: C_6  and  C_7
REMARK    2  A    between atoms: C_7  and  N_8
REMARK    3  A    between atoms: N_11  and  C_12
REMARK    4  A    between atoms: C_12  and  C_13
REMARK    5  A    between atoms: C_12  and  C_19
REMARK                            x       y       z     vdW  Elec       q    Type
REMARK                         _______ _______ _______ _____ _____    ______ ____
ROOT
ATOM      1  N   UNL     1       1.370   5.846  -7.198  0.00  0.00    -0.267 NA
ATOM      2  C   UNL     1       2.420   6.819  -7.424  0.00  0.00    +0.090 C 
ATOM      3  C   UNL     1       3.581   6.233  -8.219  0.00  0.00    +0.090 C 
ATOM      4  N   UNL     1       2.994   5.920  -9.493  0.00  0.00    -0.264 NA
ATOM      5  C   UNL     1       2.075   4.808  -9.249  0.00  0.00    +0.090 C 
ATOM      6  C   UNL     1       0.900   5.336  -8.473  0.00  0.00    +0.090 C 
ENDROOT
BRANCH   1   7
ATOM      7  C   UNL     1       1.903   4.716  -6.484  0.00  0.00    +0.099 C 
BRANCH   7  11
ATOM      8  C   UNL     1       3.904   5.724  -2.052  0.00  0.00    +0.031 C 
ATOM      9  C   UNL     1       2.790   5.611  -2.922  0.00  0.00    -0.022 A 
ATOM     10  C   UNL     1       2.959   5.231  -4.249  0.00  0.00    -0.007 A 
ATOM     11  C   UNL     1       1.854   4.963  -5.009  0.00  0.00    -0.006 A 
ATOM     12  C   UNL     1       0.586   5.297  -4.547  0.00  0.00    -0.003 A 
ATOM     13  C   UNL     1       0.472   5.806  -3.286  0.00  0.00    -0.001 A 
ATOM     14  C   UNL     1       1.558   6.039  -2.473  0.00  0.00    -0.004 A 
ENDBRANCH   7  11
ENDBRANCH   1   7
BRANCH   4  15
ATOM     15  C   UNL     1       4.099   5.138 -10.309  0.00  0.00    +0.103 C 
BRANCH  15  16
ATOM     16  C   UNL     1       3.552   5.623 -11.749  0.00  0.00    -0.004 A 
ATOM     17  C   UNL     1       4.185   5.042 -12.834  0.00  0.00    -0.002 A 
ATOM     18  C   UNL     1       3.750   5.484 -14.080  0.00  0.00    +0.011 A 
ATOM     19  C   UNL     1       2.629   6.294 -14.197  0.00  0.00    +0.058 A 
ATOM     20 CL   UNL     1       2.415   7.447 -15.506  0.00  0.00    -0.082 Cl
ATOM     21  C   UNL     1       1.742   6.239 -13.144  0.00  0.00    +0.011 A 
ATOM     22  C   UNL     1       2.260   5.951 -11.902  0.00  0.00    -0.002 A 
ENDBRANCH  15  16
BRANCH  15  23
ATOM     23  C   UNL     1       5.191   6.321 -10.213  0.00  0.00    -0.004 A 
ATOM     24  C   UNL     1       6.414   5.729  -9.932  0.00  0.00    -0.003 A 
ATOM     25  C   UNL     1       7.585   6.470  -9.998  0.00  0.00    -0.000 A 
ATOM     26  C   UNL     1       7.513   7.607 -10.791  0.00  0.00    -0.000 A 
ATOM     27  C   UNL     1       6.323   8.074 -11.320  0.00  0.00    -0.000 A 
ATOM     28  C   UNL     1       5.155   7.394 -10.989  0.00  0.00    -0.003 A 
ENDBRANCH  15  23
ENDBRANCH   4  15
TORSDOF 5
ENDMDL
MODEL 7
REMARK VINA RESULT:      -8.4      2.139      2.942
REMARK  Name = 
REMARK  5 active torsions:
REMARK  status: ('A' for Active; 'I' for Inactive)
REMARK    1  A    between atoms: C_6  and  C_7
REMARK    2  A    between atoms: C_7  and  N_8
REMARK    3  A    between atoms: N_11  and  C_12
REMARK    4  A    between atoms: C_12  and  C_13
REMARK    5  A    between atoms: C_12  and  C_19
REMARK                            x       y       z     vdW  Elec       q    Type
REMARK                         _______ _______ _______ _____ _____    ______ ____
ROOT
ATOM      1  N   UNL     1       2.296   6.899  -9.405  0.00  0.00    -0.267 NA
ATOM      2  C   UNL     1       0.921   6.443  -9.369  0.00  0.00    +0.090 C 
ATOM      3  C   UNL     1       0.707   5.358  -8.320  0.00  0.00    +0.090 C 
ATOM      4  N   UNL     1       0.977   6.030  -7.078  0.00  0.00    -0.264 NA
ATOM      5  C   UNL     1       2.413   6.309  -7.077  0.00  0.00    +0.090 C 
ATOM      6  C   UNL     1       2.680   7.387  -8.093  0.00  0.00    +0.090 C 
ENDROOT
BRANCH   1   7
ATOM      7  C   UNL     1       3.167   5.790  -9.693  0.00  0.00    +0.099 C 
BRANCH   7  11
ATOM      8  C   UNL     1       8.105   5.350  -9.392  0.00  0.00    +0.031 C 
ATOM      9  C   UNL     1       6.936   5.987  -9.879  0.00  0.00    -0.022 A 
ATOM     10  C   UNL     1       5.673   5.527  -9.524  0.00  0.00    -0.007 A 
ATOM     11  C   UNL     1       4.575   6.266  -9.867  0.00  0.00    -0.006 A 
ATOM     12  C   UNL     1       4.693   7.325 -10.760  0.00  0.00    -0.003 A 
ATOM     13  C   UNL     1       5.940   7.660 -11.203  0.00  0.00    -0.001 A 
ATOM     14  C   UNL     1       7.073   6.971 -10.836  0.00  0.00    -0.004 A 
ENDBRANCH   7  11
ENDBRANCH   1   7
BRANCH   4  15
ATOM     15  C   UNL     1       0.952   4.917  -5.957  0.00  0.00    +0.103 C 
BRANCH  15  16
ATOM     16  C   UNL     1       2.217   5.523  -5.157  0.00  0.00    -0.004 A 
ATOM     17  C   UNL     1       1.932   6.627  -4.373  0.00  0.00    -0.002 A 
ATOM     18  C   UNL     1       3.024   7.183  -3.713  0.00  0.00    +0.011 A 
ATOM     19  C   UNL     1       4.252   6.538  -3.700  0.00  0.00    +0.058 A 
ATOM     20 CL   UNL     1       5.781   7.395  -3.565  0.00  0.00    -0.082 Cl
ATOM     21  C   UNL     1       4.215   5.181  -3.935  0.00  0.00    +0.011 A 
ATOM     22  C   UNL     1       3.195   4.710  -4.730  0.00  0.00    -0.002 A 
ENDBRANCH  15  16
BRANCH  15  23
ATOM     23  C   UNL     1      -0.126   5.687  -5.036  0.00  0.00    -0.004 A 
ATOM     24  C   UNL     1      -1.130   6.147  -5.876  0.00  0.00    -0.003 A 
ATOM     25  C   UNL     1      -2.304   6.665  -5.349  0.00  0.00    -0.000 A 
ATOM     26  C   UNL     1      -2.595   6.257  -4.055  0.00  0.00    -0.000 A 
ATOM     27  C   UNL     1      -1.697   5.547  -3.278  0.00  0.00    -0.000 A 
ATOM     28  C   UNL     1      -0.439   5.287  -3.812  0.00  0.00    -0.003 A 
ENDBRANCH  15  23
ENDBRANCH   4  15
TORSDOF 5
ENDMDL
MODEL 8
REMARK VINA RESULT:      -8.3      2.947      4.938
REMARK  Name = 
REMARK  5 active torsions:
REMARK  status: ('A' for Active; 'I' for Inactive)
REMARK    1  A    between atoms: C_6  and  C_7
REMARK    2  A    between atoms: C_7  and  N_8
REMARK    3  A    between atoms: N_11  and  C_12
REMARK    4  A    between atoms: C_12  and  C_13
REMARK    5  A    between atoms: C_12  and  C_19
REMARK                            x       y       z     vdW  Elec       q    Type
REMARK                         _______ _______ _______ _____ _____    ______ ____
ROOT
ATOM      1  N   UNL     1       1.338   4.531 -10.193  0.00  0.00    -0.267 NA
ATOM      2  C   UNL     1       2.145   4.123  -9.061  0.00  0.00    +0.090 C 
ATOM      3  C   UNL     1       2.380   5.269  -8.083  0.00  0.00    +0.090 C 
ATOM      4  N   UNL     1       1.063   5.571  -7.594  0.00  0.00    -0.264 NA
ATOM      5  C   UNL     1       0.339   6.152  -8.725  0.00  0.00    +0.090 C 
ATOM      6  C   UNL     1       0.070   5.056  -9.720  0.00  0.00    +0.090 C 
ENDROOT
BRANCH   1   7
ATOM      7  C   UNL     1       1.988   5.612 -10.886  0.00  0.00    +0.099 C 
BRANCH   7  11
ATOM      8  C   UNL     1       0.647   8.402 -14.770  0.00  0.00    +0.031 C 
ATOM      9  C   UNL     1       0.834   7.146 -14.141  0.00  0.00    -0.022 A 
ATOM     10  C   UNL     1       1.326   7.065 -12.843  0.00  0.00    -0.007 A 
ATOM     11  C   UNL     1       1.328   5.854 -12.207  0.00  0.00    -0.006 A 
ATOM     12  C   UNL     1       1.074   4.687 -12.918  0.00  0.00    -0.003 A 
ATOM     13  C   UNL     1       0.731   4.795 -14.235  0.00  0.00    -0.001 A 
ATOM     14  C   UNL     1       0.668   6.002 -14.894  0.00  0.00    -0.004 A 
ENDBRANCH   7  11
ENDBRANCH   1   7
BRANCH   4  15
ATOM     15  C   UNL     1       1.206   6.874  -6.711  0.00  0.00    +0.103 C 
BRANCH  15  16
ATOM     16  C   UNL     1      -0.103   6.560  -5.819  0.00  0.00    -0.004 A 
ATOM     17  C   UNL     1      -0.562   7.629  -5.070  0.00  0.00    -0.002 A 
ATOM     18  C   UNL     1      -1.665   7.358  -4.265  0.00  0.00    +0.011 A 
ATOM     19  C   UNL     1      -2.352   6.157  -4.378  0.00  0.00    +0.058 A 
ATOM     20 CL   UNL     1      -3.218   5.422  -3.037  0.00  0.00    -0.082 Cl
ATOM     21  C   UNL     1      -2.204   5.498  -5.579  0.00  0.00    +0.011 A 
ATOM     22  C   UNL     1      -1.020   5.684  -6.255  0.00  0.00    -0.002 A 
ENDBRANCH  15  16
BRANCH  15  23
ATOM     23  C   UNL     1       2.215   6.199  -5.649  0.00  0.00    -0.004 A 
ATOM     24  C   UNL     1       3.271   7.080  -5.469  0.00  0.00    -0.003 A 
ATOM     25  C   UNL     1       4.195   6.873  -4.455  0.00  0.00    -0.000 A 
ATOM     26  C   UNL     1       3.744   6.083  -3.406  0.00  0.00    -0.000 A 
ATOM     27  C   UNL     1       2.542   5.398  -3.452  0.00  0.00    -0.000 A 
ATOM     28  C   UNL     1       1.796   5.473  -4.624  0.00  0.00    -0.003 A 
ENDBRANCH  15  23
ENDBRANCH   4  15
TORSDOF 5
ENDMDL
MODEL 9
REMARK VINA RESULT:      -8.3      3.440      8.153
REMARK  Name = 
REMARK  5 active torsions:
REMARK  status: ('A' for Active; 'I' for Inactive)
REMARK    1  A    between atoms: C_6  and  C_7
REMARK    2  A    between atoms: C_7  and  N_8
REMARK    3  A    between atoms: N_11  and  C_12
REMARK    4  A    between atoms: C_12  and  C_13
REMARK    5  A    between atoms: C_12  and  C_19
REMARK                            x       y       z     vdW  Elec       q    Type
REMARK                         _______ _______ _______ _____ _____    ______ ____
ROOT
ATOM      1  N   UNL     1       2.072   5.475  -5.382  0.00  0.00    -0.267 NA
ATOM      2  C   UNL     1       1.551   4.785  -6.545  0.00  0.00    +0.090 C 
ATOM      3  C   UNL     1       1.497   5.691  -7.770  0.00  0.00    +0.090 C 
ATOM      4  N   UNL     1       2.879   5.996  -8.026  0.00  0.00    -0.264 NA
ATOM      5  C   UNL     1       3.313   6.847  -6.918  0.00  0.00    +0.090 C 
ATOM      6  C   UNL     1       3.394   5.996  -5.680  0.00  0.00    +0.090 C 
ENDROOT
BRANCH   1   7
ATOM      7  C   UNL     1       1.247   6.616  -5.085  0.00  0.00    +0.099 C 
BRANCH   7  11
ATOM      8  C   UNL     1      -3.159   5.606  -3.028  0.00  0.00    +0.031 C 
ATOM      9  C   UNL     1      -1.744   5.663  -2.981  0.00  0.00    -0.022 A 
ATOM     10  C   UNL     1      -1.012   6.104  -4.078  0.00  0.00    -0.007 A 
ATOM     11  C   UNL     1       0.333   6.312  -3.940  0.00  0.00    -0.006 A 
ATOM     12  C   UNL     1       1.000   5.863  -2.806  0.00  0.00    -0.003 A 
ATOM     13  C   UNL     1       0.263   5.301  -1.804  0.00  0.00    -0.001 A 
ATOM     14  C   UNL     1      -1.099   5.124  -1.887  0.00  0.00    -0.004 A 
ENDBRANCH   7  11
ENDBRANCH   1   7
BRANCH   4  15
ATOM     15  C   UNL     1       2.887   7.081  -9.174  0.00  0.00    +0.103 C 
BRANCH  15  16
ATOM     16  C   UNL     1       4.297   6.592  -9.792  0.00  0.00    -0.004 A 
ATOM     17  C   UNL     1       4.927   7.521 -10.603  0.00  0.00    -0.002 A 
ATOM     18  C   UNL     1       6.122   7.094 -11.175  0.00  0.00    +0.011 A 
ATOM     19  C   UNL     1       6.712   5.901 -10.783  0.00  0.00    +0.058 A 
ATOM     20 CL   UNL     1       7.730   4.943 -11.849  0.00  0.00    -0.082 Cl
ATOM     21  C   UNL     1       6.346   5.435  -9.540  0.00  0.00    +0.011 A 
ATOM     22  C   UNL     1       5.085   5.760  -9.095  0.00  0.00    -0.002 A 
ENDBRANCH  15  16
BRANCH  15  23
ATOM     23  C   UNL     1       2.015   6.191 -10.198  0.00  0.00    -0.004 A 
ATOM     24  C   UNL     1       0.787   6.820 -10.345  0.00  0.00    -0.003 A 
ATOM     25  C   UNL     1      -0.102   6.405 -11.326  0.00  0.00    -0.000 A 
ATOM     26  C   UNL     1       0.476   5.721 -12.387  0.00  0.00    -0.000 A 
ATOM     27  C   UNL     1       1.798   5.315 -12.381  0.00  0.00    -0.000 A 
ATOM     28  C   UNL     1       2.548   5.563 -11.235  0.00  0.00    -0.003 A 
ENDBRANCH  15  23
ENDBRANCH   4  15
TORSDOF 5
ENDMDL
