MODEL 1
REMARK VINA RESULT:      -8.4      0.000      0.000
REMARK  Name = 
REMARK  7 active torsions:
REMARK  status: ('A' for Active; 'I' for Inactive)
REMARK    1  A    between atoms: C_2  and  N_3
REMARK    2  A    between atoms: N_3  and  C_4
REMARK    3  A    between atoms: N_3  and  C_6
REMARK    4  A    between atoms: C_9  and  C_10
REMARK    5  A    between atoms: C_10  and  C_11
REMARK    6  A    between atoms: N_21  and  C_22
REMARK    7  A    between atoms: N_21  and  C_24
REMARK                            x       y       z     vdW  Elec       q    Type
REMARK                         _______ _______ _______ _____ _____    ______ ____
ROOT
ATOM      1  C   UNL     1       2.472   6.307  -8.482  0.00  0.00    +0.000 C 
ATOM      2  C   UNL     1       2.379   6.627  -7.215  0.00  0.00    +0.000 C 
ATOM      3  C   UNL     1       3.587   6.789  -6.396  0.00  0.00    +0.006 C 
ATOM      4  C   UNL     1       3.593   6.415  -5.115  0.00  0.00    +0.069 C 
ATOM      5  C   UNL     1       2.328   6.175  -4.423  0.00  0.00    +0.221 C 
ATOM      6  N   UNL     1       2.320   5.843  -3.173  0.00  0.00    -0.189 N 
ATOM      7  C   UNL     1       1.091   6.355  -5.152  0.00  0.00    +0.069 C 
ATOM      8  C   UNL     1       1.134   6.559  -6.448  0.00  0.00    +0.006 C 
ENDROOT
BRANCH   1   9
ATOM      9  C   UNL     1       1.319   5.966  -9.283  0.00  0.00    +0.000 A 
ATOM     10  C   UNL     1       1.099   4.655  -9.686  0.00  0.00    +0.000 A 
ATOM     11  C   UNL     1       0.266   4.355 -10.758  0.00  0.00    +0.000 A 
ATOM     12  C   UNL     1      -0.221   5.360 -11.555  0.00  0.00    +0.000 A 
ATOM     13  C   UNL     1      -0.011   6.656 -11.165  0.00  0.00    +0.000 A 
ATOM     14  C   UNL     1       0.492   6.899  -9.892  0.00  0.00    +0.000 A 
ENDBRANCH   1   9
BRANCH   1  18
ATOM     15  C   UNL     1       6.038   6.287 -10.760  0.00  0.00    +0.048 A 
ATOM     16  C   UNL     1       5.827   5.337  -9.783  0.00  0.00    +0.015 A 
ATOM     17  C   UNL     1       4.833   5.569  -8.839  0.00  0.00    +0.001 A 
ATOM     18  C   UNL     1       3.770   6.407  -9.131  0.00  0.00    +0.000 A 
ATOM     19  C   UNL     1       4.001   7.310 -10.161  0.00  0.00    +0.001 A 
ATOM     20  C   UNL     1       5.252   7.430 -10.755  0.00  0.00    +0.015 A 
BRANCH  15  21
ATOM     21  N   UNL     1       7.077   6.057 -11.686  0.00  0.00    -0.307 N 
BRANCH  21  23
ATOM     22  C   UNL     1       6.006   5.639 -13.857  0.00  0.00    +0.023 C 
ATOM     23  C   UNL     1       6.891   6.565 -13.042  0.00  0.00    +0.091 C 
ENDBRANCH  21  23
BRANCH  21  24
ATOM     24  C   UNL     1       8.339   5.450 -11.276  0.00  0.00    +0.091 C 
ATOM     25  C   UNL     1       9.389   5.894 -12.279  0.00  0.00    +0.023 C 
ENDBRANCH  21  24
ENDBRANCH  15  21
ENDBRANCH   1  18
BRANCH   6  26
ATOM     26  C   UNL     1       1.146   6.254  -2.408  0.00  0.00    +0.317 C 
ATOM     27  C   UNL     1       0.549   5.022  -1.758  0.00  0.00    +0.092 C 
ENDBRANCH   6  26
BRANCH   6  28
ATOM     28  C   UNL     1       3.583   5.768  -2.446  0.00  0.00    +0.317 C 
ATOM     29  C   UNL     1       3.735   6.913  -1.482  0.00  0.00    +0.092 C 
ENDBRANCH   6  28
TORSDOF 7
ENDMDL
MODEL 2
REMARK VINA RESULT:      -8.3      1.457      7.860
REMARK  Name = 
REMARK  7 active torsions:
REMARK  status: ('A' for Active; 'I' for Inactive)
REMARK    1  A    between atoms: C_2  and  N_3
REMARK    2  A    between atoms: N_3  and  C_4
REMARK    3  A    between atoms: N_3  and  C_6
REMARK    4  A    between atoms: C_9  and  C_10
REMARK    5  A    between atoms: C_10  and  C_11
REMARK    6  A    between atoms: N_21  and  C_22
REMARK    7  A    between atoms: N_21  and  C_24
REMARK                            x       y       z     vdW  Elec       q    Type
REMARK                         _______ _______ _______ _____ _____    ______ ____
ROOT
ATOM      1  C   UNL     1       3.270   5.766  -7.410  0.00  0.00    +0.000 C 
ATOM      2  C   UNL     1       4.086   5.391  -8.364  0.00  0.00    +0.000 C 
ATOM      3  C   UNL     1       5.538   5.386  -8.144  0.00  0.00    +0.006 C 
ATOM      4  C   UNL     1       6.374   5.711  -9.131  0.00  0.00    +0.069 C 
ATOM      5  C   UNL     1       5.895   5.731 -10.512  0.00  0.00    +0.221 C 
ATOM      6  N   UNL     1       6.704   6.014 -11.481  0.00  0.00    -0.189 N 
ATOM      7  C   UNL     1       4.513   5.392 -10.773  0.00  0.00    +0.069 C 
ATOM      8  C   UNL     1       3.687   5.242  -9.765  0.00  0.00    +0.006 C 
ENDROOT
BRANCH   1   9
ATOM      9  C   UNL     1       1.854   5.957  -7.630  0.00  0.00    +0.000 A 
ATOM     10  C   UNL     1       0.922   5.420  -6.750  0.00  0.00    +0.000 A 
ATOM     11  C   UNL     1      -0.403   5.229  -7.125  0.00  0.00    +0.000 A 
ATOM     12  C   UNL     1      -0.783   5.403  -8.432  0.00  0.00    +0.000 A 
ATOM     13  C   UNL     1       0.129   5.933  -9.306  0.00  0.00    +0.000 A 
ATOM     14  C   UNL     1       1.311   6.464  -8.801  0.00  0.00    +0.000 A 
ENDBRANCH   1   9
BRANCH   1  18
ATOM     15  C   UNL     1       4.282   6.011  -3.309  0.00  0.00    +0.048 A 
ATOM     16  C   UNL     1       3.892   7.137  -4.001  0.00  0.00    +0.015 A 
ATOM     17  C   UNL     1       3.902   7.097  -5.390  0.00  0.00    +0.001 A 
ATOM     18  C   UNL     1       3.790   5.888  -6.057  0.00  0.00    +0.000 A 
ATOM     19  C   UNL     1       4.135   4.770  -5.307  0.00  0.00    +0.001 A 
ATOM     20  C   UNL     1       4.668   4.890  -4.029  0.00  0.00    +0.015 A 
BRANCH  15  21
ATOM     21  N   UNL     1       4.305   6.081  -1.900  0.00  0.00    -0.307 N 
BRANCH  21  23
ATOM     22  C   UNL     1       4.983   7.196   0.181  0.00  0.00    +0.023 C 
ATOM     23  C   UNL     1       4.677   7.357  -1.298  0.00  0.00    +0.091 C 
ENDBRANCH  21  23
BRANCH  21  24
ATOM     24  C   UNL     1       3.853   4.963  -1.077  0.00  0.00    +0.091 C 
ATOM     25  C   UNL     1       2.337   4.933  -1.169  0.00  0.00    +0.023 C 
ENDBRANCH  21  24
ENDBRANCH  15  21
ENDBRANCH   1  18
BRANCH   6  26
ATOM     26  C   UNL     1       6.398   5.402 -12.771  0.00  0.00    +0.317 C 
ATOM     27  C   UNL     1       6.002   6.503 -13.734  0.00  0.00    +0.092 C 
ENDBRANCH   6  26
BRANCH   6  28
ATOM     28  C   UNL     1       8.113   6.254 -11.187  0.00  0.00    +0.317 C 
ATOM     29  C   UNL     1       9.002   5.739 -12.285  0.00  0.00    +0.092 C 
ENDBRANCH   6  28
TORSDOF 7
ENDMDL
MODEL 3
REMARK VINA RESULT:      -8.2      1.130      7.712
REMARK  Name = 
REMARK  7 active torsions:
REMARK  status: ('A' for Active; 'I' for Inactive)
REMARK    1  A    between atoms: C_2  and  N_3
REMARK    2  A    between atoms: N_3  and  C_4
REMARK    3  A    between atoms: N_3  and  C_6
REMARK    4  A    between atoms: C_9  and  C_10
REMARK    5  A    between atoms: C_10  and  C_11
REMARK    6  A    between atoms: N_21  and  C_22
REMARK    7  A    between atoms: N_21  and  C_24
REMARK                            x       y       z     vdW  Elec       q    Type
REMARK                         _______ _______ _______ _____ _____    ______ ____
ROOT
ATOM      1  C   UNL     1       2.910   5.576  -9.021  0.00  0.00    +0.000 C 
ATOM      2  C   UNL     1       3.953   5.289  -9.760  0.00  0.00    +0.000 C 
ATOM      3  C   UNL     1       5.310   5.404  -9.210  0.00  0.00    +0.006 C 
ATOM      4  C   UNL     1       6.320   5.817  -9.977  0.00  0.00    +0.069 C 
ATOM      5  C   UNL     1       6.172   5.822 -11.431  0.00  0.00    +0.221 C 
ATOM      6  N   UNL     1       7.156   6.190 -12.187  0.00  0.00    -0.189 N 
ATOM      7  C   UNL     1       4.922   5.371 -12.005  0.00  0.00    +0.069 C 
ATOM      8  C   UNL     1       3.902   5.133 -11.214  0.00  0.00    +0.006 C 
ENDROOT
BRANCH   1   9
ATOM      9  C   UNL     1       1.572   5.649  -9.562  0.00  0.00    +0.000 A 
ATOM     10  C   UNL     1       0.930   4.505 -10.022  0.00  0.00    +0.000 A 
ATOM     11  C   UNL     1      -0.148   4.580 -10.895  0.00  0.00    +0.000 A 
ATOM     12  C   UNL     1      -0.494   5.780 -11.465  0.00  0.00    +0.000 A 
ATOM     13  C   UNL     1       0.132   6.913 -11.017  0.00  0.00    +0.000 A 
ATOM     14  C   UNL     1       0.924   6.835  -9.877  0.00  0.00    +0.000 A 
ENDBRANCH   1   9
BRANCH   1  18
ATOM     15  C   UNL     1       2.901   6.028  -4.814  0.00  0.00    +0.048 A 
ATOM     16  C   UNL     1       3.026   7.128  -5.635  0.00  0.00    +0.015 A 
ATOM     17  C   UNL     1       3.368   6.924  -6.967  0.00  0.00    +0.001 A 
ATOM     18  C   UNL     1       3.091   5.716  -7.585  0.00  0.00    +0.000 A 
ATOM     19  C   UNL     1       2.912   4.643  -6.720  0.00  0.00    +0.001 A 
ATOM     20  C   UNL     1       3.123   4.770  -5.353  0.00  0.00    +0.015 A 
BRANCH  15  21
ATOM     21  N   UNL     1       2.593   6.254  -3.456  0.00  0.00    -0.307 N 
BRANCH  21  23
ATOM     22  C   UNL     1       4.450   6.852  -1.963  0.00  0.00    +0.023 C 
ATOM     23  C   UNL     1       3.278   7.356  -2.787  0.00  0.00    +0.091 C 
ENDBRANCH  21  23
BRANCH  21  24
ATOM     24  C   UNL     1       1.540   5.501  -2.781  0.00  0.00    +0.091 C 
ATOM     25  C   UNL     1       0.232   5.868  -3.459  0.00  0.00    +0.023 C 
ENDBRANCH  21  24
ENDBRANCH  15  21
ENDBRANCH   1  18
BRANCH   6  26
ATOM     26  C   UNL     1       7.209   5.579 -13.512  0.00  0.00    +0.317 C 
ATOM     27  C   UNL     1       6.968   6.663 -14.543  0.00  0.00    +0.092 C 
ENDBRANCH   6  26
BRANCH   6  28
ATOM     28  C   UNL     1       8.432   6.544 -11.575  0.00  0.00    +0.317 C 
ATOM     29  C   UNL     1       9.580   5.843 -12.248  0.00  0.00    +0.092 C 
ENDBRANCH   6  28
TORSDOF 7
ENDMDL
MODEL 4
REMARK VINA RESULT:      -7.7      3.257      5.800
REMARK  Name = 
REMARK  7 active torsions:
REMARK  status: ('A' for Active; 'I' for Inactive)
REMARK    1  A    between atoms: C_2  and  N_3
REMARK    2  A    between atoms: N_3  and  C_4
REMARK    3  A    between atoms: N_3  and  C_6
REMARK    4  A    between atoms: C_9  and  C_10
REMARK    5  A    between atoms: C_10  and  C_11
REMARK    6  A    between atoms: N_21  and  C_22
REMARK    7  A    between atoms: N_21  and  C_24
REMARK                            x       y       z     vdW  Elec       q    Type
REMARK                         _______ _______ _______ _____ _____    ______ ____
ROOT
ATOM      1  C   UNL     1       2.626   5.875 -11.114  0.00  0.00    +0.000 C 
ATOM      2  C   UNL     1       2.069   5.327 -10.062  0.00  0.00    +0.000 C 
ATOM      3  C   UNL     1       0.607   5.298  -9.924  0.00  0.00    +0.006 C 
ATOM      4  C   UNL     1       0.036   5.435  -8.727  0.00  0.00    +0.069 C 
ATOM      5  C   UNL     1       0.839   5.264  -7.516  0.00  0.00    +0.221 C 
ATOM      6  N   UNL     1       0.289   5.364  -6.349  0.00  0.00    -0.189 N 
ATOM      7  C   UNL     1       2.243   4.944  -7.652  0.00  0.00    +0.069 C 
ATOM      8  C   UNL     1       2.798   4.983  -8.841  0.00  0.00    +0.006 C 
ENDROOT
BRANCH   1   9
ATOM      9  C   UNL     1       4.053   6.086 -11.215  0.00  0.00    +0.000 A 
ATOM     10  C   UNL     1       4.632   7.254 -10.735  0.00  0.00    +0.000 A 
ATOM     11  C   UNL     1       5.887   7.670 -11.162  0.00  0.00    +0.000 A 
ATOM     12  C   UNL     1       6.511   7.027 -12.201  0.00  0.00    +0.000 A 
ATOM     13  C   UNL     1       5.948   5.873 -12.680  0.00  0.00    +0.000 A 
ATOM     14  C   UNL     1       4.905   5.292 -11.969  0.00  0.00    +0.000 A 
ENDBRANCH   1   9
BRANCH   1  18
ATOM     15  C   UNL     1       0.639   6.983 -14.681  0.00  0.00    +0.048 A 
ATOM     16  C   UNL     1       0.655   7.833 -13.597  0.00  0.00    +0.015 A 
ATOM     17  C   UNL     1       1.004   7.315 -12.355  0.00  0.00    +0.001 A 
ATOM     18  C   UNL     1       1.791   6.180 -12.265  0.00  0.00    +0.000 A 
ATOM     19  C   UNL     1       1.797   5.378 -13.401  0.00  0.00    +0.001 A 
ATOM     20  C   UNL     1       0.971   5.651 -14.484  0.00  0.00    +0.015 A 
BRANCH  15  21
ATOM     21  N   UNL     1       0.243   7.514 -15.927  0.00  0.00    -0.307 N 
BRANCH  21  23
ATOM     22  C   UNL     1      -1.358   7.749 -17.774  0.00  0.00    +0.023 C 
ATOM     23  C   UNL     1      -0.955   6.955 -16.544  0.00  0.00    +0.091 C 
ENDBRANCH  21  23
BRANCH  21  24
ATOM     24  C   UNL     1       0.928   8.661 -16.514  0.00  0.00    +0.091 C 
ATOM     25  C   UNL     1       2.316   8.191 -16.912  0.00  0.00    +0.023 C 
ENDBRANCH  21  24
ENDBRANCH  15  21
ENDBRANCH   1  18
BRANCH   6  26
ATOM     26  C   UNL     1       0.903   4.576  -5.283  0.00  0.00    +0.317 C 
ATOM     27  C   UNL     1       1.528   5.532  -4.288  0.00  0.00    +0.092 C 
ENDBRANCH   6  26
BRANCH   6  28
ATOM     28  C   UNL     1      -1.149   5.590  -6.254  0.00  0.00    +0.317 C 
ATOM     29  C   UNL     1      -1.464   6.783  -5.394  0.00  0.00    +0.092 C 
ENDBRANCH   6  28
TORSDOF 7
ENDMDL
MODEL 5
REMARK VINA RESULT:      -7.5      2.274      8.335
REMARK  Name = 
REMARK  7 active torsions:
REMARK  status: ('A' for Active; 'I' for Inactive)
REMARK    1  A    between atoms: C_2  and  N_3
REMARK    2  A    between atoms: N_3  and  C_4
REMARK    3  A    between atoms: N_3  and  C_6
REMARK    4  A    between atoms: C_9  and  C_10
REMARK    5  A    between atoms: C_10  and  C_11
REMARK    6  A    between atoms: N_21  and  C_22
REMARK    7  A    between atoms: N_21  and  C_24
REMARK                            x       y       z     vdW  Elec       q    Type
REMARK                         _______ _______ _______ _____ _____    ______ ____
ROOT
ATOM      1  C   UNL     1       0.824   6.200  -5.227  0.00  0.00    +0.000 C 
ATOM      2  C   UNL     1       1.255   5.786  -6.393  0.00  0.00    +0.000 C 
ATOM      3  C   UNL     1       2.694   5.754  -6.687  0.00  0.00    +0.006 C 
ATOM      4  C   UNL     1       3.143   6.038  -7.910  0.00  0.00    +0.069 C 
ATOM      5  C   UNL     1       2.217   6.040  -9.041  0.00  0.00    +0.221 C 
ATOM      6  N   UNL     1       2.646   6.283 -10.237  0.00  0.00    -0.189 N 
ATOM      7  C   UNL     1       0.825   5.725  -8.801  0.00  0.00    +0.069 C 
ATOM      8  C   UNL     1       0.396   5.616  -7.566  0.00  0.00    +0.006 C 
ENDROOT
BRANCH   1   9
ATOM      9  C   UNL     1      -0.578   6.416  -4.951  0.00  0.00    +0.000 A 
ATOM     10  C   UNL     1      -1.071   7.700  -4.748  0.00  0.00    +0.000 A 
ATOM     11  C   UNL     1      -2.279   7.919  -4.098  0.00  0.00    +0.000 A 
ATOM     12  C   UNL     1      -2.931   6.879  -3.484  0.00  0.00    +0.000 A 
ATOM     13  C   UNL     1      -2.454   5.610  -3.680  0.00  0.00    +0.000 A 
ATOM     14  C   UNL     1      -1.476   5.403  -4.646  0.00  0.00    +0.000 A 
ENDBRANCH   1   9
BRANCH   1  18
ATOM     15  C   UNL     1       3.239   6.923  -1.829  0.00  0.00    +0.048 A 
ATOM     16  C   UNL     1       3.337   7.731  -2.942  0.00  0.00    +0.015 A 
ATOM     17  C   UNL     1       2.801   7.275  -4.140  0.00  0.00    +0.001 A 
ATOM     18  C   UNL     1       1.780   6.339  -4.141  0.00  0.00    +0.000 A 
ATOM     19  C   UNL     1       1.676   5.585  -2.978  0.00  0.00    +0.001 A 
ATOM     20  C   UNL     1       2.612   5.693  -1.957  0.00  0.00    +0.015 A 
BRANCH  15  21
ATOM     21  N   UNL     1       3.824   7.382  -0.630  0.00  0.00    -0.307 N 
BRANCH  21  23
ATOM     22  C   UNL     1       1.862   8.341   0.494  0.00  0.00    +0.023 C 
ATOM     23  C   UNL     1       3.264   8.590  -0.031  0.00  0.00    +0.091 C 
ENDBRANCH  21  23
BRANCH  21  24
ATOM     24  C   UNL     1       4.859   6.613   0.052  0.00  0.00    +0.091 C 
ATOM     25  C   UNL     1       5.343   7.460   1.216  0.00  0.00    +0.023 C 
ENDBRANCH  21  24
ENDBRANCH  15  21
ENDBRANCH   1  18
BRANCH   6  26
ATOM     26  C   UNL     1       1.905   5.651 -11.325  0.00  0.00    +0.317 C 
ATOM     27  C   UNL     1       1.444   6.735 -12.277  0.00  0.00    +0.092 C 
ENDBRANCH   6  26
BRANCH   6  28
ATOM     28  C   UNL     1       4.073   6.499 -10.453  0.00  0.00    +0.317 C 
ATOM     29  C   UNL     1       4.686   5.379 -11.250  0.00  0.00    +0.092 C 
ENDBRANCH   6  28
TORSDOF 7
ENDMDL
MODEL 6
REMARK VINA RESULT:      -7.4      3.166      5.901
REMARK  Name = 
REMARK  7 active torsions:
REMARK  status: ('A' for Active; 'I' for Inactive)
REMARK    1  A    between atoms: C_2  and  N_3
REMARK    2  A    between atoms: N_3  and  C_4
REMARK    3  A    between atoms: N_3  and  C_6
REMARK    4  A    between atoms: C_9  and  C_10
REMARK    5  A    between atoms: C_10  and  C_11
REMARK    6  A    between atoms: N_21  and  C_22
REMARK    7  A    between atoms: N_21  and  C_24
REMARK                            x       y       z     vdW  Elec       q    Type
REMARK                         _______ _______ _______ _____ _____    ______ ____
ROOT
ATOM      1  C   UNL     1       3.464   5.961 -11.355  0.00  0.00    +0.000 C 
ATOM      2  C   UNL     1       3.135   5.350 -10.243  0.00  0.00    +0.000 C 
ATOM      3  C   UNL     1       1.724   5.159  -9.886  0.00  0.00    +0.006 C 
ATOM      4  C   UNL     1       1.330   5.227  -8.614  0.00  0.00    +0.069 C 
ATOM      5  C   UNL     1       2.321   5.141  -7.542  0.00  0.00    +0.221 C 
ATOM      6  N   UNL     1       1.949   5.173  -6.304  0.00  0.00    -0.189 N 
ATOM      7  C   UNL     1       3.715   4.978  -7.895  0.00  0.00    +0.069 C 
ATOM      8  C   UNL     1       4.075   5.083  -9.153  0.00  0.00    +0.006 C 
ENDROOT
BRANCH   1   9
ATOM      9  C   UNL     1       4.827   6.328 -11.665  0.00  0.00    +0.000 A 
ATOM     10  C   UNL     1       5.671   5.435 -12.314  0.00  0.00    +0.000 A 
ATOM     11  C   UNL     1       7.052   5.579 -12.268  0.00  0.00    +0.000 A 
ATOM     12  C   UNL     1       7.623   6.506 -11.432  0.00  0.00    +0.000 A 
ATOM     13  C   UNL     1       6.798   7.391 -10.788  0.00  0.00    +0.000 A 
ATOM     14  C   UNL     1       5.461   7.455 -11.163  0.00  0.00    +0.000 A 
ENDBRANCH   1   9
BRANCH   1  18
ATOM     15  C   UNL     1       0.817   6.936 -14.508  0.00  0.00    +0.048 A 
ATOM     16  C   UNL     1       0.780   7.637 -13.322  0.00  0.00    +0.015 A 
ATOM     17  C   UNL     1       1.402   7.086 -12.208  0.00  0.00    +0.001 A 
ATOM     18  C   UNL     1       2.435   6.177 -12.360  0.00  0.00    +0.000 A 
ATOM     19  C   UNL     1       2.475   5.534 -13.591  0.00  0.00    +0.001 A 
ATOM     20  C   UNL     1       1.471   5.714 -14.536  0.00  0.00    +0.015 A 
BRANCH  15  21
ATOM     21  N   UNL     1       0.147   7.489 -15.620  0.00  0.00    -0.307 N 
BRANCH  21  23
ATOM     22  C   UNL     1       1.972   8.808 -16.601  0.00  0.00    +0.023 C 
ATOM     23  C   UNL     1       0.555   8.821 -16.054  0.00  0.00    +0.091 C 
ENDBRANCH  21  23
BRANCH  21  24
ATOM     24  C   UNL     1      -0.824   6.713 -16.384  0.00  0.00    +0.091 C 
ATOM     25  C   UNL     1      -1.356   7.623 -17.477  0.00  0.00    +0.023 C 
ENDBRANCH  21  24
ENDBRANCH  15  21
ENDBRANCH   1  18
BRANCH   6  26
ATOM     26  C   UNL     1       2.799   4.454  -5.359  0.00  0.00    +0.317 C 
ATOM     27  C   UNL     1       3.280   5.436  -4.312  0.00  0.00    +0.092 C 
ENDBRANCH   6  26
BRANCH   6  28
ATOM     28  C   UNL     1       0.526   5.239  -5.988  0.00  0.00    +0.317 C 
ATOM     29  C   UNL     1       0.112   6.630  -5.592  0.00  0.00    +0.092 C 
ENDBRANCH   6  28
TORSDOF 7
ENDMDL
MODEL 7
REMARK VINA RESULT:      -7.3      1.940      7.436
REMARK  Name = 
REMARK  7 active torsions:
REMARK  status: ('A' for Active; 'I' for Inactive)
REMARK    1  A    between atoms: C_2  and  N_3
REMARK    2  A    between atoms: N_3  and  C_4
REMARK    3  A    between atoms: N_3  and  C_6
REMARK    4  A    between atoms: C_9  and  C_10
REMARK    5  A    between atoms: C_10  and  C_11
REMARK    6  A    between atoms: N_21  and  C_22
REMARK    7  A    between atoms: N_21  and  C_24
REMARK                            x       y       z     vdW  Elec       q    Type
REMARK                         _______ _______ _______ _____ _____    ______ ____
ROOT
ATOM      1  C   UNL     1       1.913   6.009 -11.001  0.00  0.00    +0.000 C 
ATOM      2  C   UNL     1       3.154   5.590 -11.047  0.00  0.00    +0.000 C 
ATOM      3  C   UNL     1       4.001   5.640  -9.849  0.00  0.00    +0.006 C 
ATOM      4  C   UNL     1       5.302   5.916  -9.950  0.00  0.00    +0.069 C 
ATOM      5  C   UNL     1       5.965   5.826 -11.250  0.00  0.00    +0.221 C 
ATOM      6  N   UNL     1       7.233   6.061 -11.355  0.00  0.00    -0.189 N 
ATOM      7  C   UNL     1       5.184   5.431 -12.402  0.00  0.00    +0.069 C 
ATOM      8  C   UNL     1       3.880   5.331 -12.291  0.00  0.00    +0.006 C 
ENDROOT
BRANCH   1   9
ATOM      9  C   UNL     1       1.096   6.145 -12.186  0.00  0.00    +0.000 A 
ATOM     10  C   UNL     1       0.893   5.063 -13.035  0.00  0.00    +0.000 A 
ATOM     11  C   UNL     1       0.475   5.241 -14.348  0.00  0.00    +0.000 A 
ATOM     12  C   UNL     1       0.422   6.499 -14.892  0.00  0.00    +0.000 A 
ATOM     13  C   UNL     1       0.619   7.572 -14.062  0.00  0.00    +0.000 A 
ATOM     14  C   UNL     1       0.652   7.359 -12.689  0.00  0.00    +0.000 A 
ENDBRANCH   1   9
BRANCH   1  18
ATOM     15  C   UNL     1       0.496   6.324  -7.027  0.00  0.00    +0.048 A 
ATOM     16  C   UNL     1      -0.068   5.419  -7.900  0.00  0.00    +0.015 A 
ATOM     17  C   UNL     1       0.173   5.574  -9.260  0.00  0.00    +0.001 A 
ATOM     18  C   UNL     1       1.304   6.240  -9.701  0.00  0.00    +0.000 A 
ATOM     19  C   UNL     1       1.878   7.099  -8.771  0.00  0.00    +0.001 A 
ATOM     20  C   UNL     1       1.275   7.348  -7.544  0.00  0.00    +0.015 A 
BRANCH  15  21
ATOM     21  N   UNL     1       0.210   6.177  -5.653  0.00  0.00    -0.307 N 
BRANCH  21  23
ATOM     22  C   UNL     1      -2.100   6.874  -5.193  0.00  0.00    +0.023 C 
ATOM     23  C   UNL     1      -0.625   7.198  -5.029  0.00  0.00    +0.091 C 
ENDBRANCH  21  23
BRANCH  21  24
ATOM     24  C   UNL     1       0.624   4.988  -4.915  0.00  0.00    +0.091 C 
ATOM     25  C   UNL     1       2.127   5.089  -4.722  0.00  0.00    +0.023 C 
ENDBRANCH  21  24
ENDBRANCH  15  21
ENDBRANCH   1  18
BRANCH   6  26
ATOM     26  C   UNL     1       7.929   5.352 -12.425  0.00  0.00    +0.317 C 
ATOM     27  C   UNL     1       9.373   5.810 -12.434  0.00  0.00    +0.092 C 
ENDBRANCH   6  26
BRANCH   6  28
ATOM     28  C   UNL     1       8.005   6.360 -10.154  0.00  0.00    +0.317 C 
ATOM     29  C   UNL     1       8.115   7.842  -9.923  0.00  0.00    +0.092 C 
ENDBRANCH   6  28
TORSDOF 7
ENDMDL
MODEL 8
REMARK VINA RESULT:      -7.2      1.414      7.683
REMARK  Name = 
REMARK  7 active torsions:
REMARK  status: ('A' for Active; 'I' for Inactive)
REMARK    1  A    between atoms: C_2  and  N_3
REMARK    2  A    between atoms: N_3  and  C_4
REMARK    3  A    between atoms: N_3  and  C_6
REMARK    4  A    between atoms: C_9  and  C_10
REMARK    5  A    between atoms: C_10  and  C_11
REMARK    6  A    between atoms: N_21  and  C_22
REMARK    7  A    between atoms: N_21  and  C_24
REMARK                            x       y       z     vdW  Elec       q    Type
REMARK                         _______ _______ _______ _____ _____    ______ ____
ROOT
ATOM      1  C   UNL     1       2.029   5.518  -8.946  0.00  0.00    +0.000 C 
ATOM      2  C   UNL     1       3.212   5.203  -9.415  0.00  0.00    +0.000 C 
ATOM      3  C   UNL     1       4.390   5.222  -8.540  0.00  0.00    +0.006 C 
ATOM      4  C   UNL     1       5.578   5.608  -9.010  0.00  0.00    +0.069 C 
ATOM      5  C   UNL     1       5.800   5.674 -10.453  0.00  0.00    +0.221 C 
ATOM      6  N   UNL     1       6.957   6.016 -10.921  0.00  0.00    -0.189 N 
ATOM      7  C   UNL     1       4.716   5.314 -11.341  0.00  0.00    +0.069 C 
ATOM      8  C   UNL     1       3.521   5.103 -10.842  0.00  0.00    +0.006 C 
ENDROOT
BRANCH   1   9
ATOM      9  C   UNL     1       0.875   5.684  -9.800  0.00  0.00    +0.000 A 
ATOM     10  C   UNL     1       0.353   4.606 -10.504  0.00  0.00    +0.000 A 
ATOM     11  C   UNL     1      -0.465   4.791 -11.612  0.00  0.00    +0.000 A 
ATOM     12  C   UNL     1      -0.636   6.044 -12.143  0.00  0.00    +0.000 A 
ATOM     13  C   UNL     1      -0.127   7.114 -11.454  0.00  0.00    +0.000 A 
ATOM     14  C   UNL     1       0.348   6.915 -10.163  0.00  0.00    +0.000 A 
ENDBRANCH   1   9
BRANCH   1  18
ATOM     15  C   UNL     1       0.979   5.728  -4.853  0.00  0.00    +0.048 A 
ATOM     16  C   UNL     1       1.164   6.880  -5.587  0.00  0.00    +0.015 A 
ATOM     17  C   UNL     1       1.832   6.789  -6.803  0.00  0.00    +0.001 A 
ATOM     18  C   UNL     1       1.851   5.596  -7.505  0.00  0.00    +0.000 A 
ATOM     19  C   UNL     1       1.600   4.462  -6.741  0.00  0.00    +0.001 A 
ATOM     20  C   UNL     1       1.466   4.533  -5.360  0.00  0.00    +0.015 A 
BRANCH  15  21
ATOM     21  N   UNL     1       0.336   5.843  -3.602  0.00  0.00    -0.307 N 
BRANCH  21  23
ATOM     22  C   UNL     1       2.242   6.339  -2.135  0.00  0.00    +0.023 C 
ATOM     23  C   UNL     1       1.079   5.407  -2.424  0.00  0.00    +0.091 C 
ENDBRANCH  21  23
BRANCH  21  24
ATOM     24  C   UNL     1      -0.967   6.488  -3.475  0.00  0.00    +0.091 C 
ATOM     25  C   UNL     1      -1.934   5.434  -2.967  0.00  0.00    +0.023 C 
ENDBRANCH  21  24
ENDBRANCH  15  21
ENDBRANCH   1  18
BRANCH   6  26
ATOM     26  C   UNL     1       7.315   5.452 -12.220  0.00  0.00    +0.317 C 
ATOM     27  C   UNL     1       8.772   5.770 -12.488  0.00  0.00    +0.092 C 
ENDBRANCH   6  26
BRANCH   6  28
ATOM     28  C   UNL     1       8.053   6.277  -9.994  0.00  0.00    +0.317 C 
ATOM     29  C   UNL     1       8.248   7.752  -9.772  0.00  0.00    +0.092 C 
ENDBRANCH   6  28
TORSDOF 7
ENDMDL
MODEL 9
REMARK VINA RESULT:      -6.9      2.161      8.081
REMARK  Name = 
REMARK  7 active torsions:
REMARK  status: ('A' for Active; 'I' for Inactive)
REMARK    1  A    between atoms: C_2  and  N_3
REMARK    2  A    between atoms: N_3  and  C_4
REMARK    3  A    between atoms: N_3  and  C_6
REMARK    4  A    between atoms: C_9  and  C_10
REMARK    5  A    between atoms: C_10  and  C_11
REMARK    6  A    between atoms: N_21  and  C_22
REMARK    7  A    between atoms: N_21  and  C_24
REMARK                            x       y       z     vdW  Elec       q    Type
REMARK                         _______ _______ _______ _____ _____    ______ ____
ROOT
ATOM      1  C   UNL     1       2.279   5.701  -5.543  0.00  0.00    +0.000 C 
ATOM      2  C   UNL     1       2.976   5.340  -6.592  0.00  0.00    +0.000 C 
ATOM      3  C   UNL     1       4.419   5.603  -6.654  0.00  0.00    +0.006 C 
ATOM      4  C   UNL     1       5.001   5.925  -7.811  0.00  0.00    +0.069 C 
ATOM      5  C   UNL     1       4.298   5.680  -9.069  0.00  0.00    +0.221 C 
ATOM      6  N   UNL     1       4.864   5.959 -10.199  0.00  0.00    -0.189 N 
ATOM      7  C   UNL     1       2.979   5.087  -9.026  0.00  0.00    +0.069 C 
ATOM      8  C   UNL     1       2.379   4.941  -7.868  0.00  0.00    +0.006 C 
ENDROOT
BRANCH   1   9
ATOM      9  C   UNL     1       0.836   5.625  -5.506  0.00  0.00    +0.000 A 
ATOM     10  C   UNL     1       0.141   4.877  -6.449  0.00  0.00    +0.000 A 
ATOM     11  C   UNL     1      -1.208   5.096  -6.698  0.00  0.00    +0.000 A 
ATOM     12  C   UNL     1      -1.846   6.178  -6.144  0.00  0.00    +0.000 A 
ATOM     13  C   UNL     1      -1.170   6.921  -5.213  0.00  0.00    +0.000 A 
ATOM     14  C   UNL     1       0.035   6.436  -4.715  0.00  0.00    +0.000 A 
ENDBRANCH   1   9
BRANCH   1  18
ATOM     15  C   UNL     1       3.861   6.922  -1.813  0.00  0.00    +0.048 A 
ATOM     16  C   UNL     1       3.684   7.836  -2.831  0.00  0.00    +0.015 A 
ATOM     17  C   UNL     1       3.497   7.359  -4.123  0.00  0.00    +0.001 A 
ATOM     18  C   UNL     1       2.990   6.088  -4.334  0.00  0.00    +0.000 A 
ATOM     19  C   UNL     1       3.133   5.213  -3.264  0.00  0.00    +0.001 A 
ATOM     20  C   UNL     1       3.844   5.571  -2.125  0.00  0.00    +0.015 A 
BRANCH  15  21
ATOM     21  N   UNL     1       4.090   7.422  -0.514  0.00  0.00    -0.307 N 
BRANCH  21  23
ATOM     22  C   UNL     1       1.853   7.895   0.384  0.00  0.00    +0.023 C 
ATOM     23  C   UNL     1       3.196   8.470  -0.031  0.00  0.00    +0.091 C 
ENDBRANCH  21  23
BRANCH  21  24
ATOM     24  C   UNL     1       5.097   6.829   0.360  0.00  0.00    +0.091 C 
ATOM     25  C   UNL     1       5.337   7.816   1.489  0.00  0.00    +0.023 C 
ENDBRANCH  21  24
ENDBRANCH  15  21
ENDBRANCH   1  18
BRANCH   6  26
ATOM     26  C   UNL     1       4.462   5.138 -11.337  0.00  0.00    +0.317 C 
ATOM     27  C   UNL     1       3.664   6.006 -12.289  0.00  0.00    +0.092 C 
ENDBRANCH   6  26
BRANCH   6  28
ATOM     28  C   UNL     1       6.233   6.465 -10.205  0.00  0.00    +0.317 C 
ATOM     29  C   UNL     1       7.097   5.705 -11.174  0.00  0.00    +0.092 C 
ENDBRANCH   6  28
TORSDOF 7
ENDMDL
