MODEL 1
REMARK VINA RESULT:      -8.5      0.000      0.000
REMARK  Name = 
REMARK  1 active torsions:
REMARK  status: ('A' for Active; 'I' for Inactive)
REMARK    1  A    between atoms: C_11  and  C_12
REMARK                            x       y       z     vdW  Elec       q    Type
REMARK                         _______ _______ _______ _____ _____    ______ ____
ROOT
ATOM      1  O   UNL     1       0.986   5.057 -14.062  0.00  0.00    -0.268 OA
ATOM      2  C   UNL     1       1.473   5.010 -13.269  0.00  0.00    +0.300 C 
ATOM      3  C   UNL     1       2.657   6.089 -13.611  0.00  0.00    +0.333 C 
ATOM      4  O   UNL     1       3.297   5.146 -14.638  0.00  0.00    -0.186 OA
ATOM      5  N   UNL     1       3.616   5.590 -12.429  0.00  0.00    -0.233 NA
ATOM      6  C   UNL     1       3.500   6.347 -11.369  0.00  0.00    +0.080 C 
ATOM      7  C   UNL     1       2.323   6.295 -10.476  0.00  0.00    +0.034 A 
ATOM      8  C   UNL     1       1.107   5.672 -10.746  0.00  0.00    +0.075 A 
ATOM      9  C   UNL     1       0.298   5.141  -9.742  0.00  0.00    +0.018 A 
ATOM     10  C   UNL     1       0.454   5.724  -8.492  0.00  0.00    +0.013 A 
ATOM     11  C   UNL     1       1.502   6.613  -8.281  0.00  0.00    +0.058 A 
ATOM     12 CL   UNL     1       1.675   7.243  -6.645  0.00  0.00    -0.082 Cl
ATOM     13  C   UNL     1       2.554   6.661  -9.190  0.00  0.00    +0.014 A 
ATOM     14  N   UNL     1       0.796   5.101 -12.023  0.00  0.00    -0.175 NA
ENDROOT
BRANCH   6  15
ATOM     15  C   UNL     1       4.707   6.700 -10.613  0.00  0.00    +0.017 A 
ATOM     16  C   UNL     1       5.290   5.783  -9.764  0.00  0.00    +0.001 A 
ATOM     17  C   UNL     1       6.642   5.606  -9.684  0.00  0.00    +0.000 A 
ATOM     18  C   UNL     1       7.426   6.517 -10.338  0.00  0.00    +0.000 A 
ATOM     19  C   UNL     1       6.879   7.650 -10.916  0.00  0.00    +0.000 A 
ATOM     20  C   UNL     1       5.507   7.692 -11.122  0.00  0.00    +0.001 A 
ENDBRANCH   6  15
TORSDOF 1
ENDMDL
MODEL 2
REMARK VINA RESULT:      -8.4      7.138      8.191
REMARK  Name = 
REMARK  1 active torsions:
REMARK  status: ('A' for Active; 'I' for Inactive)
REMARK    1  A    between atoms: C_11  and  C_12
REMARK                            x       y       z     vdW  Elec       q    Type
REMARK                         _______ _______ _______ _____ _____    ______ ____
ROOT
ATOM      1  O   UNL     1      -1.638   5.375  -1.126  0.00  0.00    -0.268 OA
ATOM      2  C   UNL     1      -1.175   5.745  -1.846  0.00  0.00    +0.300 C 
ATOM      3  C   UNL     1       0.285   5.037  -1.623  0.00  0.00    +0.333 C 
ATOM      4  O   UNL     1       0.566   5.880  -0.373  0.00  0.00    -0.186 OA
ATOM      5  N   UNL     1       1.058   6.057  -2.588  0.00  0.00    -0.233 NA
ATOM      6  C   UNL     1       1.214   5.555  -3.786  0.00  0.00    +0.080 C 
ATOM      7  C   UNL     1       0.101   5.437  -4.753  0.00  0.00    +0.034 A 
ATOM      8  C   UNL     1      -1.256   5.578  -4.473  0.00  0.00    +0.075 A 
ATOM      9  C   UNL     1      -2.171   6.040  -5.418  0.00  0.00    +0.018 A 
ATOM     10  C   UNL     1      -1.810   5.826  -6.740  0.00  0.00    +0.013 A 
ATOM     11  C   UNL     1      -0.527   5.375  -7.031  0.00  0.00    +0.058 A 
ATOM     12 CL   UNL     1      -0.126   5.207  -8.738  0.00  0.00    -0.082 Cl
ATOM     13  C   UNL     1       0.465   5.455  -6.060  0.00  0.00    +0.014 A 
ATOM     14  N   UNL     1      -1.760   5.727  -3.140  0.00  0.00    -0.175 NA
ENDROOT
BRANCH   6  15
ATOM     15  C   UNL     1       2.486   5.769  -4.485  0.00  0.00    +0.017 A 
ATOM     16  C   UNL     1       2.976   7.045  -4.663  0.00  0.00    +0.001 A 
ATOM     17  C   UNL     1       4.295   7.360  -4.497  0.00  0.00    +0.000 A 
ATOM     18  C   UNL     1       5.166   6.315  -4.340  0.00  0.00    +0.000 A 
ATOM     19  C   UNL     1       4.750   5.004  -4.500  0.00  0.00    +0.000 A 
ATOM     20  C   UNL     1       3.389   4.736  -4.490  0.00  0.00    +0.001 A 
ENDBRANCH   6  15
TORSDOF 1
ENDMDL
MODEL 3
REMARK VINA RESULT:      -8.3      3.694      4.811
REMARK  Name = 
REMARK  1 active torsions:
REMARK  status: ('A' for Active; 'I' for Inactive)
REMARK    1  A    between atoms: C_11  and  C_12
REMARK                            x       y       z     vdW  Elec       q    Type
REMARK                         _______ _______ _______ _____ _____    ______ ____
ROOT
ATOM      1  O   UNL     1       1.453   4.942 -10.456  0.00  0.00    -0.268 OA
ATOM      2  C   UNL     1       1.420   4.851  -9.528  0.00  0.00    +0.300 C 
ATOM      3  C   UNL     1       2.750   5.716  -9.121  0.00  0.00    +0.333 C 
ATOM      4  O   UNL     1       3.690   4.644  -9.687  0.00  0.00    -0.186 OA
ATOM      5  N   UNL     1       2.828   5.120  -7.636  0.00  0.00    -0.233 NA
ATOM      6  C   UNL     1       2.273   5.927  -6.768  0.00  0.00    +0.080 C 
ATOM      7  C   UNL     1       0.809   6.096  -6.656  0.00  0.00    +0.034 A 
ATOM      8  C   UNL     1      -0.146   5.662  -7.572  0.00  0.00    +0.075 A 
ATOM      9  C   UNL     1      -1.439   5.305  -7.192  0.00  0.00    +0.018 A 
ATOM     10  C   UNL     1      -1.897   5.905  -6.028  0.00  0.00    +0.013 A 
ATOM     11  C   UNL     1      -1.007   6.626  -5.239  0.00  0.00    +0.058 A 
ATOM     12 CL   UNL     1      -1.653   7.286  -3.738  0.00  0.00    -0.082 Cl
ATOM     13  C   UNL     1       0.361   6.472  -5.432  0.00  0.00    +0.014 A 
ATOM     14  N   UNL     1       0.200   5.096  -8.842  0.00  0.00    -0.175 NA
ENDROOT
BRANCH   6  15
ATOM     15  C   UNL     1       2.918   6.117  -5.463  0.00  0.00    +0.017 A 
ATOM     16  C   UNL     1       3.196   5.030  -4.661  0.00  0.00    +0.001 A 
ATOM     17  C   UNL     1       4.368   4.902  -3.972  0.00  0.00    +0.000 A 
ATOM     18  C   UNL     1       5.193   5.995  -3.943  0.00  0.00    +0.000 A 
ATOM     19  C   UNL     1       4.784   7.215  -4.453  0.00  0.00    +0.000 A 
ATOM     20  C   UNL     1       3.675   7.247  -5.287  0.00  0.00    +0.001 A 
ENDBRANCH   6  15
TORSDOF 1
ENDMDL
MODEL 4
REMARK VINA RESULT:      -8.2      4.271      5.765
REMARK  Name = 
REMARK  1 active torsions:
REMARK  status: ('A' for Active; 'I' for Inactive)
REMARK    1  A    between atoms: C_11  and  C_12
REMARK                            x       y       z     vdW  Elec       q    Type
REMARK                         _______ _______ _______ _____ _____    ______ ____
ROOT
ATOM      1  O   UNL     1      -0.345   5.349  -8.517  0.00  0.00    -0.268 OA
ATOM      2  C   UNL     1       0.465   5.747  -8.285  0.00  0.00    +0.300 C 
ATOM      3  C   UNL     1       0.694   5.061  -6.814  0.00  0.00    +0.333 C 
ATOM      4  O   UNL     1      -0.450   5.874  -6.195  0.00  0.00    -0.186 OA
ATOM      5  N   UNL     1       1.806   6.121  -6.362  0.00  0.00    -0.233 NA
ATOM      6  C   UNL     1       3.014   5.657  -6.552  0.00  0.00    +0.080 C 
ATOM      7  C   UNL     1       3.624   5.544  -7.894  0.00  0.00    +0.034 A 
ATOM      8  C   UNL     1       2.962   5.651  -9.115  0.00  0.00    +0.075 A 
ATOM      9  C   UNL     1       3.590   6.123 -10.268  0.00  0.00    +0.018 A 
ATOM     10  C   UNL     1       4.966   5.952 -10.300  0.00  0.00    +0.013 A 
ATOM     11  C   UNL     1       5.627   5.534  -9.150  0.00  0.00    +0.058 A 
ATOM     12 CL   UNL     1       7.382   5.421  -9.255  0.00  0.00    -0.082 Cl
ATOM     13  C   UNL     1       4.980   5.605  -7.921  0.00  0.00    +0.014 A 
ATOM     14  N   UNL     1       1.537   5.754  -9.217  0.00  0.00    -0.175 NA
ENDROOT
BRANCH   6  15
ATOM     15  C   UNL     1       4.041   5.914  -5.536  0.00  0.00    +0.017 A 
ATOM     16  C   UNL     1       4.345   7.207  -5.166  0.00  0.00    +0.001 A 
ATOM     17  C   UNL     1       4.555   7.572  -3.867  0.00  0.00    +0.000 A 
ATOM     18  C   UNL     1       4.654   6.563  -2.947  0.00  0.00    +0.000 A 
ATOM     19  C   UNL     1       4.695   5.236  -3.340  0.00  0.00    +0.000 A 
ATOM     20  C   UNL     1       4.304   4.916  -4.632  0.00  0.00    +0.001 A 
ENDBRANCH   6  15
TORSDOF 1
ENDMDL
MODEL 5
REMARK VINA RESULT:      -8.1      6.167      8.615
REMARK  Name = 
REMARK  1 active torsions:
REMARK  status: ('A' for Active; 'I' for Inactive)
REMARK    1  A    between atoms: C_11  and  C_12
REMARK                            x       y       z     vdW  Elec       q    Type
REMARK                         _______ _______ _______ _____ _____    ______ ____
ROOT
ATOM      1  O   UNL     1       3.310   5.209  -1.451  0.00  0.00    -0.268 OA
ATOM      2  C   UNL     1       2.908   5.124  -2.288  0.00  0.00    +0.300 C 
ATOM      3  C   UNL     1       1.638   6.138  -2.085  0.00  0.00    +0.333 C 
ATOM      4  O   UNL     1       0.952   5.175  -1.108  0.00  0.00    -0.186 OA
ATOM      5  N   UNL     1       0.830   5.569  -3.346  0.00  0.00    -0.233 NA
ATOM      6  C   UNL     1       1.010   6.317  -4.405  0.00  0.00    +0.080 C 
ATOM      7  C   UNL     1       2.271   6.320  -5.176  0.00  0.00    +0.034 A 
ATOM      8  C   UNL     1       3.486   5.770  -4.774  0.00  0.00    +0.075 A 
ATOM      9  C   UNL     1       4.420   5.273  -5.684  0.00  0.00    +0.018 A 
ATOM     10  C   UNL     1       4.357   5.829  -6.953  0.00  0.00    +0.013 A 
ATOM     11  C   UNL     1       3.287   6.653  -7.284  0.00  0.00    +0.058 A 
ATOM     12 CL   UNL     1       3.244   7.250  -8.941  0.00  0.00    -0.082 Cl
ATOM     13  C   UNL     1       2.149   6.654  -6.485  0.00  0.00    +0.014 A 
ATOM     14  N   UNL     1       3.699   5.236  -3.462  0.00  0.00    -0.175 NA
ENDROOT
BRANCH   6  15
ATOM     15  C   UNL     1      -0.134   6.591  -5.282  0.00  0.00    +0.017 A 
ATOM     16  C   UNL     1      -0.578   5.630  -6.166  0.00  0.00    +0.001 A 
ATOM     17  C   UNL     1      -1.904   5.375  -6.375  0.00  0.00    +0.000 A 
ATOM     18  C   UNL     1      -2.798   6.251  -5.821  0.00  0.00    +0.000 A 
ATOM     19  C   UNL     1      -2.374   7.421  -5.214  0.00  0.00    +0.000 A 
ATOM     20  C   UNL     1      -1.034   7.543  -4.875  0.00  0.00    +0.001 A 
ENDBRANCH   6  15
TORSDOF 1
ENDMDL
MODEL 6
REMARK VINA RESULT:      -8.1      3.401      4.126
REMARK  Name = 
REMARK  1 active torsions:
REMARK  status: ('A' for Active; 'I' for Inactive)
REMARK    1  A    between atoms: C_11  and  C_12
REMARK                            x       y       z     vdW  Elec       q    Type
REMARK                         _______ _______ _______ _____ _____    ______ ____
ROOT
ATOM      1  O   UNL     1       1.859   5.020  -6.957  0.00  0.00    -0.268 OA
ATOM      2  C   UNL     1       2.117   5.567  -7.666  0.00  0.00    +0.300 C 
ATOM      3  C   UNL     1       3.554   4.873  -8.037  0.00  0.00    +0.333 C 
ATOM      4  O   UNL     1       4.203   5.397  -6.750  0.00  0.00    -0.186 OA
ATOM      5  N   UNL     1       4.066   6.119  -8.903  0.00  0.00    -0.233 NA
ATOM      6  C   UNL     1       3.863   5.927 -10.182  0.00  0.00    +0.080 C 
ATOM      7  C   UNL     1       2.522   6.010 -10.799  0.00  0.00    +0.034 A 
ATOM      8  C   UNL     1       1.303   6.036 -10.126  0.00  0.00    +0.075 A 
ATOM      9  C   UNL     1       0.180   6.684 -10.639  0.00  0.00    +0.018 A 
ATOM     10  C   UNL     1       0.151   6.807 -12.020  0.00  0.00    +0.013 A 
ATOM     11  C   UNL     1       1.284   6.480 -12.757  0.00  0.00    +0.058 A 
ATOM     12 CL   UNL     1       1.188   6.743 -14.496  0.00  0.00    -0.082 Cl
ATOM     13  C   UNL     1       2.509   6.355 -12.111  0.00  0.00    +0.014 A 
ATOM     14  N   UNL     1       1.195   5.844  -8.711  0.00  0.00    -0.175 NA
ENDROOT
BRANCH   6  15
ATOM     15  C   UNL     1       4.899   6.343 -11.135  0.00  0.00    +0.017 A 
ATOM     16  C   UNL     1       5.508   7.573 -11.007  0.00  0.00    +0.001 A 
ATOM     17  C   UNL     1       6.850   7.754 -11.180  0.00  0.00    +0.000 A 
ATOM     18  C   UNL     1       7.558   6.698 -11.686  0.00  0.00    +0.000 A 
ATOM     19  C   UNL     1       6.917   5.560 -12.147  0.00  0.00    +0.000 A 
ATOM     20  C   UNL     1       5.591   5.357 -11.790  0.00  0.00    +0.001 A 
ENDBRANCH   6  15
TORSDOF 1
ENDMDL
MODEL 7
REMARK VINA RESULT:      -8.1      3.601      5.567
REMARK  Name = 
REMARK  1 active torsions:
REMARK  status: ('A' for Active; 'I' for Inactive)
REMARK    1  A    between atoms: C_11  and  C_12
REMARK                            x       y       z     vdW  Elec       q    Type
REMARK                         _______ _______ _______ _____ _____    ______ ____
ROOT
ATOM      1  O   UNL     1       4.776   5.444  -6.364  0.00  0.00    -0.268 OA
ATOM      2  C   UNL     1       3.989   5.798  -6.716  0.00  0.00    +0.300 C 
ATOM      3  C   UNL     1       3.896   4.930  -8.103  0.00  0.00    +0.333 C 
ATOM      4  O   UNL     1       5.089   5.676  -8.716  0.00  0.00    -0.186 OA
ATOM      5  N   UNL     1       2.826   5.909  -8.783  0.00  0.00    -0.233 NA
ATOM      6  C   UNL     1       1.607   5.454  -8.644  0.00  0.00    +0.080 C 
ATOM      7  C   UNL     1       0.878   5.502  -7.358  0.00  0.00    +0.034 A 
ATOM      8  C   UNL     1       1.427   5.771  -6.107  0.00  0.00    +0.075 A 
ATOM      9  C   UNL     1       0.696   6.374  -5.084  0.00  0.00    +0.018 A 
ATOM     10  C   UNL     1      -0.677   6.189  -5.153  0.00  0.00    +0.013 A 
ATOM     11  C   UNL     1      -1.230   5.620  -6.295  0.00  0.00    +0.058 A 
ATOM     12 CL   UNL     1      -2.987   5.496  -6.334  0.00  0.00    -0.082 Cl
ATOM     13  C   UNL     1      -0.474   5.546  -7.460  0.00  0.00    +0.014 A 
ATOM     14  N   UNL     1       2.837   5.907  -5.892  0.00  0.00    -0.175 NA
ENDROOT
BRANCH   6  15
ATOM     15  C   UNL     1       0.675   5.567  -9.772  0.00  0.00    +0.017 A 
ATOM     16  C   UNL     1       0.387   6.801 -10.316  0.00  0.00    +0.001 A 
ATOM     17  C   UNL     1       0.293   7.010 -11.663  0.00  0.00    +0.000 A 
ATOM     18  C   UNL     1       0.296   5.900 -12.464  0.00  0.00    +0.000 A 
ATOM     19  C   UNL     1       0.239   4.626 -11.925  0.00  0.00    +0.000 A 
ATOM     20  C   UNL     1       0.512   4.465 -10.574  0.00  0.00    +0.001 A 
ENDBRANCH   6  15
TORSDOF 1
ENDMDL
MODEL 8
REMARK VINA RESULT:      -7.9      3.587      6.435
REMARK  Name = 
REMARK  1 active torsions:
REMARK  status: ('A' for Active; 'I' for Inactive)
REMARK    1  A    between atoms: C_11  and  C_12
REMARK                            x       y       z     vdW  Elec       q    Type
REMARK                         _______ _______ _______ _____ _____    ______ ____
ROOT
ATOM      1  O   UNL     1       2.763   5.429 -10.365  0.00  0.00    -0.268 OA
ATOM      2  C   UNL     1       2.547   5.785  -9.530  0.00  0.00    +0.300 C 
ATOM      3  C   UNL     1       1.035   5.177  -9.358  0.00  0.00    +0.333 C 
ATOM      4  O   UNL     1       0.478   6.103 -10.447  0.00  0.00    -0.186 OA
ATOM      5  N   UNL     1       0.637   6.186  -8.179  0.00  0.00    -0.233 NA
ATOM      6  C   UNL     1       0.786   5.629  -7.004  0.00  0.00    +0.080 C 
ATOM      7  C   UNL     1       2.112   5.393  -6.395  0.00  0.00    +0.034 A 
ATOM      8  C   UNL     1       3.343   5.469  -7.040  0.00  0.00    +0.075 A 
ATOM      9  C   UNL     1       4.517   5.824  -6.375  0.00  0.00    +0.018 A 
ATOM     10  C   UNL     1       4.524   5.559  -5.014  0.00  0.00    +0.013 A 
ATOM     11  C   UNL     1       3.344   5.169  -4.389  0.00  0.00    +0.058 A 
ATOM     12 CL   UNL     1       3.424   4.931  -2.646  0.00  0.00    -0.082 Cl
ATOM     13  C   UNL     1       2.129   5.360  -5.038  0.00  0.00    +0.014 A 
ATOM     14  N   UNL     1       3.466   5.661  -8.455  0.00  0.00    -0.175 NA
ENDROOT
BRANCH   6  15
ATOM     15  C   UNL     1      -0.223   5.879  -5.968  0.00  0.00    +0.017 A 
ATOM     16  C   UNL     1      -0.170   7.028  -5.208  0.00  0.00    +0.001 A 
ATOM     17  C   UNL     1      -1.282   7.756  -4.893  0.00  0.00    +0.000 A 
ATOM     18  C   UNL     1      -2.495   7.196  -5.190  0.00  0.00    +0.000 A 
ATOM     19  C   UNL     1      -2.590   5.890  -5.642  0.00  0.00    +0.000 A 
ATOM     20  C   UNL     1      -1.442   5.265  -6.108  0.00  0.00    +0.001 A 
ENDBRANCH   6  15
TORSDOF 1
ENDMDL
MODEL 9
REMARK VINA RESULT:      -7.9      5.419      7.958
REMARK  Name = 
REMARK  1 active torsions:
REMARK  status: ('A' for Active; 'I' for Inactive)
REMARK    1  A    between atoms: C_11  and  C_12
REMARK                            x       y       z     vdW  Elec       q    Type
REMARK                         _______ _______ _______ _____ _____    ______ ____
ROOT
ATOM      1  O   UNL     1       4.506   4.967  -4.063  0.00  0.00    -0.268 OA
ATOM      2  C   UNL     1       3.667   4.847  -4.451  0.00  0.00    +0.300 C 
ATOM      3  C   UNL     1       2.858   6.081  -3.739  0.00  0.00    +0.333 C 
ATOM      4  O   UNL     1       2.874   5.378  -2.375  0.00  0.00    -0.186 OA
ATOM      5  N   UNL     1       1.411   5.505  -4.114  0.00  0.00    -0.233 NA
ATOM      6  C   UNL     1       0.936   6.072  -5.193  0.00  0.00    +0.080 C 
ATOM      7  C   UNL     1       1.443   5.764  -6.547  0.00  0.00    +0.034 A 
ATOM      8  C   UNL     1       2.611   5.070  -6.854  0.00  0.00    +0.075 A 
ATOM      9  C   UNL     1       2.747   4.311  -8.016  0.00  0.00    +0.018 A 
ATOM     10  C   UNL     1       1.942   4.706  -9.074  0.00  0.00    +0.013 A 
ATOM     11  C   UNL     1       0.947   5.653  -8.855  0.00  0.00    +0.058 A 
ATOM     12 CL   UNL     1      -0.082   6.036 -10.233  0.00  0.00    -0.082 Cl
ATOM     13  C   UNL     1       0.553   5.948  -7.555  0.00  0.00    +0.014 A 
ATOM     14  N   UNL     1       3.562   4.675  -5.857  0.00  0.00    -0.175 NA
ENDROOT
BRANCH   6  15
ATOM     15  C   UNL     1      -0.487   6.425  -5.241  0.00  0.00    +0.017 A 
ATOM     16  C   UNL     1      -1.451   5.455  -5.066  0.00  0.00    +0.001 A 
ATOM     17  C   UNL     1      -2.572   5.655  -4.312  0.00  0.00    +0.000 A 
ATOM     18  C   UNL     1      -2.814   6.934  -3.889  0.00  0.00    +0.000 A 
ATOM     19  C   UNL     1      -2.046   7.995  -4.337  0.00  0.00    +0.000 A 
ATOM     20  C   UNL     1      -0.831   7.721  -4.949  0.00  0.00    +0.001 A 
ENDBRANCH   6  15
TORSDOF 1
ENDMDL
