MODEL 1
REMARK VINA RESULT:      -8.2      0.000      0.000
REMARK  Name = 
REMARK  5 active torsions:
REMARK  status: ('A' for Active; 'I' for Inactive)
REMARK    1  A    between atoms: C_2  and  O_4
REMARK    2  A    between atoms: C_2  and  C_20
REMARK    3  A    between atoms: O_4  and  C_5
REMARK    4  A    between atoms: C_8  and  C_9
REMARK    5  A    between atoms: C_9  and  C_11
REMARK                            x       y       z     vdW  Elec       q    Type
REMARK                         _______ _______ _______ _____ _____    ______ ____
ROOT
ATOM      1  C   UNL     1       4.225   5.846  -9.951  0.00  0.00    +0.139 A 
ATOM      2  C   UNL     1       3.746   4.572  -9.666  0.00  0.00    +0.037 A 
ATOM      3  C   UNL     1       2.915   4.377  -8.597  0.00  0.00    +0.006 A 
ATOM      4  C   UNL     1       2.543   5.421  -7.792  0.00  0.00    +0.039 A 
ATOM      5  C   UNL     1       2.688   6.695  -8.310  0.00  0.00    +0.006 A 
ATOM      6  C   UNL     1       3.584   6.896  -9.354  0.00  0.00    +0.037 A 
ENDROOT
BRANCH   4   7
ATOM      7  C   UNL     1       1.735   5.177  -6.617  0.00  0.00    +0.196 C 
ATOM      8  O   UNL     1       2.173   4.551  -5.628  0.00  0.00    -0.287 OA
BRANCH   7   9
ATOM      9  C   UNL     1       0.476   5.913  -6.444  0.00  0.00    +0.039 A 
ATOM     10  C   UNL     1       0.407   6.975  -5.560  0.00  0.00    +0.004 A 
ATOM     11  C   UNL     1      -0.781   7.288  -4.912  0.00  0.00    +0.011 A 
ATOM     12  C   UNL     1      -1.878   6.452  -5.062  0.00  0.00    +0.058 A 
ATOM     13 CL   UNL     1      -3.066   6.335  -3.798  0.00  0.00    -0.082 Cl
ATOM     14  C   UNL     1      -1.914   5.703  -6.223  0.00  0.00    +0.011 A 
ATOM     15  C   UNL     1      -0.703   5.292  -6.768  0.00  0.00    +0.004 A 
ENDBRANCH   7   9
ENDBRANCH   4   7
BRANCH   1  16
ATOM     16  O   UNL     1       5.095   5.930 -11.008  0.00  0.00    -0.472 OA
BRANCH  16  18
ATOM     17  C   UNL     1       7.067   5.713  -9.597  0.00  0.00    +0.055 C 
ATOM     18  C   UNL     1       6.482   6.102 -10.926  0.00  0.00    +0.225 C 
ATOM     19  C   UNL     1       6.762   7.569 -11.236  0.00  0.00    +0.055 C 
BRANCH  18  20
ATOM     20  C   UNL     1       7.080   5.321 -12.054  0.00  0.00    +0.400 C 
ATOM     21  O   UNL     1       8.441   5.109 -12.134  0.00  0.00    -0.242 OA
ATOM     22  O   UNL     1       6.272   4.920 -12.942  0.00  0.00    -0.242 OA
ENDBRANCH  18  20
ENDBRANCH  16  18
ENDBRANCH   1  16
TORSDOF 5
ENDMDL
MODEL 2
REMARK VINA RESULT:      -8.2      3.054      3.743
REMARK  Name = 
REMARK  5 active torsions:
REMARK  status: ('A' for Active; 'I' for Inactive)
REMARK    1  A    between atoms: C_2  and  O_4
REMARK    2  A    between atoms: C_2  and  C_20
REMARK    3  A    between atoms: O_4  and  C_5
REMARK    4  A    between atoms: C_8  and  C_9
REMARK    5  A    between atoms: C_9  and  C_11
REMARK                            x       y       z     vdW  Elec       q    Type
REMARK                         _______ _______ _______ _____ _____    ______ ____
ROOT
ATOM      1  C   UNL     1       5.184   5.874 -10.076  0.00  0.00    +0.139 A 
ATOM      2  C   UNL     1       5.552   5.151  -8.946  0.00  0.00    +0.037 A 
ATOM      3  C   UNL     1       4.915   5.371  -7.756  0.00  0.00    +0.006 A 
ATOM      4  C   UNL     1       3.914   6.301  -7.651  0.00  0.00    +0.039 A 
ATOM      5  C   UNL     1       3.305   6.700  -8.827  0.00  0.00    +0.006 A 
ATOM      6  C   UNL     1       3.986   6.532 -10.027  0.00  0.00    +0.037 A 
ENDROOT
BRANCH   4   7
ATOM      7  C   UNL     1       3.316   6.579  -6.364  0.00  0.00    +0.196 C 
ATOM      8  O   UNL     1       2.087   6.762  -6.229  0.00  0.00    -0.287 OA
BRANCH   7   9
ATOM      9  C   UNL     1       4.103   6.364  -5.144  0.00  0.00    +0.039 A 
ATOM     10  C   UNL     1       3.863   5.258  -4.347  0.00  0.00    +0.004 A 
ATOM     11  C   UNL     1       4.085   5.304  -2.976  0.00  0.00    +0.011 A 
ATOM     12  C   UNL     1       4.435   6.509  -2.384  0.00  0.00    +0.058 A 
ATOM     13 CL   UNL     1       4.017   6.822  -0.726  0.00  0.00    -0.082 Cl
ATOM     14  C   UNL     1       5.062   7.427  -3.206  0.00  0.00    +0.011 A 
ATOM     15  C   UNL     1       4.712   7.440  -4.551  0.00  0.00    +0.004 A 
ENDBRANCH   7   9
ENDBRANCH   4   7
BRANCH   1  16
ATOM     16  O   UNL     1       5.918   5.621 -11.207  0.00  0.00    -0.472 OA
BRANCH  16  18
ATOM     17  C   UNL     1       7.431   7.481 -10.785  0.00  0.00    +0.055 C 
ATOM     18  C   UNL     1       6.923   6.437 -11.740  0.00  0.00    +0.225 C 
ATOM     19  C   UNL     1       6.347   7.081 -12.996  0.00  0.00    +0.055 C 
BRANCH  18  20
ATOM     20  C   UNL     1       8.014   5.524 -12.208  0.00  0.00    +0.400 C 
ATOM     21  O   UNL     1       9.342   5.822 -11.979  0.00  0.00    -0.242 OA
ATOM     22  O   UNL     1       7.644   4.506 -12.861  0.00  0.00    -0.242 OA
ENDBRANCH  18  20
ENDBRANCH  16  18
ENDBRANCH   1  16
TORSDOF 5
ENDMDL
MODEL 3
REMARK VINA RESULT:      -8.2      3.670      8.547
REMARK  Name = 
REMARK  5 active torsions:
REMARK  status: ('A' for Active; 'I' for Inactive)
REMARK    1  A    between atoms: C_2  and  O_4
REMARK    2  A    between atoms: C_2  and  C_20
REMARK    3  A    between atoms: O_4  and  C_5
REMARK    4  A    between atoms: C_8  and  C_9
REMARK    5  A    between atoms: C_9  and  C_11
REMARK                            x       y       z     vdW  Elec       q    Type
REMARK                         _______ _______ _______ _____ _____    ______ ____
ROOT
ATOM      1  C   UNL     1       0.469   5.992  -5.246  0.00  0.00    +0.139 A 
ATOM      2  C   UNL     1       0.967   4.694  -5.215  0.00  0.00    +0.037 A 
ATOM      3  C   UNL     1       1.866   4.283  -6.160  0.00  0.00    +0.006 A 
ATOM      4  C   UNL     1       2.289   5.131  -7.150  0.00  0.00    +0.039 A 
ATOM      5  C   UNL     1       2.108   6.485  -6.933  0.00  0.00    +0.006 A 
ATOM      6  C   UNL     1       1.146   6.896  -6.017  0.00  0.00    +0.037 A 
ENDROOT
BRANCH   4   7
ATOM      7  C   UNL     1       3.172   4.649  -8.189  0.00  0.00    +0.196 C 
ATOM      8  O   UNL     1       2.921   3.616  -8.847  0.00  0.00    -0.287 OA
BRANCH   7   9
ATOM      9  C   UNL     1       4.237   5.525  -8.692  0.00  0.00    +0.039 A 
ATOM     10  C   UNL     1       4.012   6.333  -9.793  0.00  0.00    +0.004 A 
ATOM     11  C   UNL     1       5.050   6.677 -10.650  0.00  0.00    +0.011 A 
ATOM     12  C   UNL     1       6.301   6.105 -10.466  0.00  0.00    +0.058 A 
ATOM     13 CL   UNL     1       7.369   5.887 -11.821  0.00  0.00    -0.082 Cl
ATOM     14  C   UNL     1       6.591   5.682  -9.183  0.00  0.00    +0.011 A 
ATOM     15  C   UNL     1       5.541   5.216  -8.400  0.00  0.00    +0.004 A 
ENDBRANCH   7   9
ENDBRANCH   4   7
BRANCH   1  16
ATOM     16  O   UNL     1      -0.468   6.291  -4.290  0.00  0.00    -0.472 OA
BRANCH  16  18
ATOM     17  C   UNL     1      -2.368   5.840  -5.743  0.00  0.00    +0.055 C 
ATOM     18  C   UNL     1      -1.833   6.513  -4.511  0.00  0.00    +0.225 C 
ATOM     19  C   UNL     1      -2.025   8.024  -4.588  0.00  0.00    +0.055 C 
BRANCH  18  20
ATOM     20  C   UNL     1      -2.546   6.070  -3.272  0.00  0.00    +0.400 C 
ATOM     21  O   UNL     1      -2.693   4.730  -2.974  0.00  0.00    -0.242 OA
ATOM     22  O   UNL     1      -3.041   6.988  -2.557  0.00  0.00    -0.242 OA
ENDBRANCH  18  20
ENDBRANCH  16  18
ENDBRANCH   1  16
TORSDOF 5
ENDMDL
MODEL 4
REMARK VINA RESULT:      -8.0      3.969      8.829
REMARK  Name = 
REMARK  5 active torsions:
REMARK  status: ('A' for Active; 'I' for Inactive)
REMARK    1  A    between atoms: C_2  and  O_4
REMARK    2  A    between atoms: C_2  and  C_20
REMARK    3  A    between atoms: O_4  and  C_5
REMARK    4  A    between atoms: C_8  and  C_9
REMARK    5  A    between atoms: C_9  and  C_11
REMARK                            x       y       z     vdW  Elec       q    Type
REMARK                         _______ _______ _______ _____ _____    ______ ____
ROOT
ATOM      1  C   UNL     1       0.059   6.183  -4.350  0.00  0.00    +0.139 A 
ATOM      2  C   UNL     1      -0.303   5.762  -5.624  0.00  0.00    +0.037 A 
ATOM      3  C   UNL     1       0.463   6.108  -6.703  0.00  0.00    +0.006 A 
ATOM      4  C   UNL     1       1.590   6.871  -6.554  0.00  0.00    +0.039 A 
ATOM      5  C   UNL     1       2.141   6.933  -5.287  0.00  0.00    +0.006 A 
ATOM      6  C   UNL     1       1.337   6.643  -4.190  0.00  0.00    +0.037 A 
ENDROOT
BRANCH   4   7
ATOM      7  C   UNL     1       2.336   7.299  -7.717  0.00  0.00    +0.196 C 
ATOM      8  O   UNL     1       2.409   8.500  -8.055  0.00  0.00    -0.287 OA
BRANCH   7   9
ATOM      9  C   UNL     1       3.263   6.360  -8.361  0.00  0.00    +0.039 A 
ATOM     10  C   UNL     1       4.115   5.586  -7.593  0.00  0.00    +0.004 A 
ATOM     11  C   UNL     1       5.352   5.186  -8.081  0.00  0.00    +0.011 A 
ATOM     12  C   UNL     1       5.788   5.670  -9.306  0.00  0.00    +0.058 A 
ATOM     13 CL   UNL     1       7.489   5.836  -9.626  0.00  0.00    -0.082 Cl
ATOM     14  C   UNL     1       4.799   6.053 -10.193  0.00  0.00    +0.011 A 
ATOM     15  C   UNL     1       3.624   6.577  -9.667  0.00  0.00    +0.004 A 
ENDBRANCH   7   9
ENDBRANCH   4   7
BRANCH   1  16
ATOM     16  O   UNL     1      -0.802   5.833  -3.342  0.00  0.00    -0.472 OA
BRANCH  16  18
ATOM     17  C   UNL     1      -1.991   7.951  -3.500  0.00  0.00    +0.055 C 
ATOM     18  C   UNL     1      -1.793   6.647  -2.780  0.00  0.00    +0.225 C 
ATOM     19  C   UNL     1      -1.398   6.882  -1.326  0.00  0.00    +0.055 C 
BRANCH  18  20
ATOM     20  C   UNL     1      -3.047   5.831  -2.739  0.00  0.00    +0.400 C 
ATOM     21  O   UNL     1      -4.282   6.426  -2.580  0.00  0.00    -0.242 OA
ATOM     22  O   UNL     1      -2.897   4.576  -2.806  0.00  0.00    -0.242 OA
ENDBRANCH  18  20
ENDBRANCH  16  18
ENDBRANCH   1  16
TORSDOF 5
ENDMDL
MODEL 5
REMARK VINA RESULT:      -7.7      3.456      7.900
REMARK  Name = 
REMARK  5 active torsions:
REMARK  status: ('A' for Active; 'I' for Inactive)
REMARK    1  A    between atoms: C_2  and  O_4
REMARK    2  A    between atoms: C_2  and  C_20
REMARK    3  A    between atoms: O_4  and  C_5
REMARK    4  A    between atoms: C_8  and  C_9
REMARK    5  A    between atoms: C_9  and  C_11
REMARK                            x       y       z     vdW  Elec       q    Type
REMARK                         _______ _______ _______ _____ _____    ______ ____
ROOT
ATOM      1  C   UNL     1       0.543   5.847  -5.446  0.00  0.00    +0.139 A 
ATOM      2  C   UNL     1       1.066   4.564  -5.554  0.00  0.00    +0.037 A 
ATOM      3  C   UNL     1       1.802   4.216  -6.653  0.00  0.00    +0.006 A 
ATOM      4  C   UNL     1       2.035   5.113  -7.661  0.00  0.00    +0.039 A 
ATOM      5  C   UNL     1       1.865   6.452  -7.359  0.00  0.00    +0.006 A 
ATOM      6  C   UNL     1       1.062   6.800  -6.279  0.00  0.00    +0.037 A 
ENDROOT
BRANCH   4   7
ATOM      7  C   UNL     1       2.741   4.697  -8.853  0.00  0.00    +0.196 C 
ATOM      8  O   UNL     1       3.740   3.947  -8.805  0.00  0.00    -0.287 OA
BRANCH   7   9
ATOM      9  C   UNL     1       2.122   4.911 -10.167  0.00  0.00    +0.039 A 
ATOM     10  C   UNL     1       2.758   5.691 -11.117  0.00  0.00    +0.004 A 
ATOM     11  C   UNL     1       2.029   6.411 -12.054  0.00  0.00    +0.011 A 
ATOM     12  C   UNL     1       0.645   6.444 -11.960  0.00  0.00    +0.058 A 
ATOM     13 CL   UNL     1      -0.240   7.816 -12.558  0.00  0.00    -0.082 Cl
ATOM     14  C   UNL     1       0.057   5.369 -11.320  0.00  0.00    +0.011 A 
ATOM     15  C   UNL     1       0.764   4.758 -10.292  0.00  0.00    +0.004 A 
ENDBRANCH   7   9
ENDBRANCH   4   7
BRANCH   1  16
ATOM     16  O   UNL     1      -0.226   6.083  -4.335  0.00  0.00    -0.472 OA
BRANCH  16  18
ATOM     17  C   UNL     1      -2.293   5.791  -5.587  0.00  0.00    +0.055 C 
ATOM     18  C   UNL     1      -1.622   6.190  -4.303  0.00  0.00    +0.225 C 
ATOM     19  C   UNL     1      -1.944   7.637  -3.947  0.00  0.00    +0.055 C 
BRANCH  18  20
ATOM     20  C   UNL     1      -2.090   5.366  -3.144  0.00  0.00    +0.400 C 
ATOM     21  O   UNL     1      -3.423   5.048  -2.986  0.00  0.00    -0.242 OA
ATOM     22  O   UNL     1      -1.203   5.032  -2.306  0.00  0.00    -0.242 OA
ENDBRANCH  18  20
ENDBRANCH  16  18
ENDBRANCH   1  16
TORSDOF 5
ENDMDL
MODEL 6
REMARK VINA RESULT:      -7.7      3.602      8.477
REMARK  Name = 
REMARK  5 active torsions:
REMARK  status: ('A' for Active; 'I' for Inactive)
REMARK    1  A    between atoms: C_2  and  O_4
REMARK    2  A    between atoms: C_2  and  C_20
REMARK    3  A    between atoms: O_4  and  C_5
REMARK    4  A    between atoms: C_8  and  C_9
REMARK    5  A    between atoms: C_9  and  C_11
REMARK                            x       y       z     vdW  Elec       q    Type
REMARK                         _______ _______ _______ _____ _____    ______ ____
ROOT
ATOM      1  C   UNL     1       0.512   6.140  -6.480  0.00  0.00    +0.139 A 
ATOM      2  C   UNL     1       1.334   7.233  -6.733  0.00  0.00    +0.037 A 
ATOM      3  C   UNL     1       2.069   7.283  -7.885  0.00  0.00    +0.006 A 
ATOM      4  C   UNL     1       2.015   6.268  -8.803  0.00  0.00    +0.039 A 
ATOM      5  C   UNL     1       0.925   5.419  -8.735  0.00  0.00    +0.006 A 
ATOM      6  C   UNL     1       0.222   5.325  -7.539  0.00  0.00    +0.037 A 
ENDROOT
BRANCH   4   7
ATOM      7  C   UNL     1       2.868   6.301  -9.971  0.00  0.00    +0.196 C 
ATOM      8  O   UNL     1       2.403   6.349 -11.130  0.00  0.00    -0.287 OA
BRANCH   7   9
ATOM      9  C   UNL     1       4.301   6.572  -9.808  0.00  0.00    +0.039 A 
ATOM     10  C   UNL     1       4.956   7.410 -10.693  0.00  0.00    +0.004 A 
ATOM     11  C   UNL     1       6.304   7.234 -10.979  0.00  0.00    +0.011 A 
ATOM     12  C   UNL     1       6.969   6.131 -10.464  0.00  0.00    +0.058 A 
ATOM     13 CL   UNL     1       8.329   5.456 -11.312  0.00  0.00    -0.082 Cl
ATOM     14  C   UNL     1       6.445   5.596  -9.302  0.00  0.00    +0.011 A 
ATOM     15  C   UNL     1       5.070   5.672  -9.115  0.00  0.00    +0.004 A 
ENDBRANCH   7   9
ENDBRANCH   4   7
BRANCH   1  16
ATOM     16  O   UNL     1      -0.142   6.156  -5.274  0.00  0.00    -0.472 OA
BRANCH  16  18
ATOM     17  C   UNL     1      -2.358   5.957  -6.262  0.00  0.00    +0.055 C 
ATOM     18  C   UNL     1      -1.516   6.350  -5.081  0.00  0.00    +0.225 C 
ATOM     19  C   UNL     1      -1.708   7.824  -4.741  0.00  0.00    +0.055 C 
BRANCH  18  20
ATOM     20  C   UNL     1      -1.887   5.591  -3.846  0.00  0.00    +0.400 C 
ATOM     21  O   UNL     1      -3.197   5.519  -3.419  0.00  0.00    -0.242 OA
ATOM     22  O   UNL     1      -0.929   5.072  -3.203  0.00  0.00    -0.242 OA
ENDBRANCH  18  20
ENDBRANCH  16  18
ENDBRANCH   1  16
TORSDOF 5
ENDMDL
MODEL 7
REMARK VINA RESULT:      -7.6      4.000      8.225
REMARK  Name = 
REMARK  5 active torsions:
REMARK  status: ('A' for Active; 'I' for Inactive)
REMARK    1  A    between atoms: C_2  and  O_4
REMARK    2  A    between atoms: C_2  and  C_20
REMARK    3  A    between atoms: O_4  and  C_5
REMARK    4  A    between atoms: C_8  and  C_9
REMARK    5  A    between atoms: C_9  and  C_11
REMARK                            x       y       z     vdW  Elec       q    Type
REMARK                         _______ _______ _______ _____ _____    ______ ____
ROOT
ATOM      1  C   UNL     1       2.453   5.713  -5.593  0.00  0.00    +0.139 A 
ATOM      2  C   UNL     1       2.560   6.915  -6.283  0.00  0.00    +0.037 A 
ATOM      3  C   UNL     1       2.994   6.923  -7.581  0.00  0.00    +0.006 A 
ATOM      4  C   UNL     1       3.331   5.760  -8.220  0.00  0.00    +0.039 A 
ATOM      5  C   UNL     1       2.846   4.584  -7.678  0.00  0.00    +0.006 A 
ATOM      6  C   UNL     1       2.469   4.567  -6.340  0.00  0.00    +0.037 A 
ENDROOT
BRANCH   4   7
ATOM      7  C   UNL     1       3.870   5.801  -9.562  0.00  0.00    +0.196 C 
ATOM      8  O   UNL     1       3.154   5.625 -10.570  0.00  0.00    -0.287 OA
BRANCH   7   9
ATOM      9  C   UNL     1       5.219   6.339  -9.779  0.00  0.00    +0.039 A 
ATOM     10  C   UNL     1       5.458   7.216 -10.822  0.00  0.00    +0.004 A 
ATOM     11  C   UNL     1       6.701   7.267 -11.441  0.00  0.00    +0.011 A 
ATOM     12  C   UNL     1       7.674   6.343 -11.089  0.00  0.00    +0.058 A 
ATOM     13 CL   UNL     1       8.886   5.867 -12.242  0.00  0.00    -0.082 Cl
ATOM     14  C   UNL     1       7.568   5.807  -9.819  0.00  0.00    +0.011 A 
ATOM     15  C   UNL     1       6.295   5.646  -9.286  0.00  0.00    +0.004 A 
ENDBRANCH   7   9
ENDBRANCH   4   7
BRANCH   1  16
ATOM     16  O   UNL     1       2.064   5.814  -4.282  0.00  0.00    -0.472 OA
BRANCH  16  18
ATOM     17  C   UNL     1       3.375   7.378  -2.955  0.00  0.00    +0.055 C 
ATOM     18  C   UNL     1       2.910   5.966  -3.177  0.00  0.00    +0.225 C 
ATOM     19  C   UNL     1       4.093   5.031  -3.397  0.00  0.00    +0.055 C 
BRANCH  18  20
ATOM     20  C   UNL     1       2.172   5.425  -1.993  0.00  0.00    +0.400 C 
ATOM     21  O   UNL     1       2.800   5.255  -0.776  0.00  0.00    -0.242 OA
ATOM     22  O   UNL     1       0.968   5.089  -2.193  0.00  0.00    -0.242 OA
ENDBRANCH  18  20
ENDBRANCH  16  18
ENDBRANCH   1  16
TORSDOF 5
ENDMDL
MODEL 8
REMARK VINA RESULT:      -7.3      3.685      7.807
REMARK  Name = 
REMARK  5 active torsions:
REMARK  status: ('A' for Active; 'I' for Inactive)
REMARK    1  A    between atoms: C_2  and  O_4
REMARK    2  A    between atoms: C_2  and  C_20
REMARK    3  A    between atoms: O_4  and  C_5
REMARK    4  A    between atoms: C_8  and  C_9
REMARK    5  A    between atoms: C_9  and  C_11
REMARK                            x       y       z     vdW  Elec       q    Type
REMARK                         _______ _______ _______ _____ _____    ______ ____
ROOT
ATOM      1  C   UNL     1       3.205   5.173  -8.424  0.00  0.00    +0.139 A 
ATOM      2  C   UNL     1       3.587   4.921  -9.737  0.00  0.00    +0.037 A 
ATOM      3  C   UNL     1       4.894   5.067 -10.110  0.00  0.00    +0.006 A 
ATOM      4  C   UNL     1       5.846   5.466  -9.208  0.00  0.00    +0.039 A 
ATOM      5  C   UNL     1       5.539   5.320  -7.868  0.00  0.00    +0.006 A 
ATOM      6  C   UNL     1       4.203   5.236  -7.491  0.00  0.00    +0.037 A 
ENDROOT
BRANCH   4   7
ATOM      7  C   UNL     1       7.205   5.699  -9.645  0.00  0.00    +0.196 C 
ATOM      8  O   UNL     1       8.183   5.154  -9.090  0.00  0.00    -0.287 OA
BRANCH   7   9
ATOM      9  C   UNL     1       7.443   6.355 -10.937  0.00  0.00    +0.039 A 
ATOM     10  C   UNL     1       6.757   7.511 -11.267  0.00  0.00    +0.004 A 
ATOM     11  C   UNL     1       6.462   7.813 -12.590  0.00  0.00    +0.011 A 
ATOM     12  C   UNL     1       6.752   6.885 -13.580  0.00  0.00    +0.058 A 
ATOM     13 CL   UNL     1       5.805   6.839 -15.038  0.00  0.00    -0.082 Cl
ATOM     14  C   UNL     1       7.772   5.997 -13.296  0.00  0.00    +0.011 A 
ATOM     15  C   UNL     1       7.949   5.612 -11.973  0.00  0.00    +0.004 A 
ENDBRANCH   7   9
ENDBRANCH   4   7
BRANCH   1  16
ATOM     16  O   UNL     1       1.864   5.052  -8.162  0.00  0.00    -0.472 OA
BRANCH  16  18
ATOM     17  C   UNL     1      -0.422   5.675  -7.605  0.00  0.00    +0.055 C 
ATOM     18  C   UNL     1       0.938   6.099  -8.083  0.00  0.00    +0.225 C 
ATOM     19  C   UNL     1       0.859   6.720  -9.474  0.00  0.00    +0.055 C 
BRANCH  18  20
ATOM     20  C   UNL     1       1.545   7.144  -7.200  0.00  0.00    +0.400 C 
ATOM     21  O   UNL     1       1.578   6.989  -5.829  0.00  0.00    -0.242 OA
ATOM     22  O   UNL     1       1.972   8.184  -7.781  0.00  0.00    -0.242 OA
ENDBRANCH  18  20
ENDBRANCH  16  18
ENDBRANCH   1  16
TORSDOF 5
ENDMDL
MODEL 9
REMARK VINA RESULT:      -7.2      4.214      7.782
REMARK  Name = 
REMARK  5 active torsions:
REMARK  status: ('A' for Active; 'I' for Inactive)
REMARK    1  A    between atoms: C_2  and  O_4
REMARK    2  A    between atoms: C_2  and  C_20
REMARK    3  A    between atoms: O_4  and  C_5
REMARK    4  A    between atoms: C_8  and  C_9
REMARK    5  A    between atoms: C_9  and  C_11
REMARK                            x       y       z     vdW  Elec       q    Type
REMARK                         _______ _______ _______ _____ _____    ______ ____
ROOT
ATOM      1  C   UNL     1       3.154   6.141  -6.470  0.00  0.00    +0.139 A 
ATOM      2  C   UNL     1       4.009   5.322  -7.199  0.00  0.00    +0.037 A 
ATOM      3  C   UNL     1       4.041   5.408  -8.563  0.00  0.00    +0.006 A 
ATOM      4  C   UNL     1       3.237   6.291  -9.234  0.00  0.00    +0.039 A 
ATOM      5  C   UNL     1       2.715   7.343  -8.504  0.00  0.00    +0.006 A 
ATOM      6  C   UNL     1       2.626   7.221  -7.122  0.00  0.00    +0.037 A 
ENDROOT
BRANCH   4   7
ATOM      7  C   UNL     1       3.223   6.302 -10.681  0.00  0.00    +0.196 C 
ATOM      8  O   UNL     1       2.158   6.312 -11.334  0.00  0.00    -0.287 OA
BRANCH   7   9
ATOM      9  C   UNL     1       4.463   6.597 -11.410  0.00  0.00    +0.039 A 
ATOM     10  C   UNL     1       4.959   5.694 -12.333  0.00  0.00    +0.004 A 
ATOM     11  C   UNL     1       6.324   5.595 -12.573  0.00  0.00    +0.011 A 
ATOM     12  C   UNL     1       7.206   6.325 -11.790  0.00  0.00    +0.058 A 
ATOM     13 CL   UNL     1       8.820   5.740 -11.514  0.00  0.00    -0.082 Cl
ATOM     14  C   UNL     1       6.698   7.477 -11.219  0.00  0.00    +0.011 A 
ATOM     15  C   UNL     1       5.353   7.489 -10.867  0.00  0.00    +0.004 A 
ENDBRANCH   7   9
ENDBRANCH   4   7
BRANCH   1  16
ATOM     16  O   UNL     1       3.155   5.942  -5.113  0.00  0.00    -0.472 OA
BRANCH  16  18
ATOM     17  C   UNL     1       5.054   7.437  -4.816  0.00  0.00    +0.055 C 
ATOM     18  C   UNL     1       4.050   6.506  -4.195  0.00  0.00    +0.225 C 
ATOM     19  C   UNL     1       4.745   5.347  -3.489  0.00  0.00    +0.055 C 
BRANCH  18  20
ATOM     20  C   UNL     1       3.221   7.187  -3.151  0.00  0.00    +0.400 C 
ATOM     21  O   UNL     1       3.704   8.276  -2.454  0.00  0.00    -0.242 OA
ATOM     22  O   UNL     1       2.089   6.674  -2.917  0.00  0.00    -0.242 OA
ENDBRANCH  18  20
ENDBRANCH  16  18
ENDBRANCH   1  16
TORSDOF 5
ENDMDL
