MODEL 1
REMARK VINA RESULT:      -9.1      0.000      0.000
REMARK  Name = 
REMARK  6 active torsions:
REMARK  status: ('A' for Active; 'I' for Inactive)
REMARK    1  A    between atoms: C_2  and  C_3
REMARK    2  A    between atoms: C_2  and  C_19
REMARK    3  A    between atoms: C_3  and  N_4
REMARK    4  A    between atoms: N_4  and  C_5
REMARK    5  A    between atoms: C_5  and  C_6
REMARK    6  A    between atoms: C_6  and  C_8
REMARK                            x       y       z     vdW  Elec       q    Type
REMARK                         _______ _______ _______ _____ _____    ______ ____
ROOT
ATOM      1  N   UNL     1       4.401   7.561  -4.803  0.00  0.00    -0.212 NA
ENDROOT
BRANCH   1   2
ATOM      2  C   UNL     1       3.974   6.403  -5.524  0.00  0.00    +0.125 C 
BRANCH   2   4
ATOM      3  O   UNL     1       3.713   6.493  -7.770  0.00  0.00    -0.218 OA
ATOM      4  C   UNL     1       2.831   6.932  -6.606  0.00  0.00    +0.209 C 
BRANCH   4   5
ATOM      5  C   UNL     1       1.917   5.436  -6.479  0.00  0.00    +0.198 C 
ATOM      6  O   UNL     1       1.193   5.991  -5.234  0.00  0.00    -0.477 OA
ATOM      7  C   UNL     1      -0.071   6.424  -5.279  0.00  0.00    +0.135 A 
ATOM      8  C   UNL     1      -0.988   5.656  -5.989  0.00  0.00    +0.014 A 
ATOM      9  C   UNL     1      -2.255   6.206  -6.092  0.00  0.00    +0.028 A 
ATOM     10  C   UNL     1      -2.617   7.366  -5.424  0.00  0.00    +0.140 A 
ATOM     11  C   UNL     1      -1.659   8.086  -4.732  0.00  0.00    +0.033 A 
ATOM     12  F   UNL     1      -3.803   7.993  -5.646  0.00  0.00    -0.204 F 
ATOM     13  C   UNL     1      -0.363   4.941  -7.150  0.00  0.00    +0.033 C 
ATOM     14  C   UNL     1      -0.526   7.368  -4.366  0.00  0.00    +0.039 A 
ATOM     15  C   UNL     1       0.739   5.851  -7.566  0.00  0.00    +0.051 C 
ENDBRANCH   4   5
ENDBRANCH   2   4
ENDBRANCH   1   2
BRANCH   1  16
ATOM     16  C   UNL     1       4.848   7.372  -3.474  0.00  0.00    +0.125 C 
BRANCH  16  17
ATOM     17  C   UNL     1       3.474   7.308  -2.539  0.00  0.00    +0.209 C 
ATOM     18  O   UNL     1       3.690   8.742  -2.064  0.00  0.00    -0.218 OA
BRANCH  17  19
ATOM     19  C   UNL     1       4.335   6.578  -1.191  0.00  0.00    +0.198 C 
ATOM     20  O   UNL     1       3.144   6.601  -0.211  0.00  0.00    -0.477 OA
ATOM     21  C   UNL     1       1.898   6.318  -0.616  0.00  0.00    +0.135 A 
ATOM     22  C   UNL     1       1.703   4.998  -1.021  0.00  0.00    +0.014 A 
ATOM     23  C   UNL     1       0.572   4.755  -1.733  0.00  0.00    +0.028 A 
ATOM     24  C   UNL     1      -0.517   5.595  -1.517  0.00  0.00    +0.140 A 
ATOM     25  C   UNL     1      -0.409   6.636  -0.597  0.00  0.00    +0.033 A 
ATOM     26  F   UNL     1      -1.792   5.250  -1.808  0.00  0.00    -0.204 F 
ATOM     27  C   UNL     1       3.025   4.353  -1.146  0.00  0.00    +0.033 C 
ATOM     28  C   UNL     1       0.795   6.822   0.076  0.00  0.00    +0.039 A 
ATOM     29  C   UNL     1       4.055   5.069  -1.806  0.00  0.00    +0.051 C 
ENDBRANCH  17  19
ENDBRANCH  16  17
ENDBRANCH   1  16
TORSDOF 6
ENDMDL
MODEL 2
REMARK VINA RESULT:      -9.1      2.655      4.985
REMARK  Name = 
REMARK  6 active torsions:
REMARK  status: ('A' for Active; 'I' for Inactive)
REMARK    1  A    between atoms: C_2  and  C_3
REMARK    2  A    between atoms: C_2  and  C_19
REMARK    3  A    between atoms: C_3  and  N_4
REMARK    4  A    between atoms: N_4  and  C_5
REMARK    5  A    between atoms: C_5  and  C_6
REMARK    6  A    between atoms: C_6  and  C_8
REMARK                            x       y       z     vdW  Elec       q    Type
REMARK                         _______ _______ _______ _____ _____    ______ ____
ROOT
ATOM      1  N   UNL     1       0.938   6.530   0.363  0.00  0.00    -0.212 NA
ENDROOT
BRANCH   1   2
ATOM      2  C   UNL     1      -0.233   7.196  -0.115  0.00  0.00    +0.125 C 
BRANCH   2   4
ATOM      3  O   UNL     1      -2.049   6.074   0.635  0.00  0.00    -0.218 OA
ATOM      4  C   UNL     1      -1.249   6.002  -0.661  0.00  0.00    +0.209 C 
BRANCH   4   5
ATOM      5  C   UNL     1      -2.230   7.150  -1.560  0.00  0.00    +0.198 C 
ATOM      6  O   UNL     1      -1.102   7.288  -2.604  0.00  0.00    -0.477 OA
ATOM      7  C   UNL     1      -1.176   6.717  -3.812  0.00  0.00    +0.135 A 
ATOM      8  C   UNL     1      -2.388   6.804  -4.489  0.00  0.00    +0.014 A 
ATOM      9  C   UNL     1      -2.439   6.106  -5.684  0.00  0.00    +0.028 A 
ATOM     10  C   UNL     1      -1.327   5.482  -6.229  0.00  0.00    +0.140 A 
ATOM     11  C   UNL     1      -0.147   5.431  -5.506  0.00  0.00    +0.033 A 
ATOM     12  F   UNL     1      -1.407   4.666  -7.313  0.00  0.00    -0.204 F 
ATOM     13  C   UNL     1      -3.566   6.829  -3.561  0.00  0.00    +0.033 C 
ATOM     14  C   UNL     1      -0.019   6.393  -4.510  0.00  0.00    +0.039 A 
ATOM     15  C   UNL     1      -3.108   6.023  -2.396  0.00  0.00    +0.051 C 
ENDBRANCH   4   5
ENDBRANCH   2   4
ENDBRANCH   1   2
BRANCH   1  16
ATOM     16  C   UNL     1       2.188   6.987  -0.117  0.00  0.00    +0.125 C 
BRANCH  16  17
ATOM     17  C   UNL     1       2.527   6.058  -1.454  0.00  0.00    +0.209 C 
ATOM     18  O   UNL     1       2.008   4.804  -0.757  0.00  0.00    -0.218 OA
BRANCH  17  19
ATOM     19  C   UNL     1       4.197   5.820  -0.959  0.00  0.00    +0.198 C 
ATOM     20  O   UNL     1       4.637   5.076  -2.237  0.00  0.00    -0.477 OA
ATOM     21  C   UNL     1       4.204   5.449  -3.449  0.00  0.00    +0.135 A 
ATOM     22  C   UNL     1       4.656   6.700  -3.869  0.00  0.00    +0.014 A 
ATOM     23  C   UNL     1       3.995   7.250  -4.921  0.00  0.00    +0.028 A 
ATOM     24  C   UNL     1       3.384   6.381  -5.822  0.00  0.00    +0.140 A 
ATOM     25  C   UNL     1       3.469   5.006  -5.615  0.00  0.00    +0.033 A 
ATOM     26  F   UNL     1       3.068   6.727  -7.090  0.00  0.00    -0.204 F 
ATOM     27  C   UNL     1       5.273   7.380  -2.713  0.00  0.00    +0.033 C 
ATOM     28  C   UNL     1       4.153   4.531  -4.500  0.00  0.00    +0.039 A 
ATOM     29  C   UNL     1       4.586   7.342  -1.474  0.00  0.00    +0.051 C 
ENDBRANCH  17  19
ENDBRANCH  16  17
ENDBRANCH   1  16
TORSDOF 6
ENDMDL
MODEL 3
REMARK VINA RESULT:      -8.9      3.671      6.878
REMARK  Name = 
REMARK  6 active torsions:
REMARK  status: ('A' for Active; 'I' for Inactive)
REMARK    1  A    between atoms: C_2  and  C_3
REMARK    2  A    between atoms: C_2  and  C_19
REMARK    3  A    between atoms: C_3  and  N_4
REMARK    4  A    between atoms: N_4  and  C_5
REMARK    5  A    between atoms: C_5  and  C_6
REMARK    6  A    between atoms: C_6  and  C_8
REMARK                            x       y       z     vdW  Elec       q    Type
REMARK                         _______ _______ _______ _____ _____    ______ ____
ROOT
ATOM      1  N   UNL     1       3.653   7.253  -5.331  0.00  0.00    -0.212 NA
ENDROOT
BRANCH   1   2
ATOM      2  C   UNL     1       3.367   7.155  -3.933  0.00  0.00    +0.125 C 
BRANCH   2   4
ATOM      3  O   UNL     1       3.693   5.284  -2.703  0.00  0.00    -0.218 OA
ATOM      4  C   UNL     1       2.628   5.685  -3.718  0.00  0.00    +0.209 C 
BRANCH   4   5
ATOM      5  C   UNL     1       1.490   6.348  -2.554  0.00  0.00    +0.198 C 
ATOM      6  O   UNL     1       0.667   6.951  -3.712  0.00  0.00    -0.477 OA
ATOM      7  C   UNL     1      -0.494   6.421  -4.113  0.00  0.00    +0.135 A 
ATOM      8  C   UNL     1      -1.389   6.017  -3.128  0.00  0.00    +0.014 A 
ATOM      9  C   UNL     1      -2.525   5.379  -3.599  0.00  0.00    +0.028 A 
ATOM     10  C   UNL     1      -2.811   5.273  -4.951  0.00  0.00    +0.140 A 
ATOM     11  C   UNL     1      -1.880   5.695  -5.884  0.00  0.00    +0.033 A 
ATOM     12  F   UNL     1      -3.837   4.514  -5.421  0.00  0.00    -0.204 F 
ATOM     13  C   UNL     1      -0.700   5.543  -1.883  0.00  0.00    +0.033 C 
ATOM     14  C   UNL     1      -0.942   6.609  -5.415  0.00  0.00    +0.039 A 
ATOM     15  C   UNL     1       0.579   4.974  -2.389  0.00  0.00    +0.051 C 
ENDBRANCH   4   5
ENDBRANCH   2   4
ENDBRANCH   1   2
BRANCH   1  16
ATOM     16  C   UNL     1       2.646   6.834  -6.232  0.00  0.00    +0.125 C 
BRANCH  16  17
ATOM     17  C   UNL     1       3.192   7.250  -7.747  0.00  0.00    +0.209 C 
ATOM     18  O   UNL     1       2.109   8.316  -7.881  0.00  0.00    -0.218 OA
BRANCH  17  19
ATOM     19  C   UNL     1       2.246   5.984  -8.517  0.00  0.00    +0.198 C 
ATOM     20  O   UNL     1       2.864   6.156  -9.920  0.00  0.00    -0.477 OA
ATOM     21  C   UNL     1       4.173   6.394 -10.085  0.00  0.00    +0.135 A 
ATOM     22  C   UNL     1       5.008   5.344  -9.707  0.00  0.00    +0.014 A 
ATOM     23  C   UNL     1       6.321   5.653  -9.550  0.00  0.00    +0.028 A 
ATOM     24  C   UNL     1       6.822   6.723 -10.287  0.00  0.00    +0.140 A 
ATOM     25  C   UNL     1       5.975   7.424 -11.142  0.00  0.00    +0.033 A 
ATOM     26  F   UNL     1       8.136   6.886 -10.562  0.00  0.00    -0.204 F 
ATOM     27  C   UNL     1       4.200   4.356  -8.964  0.00  0.00    +0.033 C 
ATOM     28  C   UNL     1       4.637   7.047 -11.228  0.00  0.00    +0.039 A 
ATOM     29  C   UNL     1       3.306   4.837  -7.975  0.00  0.00    +0.051 C 
ENDBRANCH  17  19
ENDBRANCH  16  17
ENDBRANCH   1  16
TORSDOF 6
ENDMDL
MODEL 4
REMARK VINA RESULT:      -8.8      5.013      7.298
REMARK  Name = 
REMARK  6 active torsions:
REMARK  status: ('A' for Active; 'I' for Inactive)
REMARK    1  A    between atoms: C_2  and  C_3
REMARK    2  A    between atoms: C_2  and  C_19
REMARK    3  A    between atoms: C_3  and  N_4
REMARK    4  A    between atoms: N_4  and  C_5
REMARK    5  A    between atoms: C_5  and  C_6
REMARK    6  A    between atoms: C_6  and  C_8
REMARK                            x       y       z     vdW  Elec       q    Type
REMARK                         _______ _______ _______ _____ _____    ______ ____
ROOT
ATOM      1  N   UNL     1       3.202   7.007  -8.082  0.00  0.00    -0.212 NA
ENDROOT
BRANCH   1   2
ATOM      2  C   UNL     1       2.603   6.849  -9.371  0.00  0.00    +0.125 C 
BRANCH   2   4
ATOM      3  O   UNL     1       1.999   4.892 -10.332  0.00  0.00    -0.218 OA
ATOM      4  C   UNL     1       3.353   5.543 -10.068  0.00  0.00    +0.209 C 
BRANCH   4   5
ATOM      5  C   UNL     1       3.483   6.357 -11.620  0.00  0.00    +0.198 C 
ATOM      6  O   UNL     1       4.707   7.140 -11.099  0.00  0.00    -0.477 OA
ATOM      7  C   UNL     1       5.956   6.842 -11.475  0.00  0.00    +0.135 A 
ATOM      8  C   UNL     1       6.173   6.570 -12.821  0.00  0.00    +0.014 A 
ATOM      9  C   UNL     1       7.461   6.165 -13.134  0.00  0.00    +0.028 A 
ATOM     10  C   UNL     1       8.485   6.160 -12.200  0.00  0.00    +0.140 A 
ATOM     11  C   UNL     1       8.206   6.442 -10.873  0.00  0.00    +0.033 A 
ATOM     12  F   UNL     1       9.704   5.616 -12.458  0.00  0.00    -0.204 F 
ATOM     13  C   UNL     1       4.985   5.936 -13.480  0.00  0.00    +0.033 C 
ATOM     14  C   UNL     1       7.032   7.155 -10.653  0.00  0.00    +0.039 A 
ATOM     15  C   UNL     1       4.347   5.165 -12.378  0.00  0.00    +0.051 C 
ENDBRANCH   4   5
ENDBRANCH   2   4
ENDBRANCH   1   2
BRANCH   1  16
ATOM     16  C   UNL     1       3.251   5.867  -7.243  0.00  0.00    +0.125 C 
BRANCH  16  17
ATOM     17  C   UNL     1       2.009   6.054  -6.153  0.00  0.00    +0.209 C 
ATOM     18  O   UNL     1       2.880   5.524  -5.019  0.00  0.00    -0.218 OA
BRANCH  17  19
ATOM     19  C   UNL     1       1.322   4.486  -6.554  0.00  0.00    +0.198 C 
ATOM     20  O   UNL     1       0.506   4.333  -5.253  0.00  0.00    -0.477 OA
ATOM     21  C   UNL     1      -0.135   5.373  -4.702  0.00  0.00    +0.135 A 
ATOM     22  C   UNL     1      -1.195   5.872  -5.459  0.00  0.00    +0.014 A 
ATOM     23  C   UNL     1      -1.652   7.101  -5.106  0.00  0.00    +0.028 A 
ATOM     24  C   UNL     1      -1.486   7.493  -3.781  0.00  0.00    +0.140 A 
ATOM     25  C   UNL     1      -0.867   6.628  -2.881  0.00  0.00    +0.033 A 
ATOM     26  F   UNL     1      -2.229   8.457  -3.191  0.00  0.00    -0.204 F 
ATOM     27  C   UNL     1      -1.126   5.267  -6.804  0.00  0.00    +0.033 C 
ATOM     28  C   UNL     1      -0.414   5.392  -3.335  0.00  0.00    +0.039 A 
ATOM     29  C   UNL     1       0.136   5.213  -7.447  0.00  0.00    +0.051 C 
ENDBRANCH  17  19
ENDBRANCH  16  17
ENDBRANCH   1  16
TORSDOF 6
ENDMDL
MODEL 5
REMARK VINA RESULT:      -8.7      3.431      7.201
REMARK  Name = 
REMARK  6 active torsions:
REMARK  status: ('A' for Active; 'I' for Inactive)
REMARK    1  A    between atoms: C_2  and  C_3
REMARK    2  A    between atoms: C_2  and  C_19
REMARK    3  A    between atoms: C_3  and  N_4
REMARK    4  A    between atoms: N_4  and  C_5
REMARK    5  A    between atoms: C_5  and  C_6
REMARK    6  A    between atoms: C_6  and  C_8
REMARK                            x       y       z     vdW  Elec       q    Type
REMARK                         _______ _______ _______ _____ _____    ______ ____
ROOT
ATOM      1  N   UNL     1       3.281   7.270  -6.854  0.00  0.00    -0.212 NA
ENDROOT
BRANCH   1   2
ATOM      2  C   UNL     1       3.706   6.929  -5.532  0.00  0.00    +0.125 C 
BRANCH   2   4
ATOM      3  O   UNL     1       3.941   4.979  -4.409  0.00  0.00    -0.218 OA
ATOM      4  C   UNL     1       2.741   5.668  -5.051  0.00  0.00    +0.209 C 
BRANCH   4   5
ATOM      5  C   UNL     1       2.216   6.526  -3.609  0.00  0.00    +0.198 C 
ATOM      6  O   UNL     1       1.000   7.073  -4.386  0.00  0.00    -0.477 OA
ATOM      7  C   UNL     1      -0.236   6.596  -4.202  0.00  0.00    +0.135 A 
ATOM      8  C   UNL     1      -0.645   6.359  -2.894  0.00  0.00    +0.014 A 
ATOM      9  C   UNL     1      -1.891   5.766  -2.770  0.00  0.00    +0.028 A 
ATOM     10  C   UNL     1      -2.722   5.549  -3.858  0.00  0.00    +0.140 A 
ATOM     11  C   UNL     1      -2.257   5.806  -5.137  0.00  0.00    +0.033 A 
ATOM     12  F   UNL     1      -3.870   4.828  -3.766  0.00  0.00    -0.204 F 
ATOM     13  C   UNL     1       0.490   5.960  -1.999  0.00  0.00    +0.033 C 
ATOM     14  C   UNL     1      -1.185   6.688  -5.213  0.00  0.00    +0.039 A 
ATOM     15  C   UNL     1       1.422   5.249  -2.917  0.00  0.00    +0.051 C 
ENDBRANCH   4   5
ENDBRANCH   2   4
ENDBRANCH   1   2
BRANCH   1  16
ATOM     16  C   UNL     1       3.218   6.225  -7.807  0.00  0.00    +0.125 C 
BRANCH  16  17
ATOM     17  C   UNL     1       2.202   6.768  -9.007  0.00  0.00    +0.209 C 
ATOM     18  O   UNL     1       1.793   7.971  -8.163  0.00  0.00    -0.218 OA
BRANCH  17  19
ATOM     19  C   UNL     1       0.882   5.747  -8.455  0.00  0.00    +0.198 C 
ATOM     20  O   UNL     1      -0.153   6.258  -9.479  0.00  0.00    -0.477 OA
ATOM     21  C   UNL     1       0.187   6.515 -10.750  0.00  0.00    +0.135 A 
ATOM     22  C   UNL     1       0.555   5.393 -11.491  0.00  0.00    +0.014 A 
ATOM     23  C   UNL     1       1.207   5.638 -12.658  0.00  0.00    +0.028 A 
ATOM     24  C   UNL     1       0.957   6.852 -13.292  0.00  0.00    +0.140 A 
ATOM     25  C   UNL     1       0.066   7.756 -12.717  0.00  0.00    +0.033 A 
ATOM     26  F   UNL     1       1.180   7.064 -14.608  0.00  0.00    -0.204 F 
ATOM     27  C   UNL     1       0.729   4.260 -10.561  0.00  0.00    +0.033 C 
ATOM     28  C   UNL     1      -0.546   7.428 -11.510  0.00  0.00    +0.039 A 
ATOM     29  C   UNL     1       1.452   4.488  -9.363  0.00  0.00    +0.051 C 
ENDBRANCH  17  19
ENDBRANCH  16  17
ENDBRANCH   1  16
TORSDOF 6
ENDMDL
MODEL 6
REMARK VINA RESULT:      -8.7      2.868      4.786
REMARK  Name = 
REMARK  6 active torsions:
REMARK  status: ('A' for Active; 'I' for Inactive)
REMARK    1  A    between atoms: C_2  and  C_3
REMARK    2  A    between atoms: C_2  and  C_19
REMARK    3  A    between atoms: C_3  and  N_4
REMARK    4  A    between atoms: N_4  and  C_5
REMARK    5  A    between atoms: C_5  and  C_6
REMARK    6  A    between atoms: C_6  and  C_8
REMARK                            x       y       z     vdW  Elec       q    Type
REMARK                         _______ _______ _______ _____ _____    ______ ____
ROOT
ATOM      1  N   UNL     1      -0.645   6.272  -0.593  0.00  0.00    -0.212 NA
ENDROOT
BRANCH   1   2
ATOM      2  C   UNL     1      -1.332   6.736  -1.758  0.00  0.00    +0.125 C 
BRANCH   2   4
ATOM      3  O   UNL     1      -2.741   4.985  -2.025  0.00  0.00    -0.218 OA
ATOM      4  C   UNL     1      -1.476   5.420  -2.759  0.00  0.00    +0.209 C 
BRANCH   4   5
ATOM      5  C   UNL     1      -2.287   6.364  -4.000  0.00  0.00    +0.198 C 
ATOM      6  O   UNL     1      -0.915   6.820  -4.540  0.00  0.00    -0.477 OA
ATOM      7  C   UNL     1      -0.392   6.323  -5.666  0.00  0.00    +0.135 A 
ATOM      8  C   UNL     1      -1.242   6.169  -6.756  0.00  0.00    +0.014 A 
ATOM      9  C   UNL     1      -0.672   5.552  -7.858  0.00  0.00    +0.028 A 
ATOM     10  C   UNL     1       0.676   5.235  -7.917  0.00  0.00    +0.140 A 
ATOM     11  C   UNL     1       1.472   5.413  -6.798  0.00  0.00    +0.033 A 
ATOM     12  F   UNL     1       1.206   4.490  -8.923  0.00  0.00    -0.204 F 
ATOM     13  C   UNL     1      -2.653   5.866  -6.348  0.00  0.00    +0.033 C 
ATOM     14  C   UNL     1       0.984   6.316  -5.860  0.00  0.00    +0.039 A 
ATOM     15  C   UNL     1      -2.492   5.117  -5.071  0.00  0.00    +0.051 C 
ENDBRANCH   4   5
ENDBRANCH   2   4
ENDBRANCH   1   2
BRANCH   1  16
ATOM     16  C   UNL     1       0.552   6.937  -0.235  0.00  0.00    +0.125 C 
BRANCH  16  17
ATOM     17  C   UNL     1       1.732   6.307  -1.225  0.00  0.00    +0.209 C 
ATOM     18  O   UNL     1       1.505   4.908  -0.662  0.00  0.00    -0.218 OA
BRANCH  17  19
ATOM     19  C   UNL     1       3.009   6.716  -0.087  0.00  0.00    +0.198 C 
ATOM     20  O   UNL     1       4.143   6.015  -0.863  0.00  0.00    -0.477 OA
ATOM     21  C   UNL     1       4.212   6.066  -2.201  0.00  0.00    +0.135 A 
ATOM     22  C   UNL     1       4.466   7.334  -2.722  0.00  0.00    +0.014 A 
ATOM     23  C   UNL     1       4.224   7.491  -4.049  0.00  0.00    +0.028 A 
ATOM     24  C   UNL     1       4.320   6.363  -4.859  0.00  0.00    +0.140 A 
ATOM     25  C   UNL     1       4.653   5.136  -4.290  0.00  0.00    +0.033 A 
ATOM     26  F   UNL     1       4.522   6.421  -6.195  0.00  0.00    -0.204 F 
ATOM     27  C   UNL     1       4.311   8.320  -1.635  0.00  0.00    +0.033 C 
ATOM     28  C   UNL     1       4.869   5.063  -2.917  0.00  0.00    +0.039 A 
ATOM     29  C   UNL     1       3.181   8.203  -0.787  0.00  0.00    +0.051 C 
ENDBRANCH  17  19
ENDBRANCH  16  17
ENDBRANCH   1  16
TORSDOF 6
ENDMDL
MODEL 7
REMARK VINA RESULT:      -8.7      4.377      6.857
REMARK  Name = 
REMARK  6 active torsions:
REMARK  status: ('A' for Active; 'I' for Inactive)
REMARK    1  A    between atoms: C_2  and  C_3
REMARK    2  A    between atoms: C_2  and  C_19
REMARK    3  A    between atoms: C_3  and  N_4
REMARK    4  A    between atoms: N_4  and  C_5
REMARK    5  A    between atoms: C_5  and  C_6
REMARK    6  A    between atoms: C_6  and  C_8
REMARK                            x       y       z     vdW  Elec       q    Type
REMARK                         _______ _______ _______ _____ _____    ______ ____
ROOT
ATOM      1  N   UNL     1       0.122   5.067  -9.198  0.00  0.00    -0.212 NA
ENDROOT
BRANCH   1   2
ATOM      2  C   UNL     1       0.364   5.797 -10.404  0.00  0.00    +0.125 C 
BRANCH   2   4
ATOM      3  O   UNL     1       0.691   4.912 -12.460  0.00  0.00    -0.218 OA
ATOM      4  C   UNL     1       1.559   4.971 -11.207  0.00  0.00    +0.209 C 
BRANCH   4   5
ATOM      5  C   UNL     1       2.402   6.455 -11.625  0.00  0.00    +0.198 C 
ATOM      6  O   UNL     1       2.940   6.548 -10.182  0.00  0.00    -0.477 OA
ATOM      7  C   UNL     1       4.208   6.253  -9.874  0.00  0.00    +0.135 A 
ATOM      8  C   UNL     1       5.202   6.726 -10.724  0.00  0.00    +0.014 A 
ATOM      9  C   UNL     1       6.484   6.302 -10.416  0.00  0.00    +0.028 A 
ATOM     10  C   UNL     1       6.770   5.572  -9.272  0.00  0.00    +0.140 A 
ATOM     11  C   UNL     1       5.736   5.130  -8.464  0.00  0.00    +0.033 A 
ATOM     12  F   UNL     1       7.992   5.020  -9.047  0.00  0.00    -0.204 F 
ATOM     13  C   UNL     1       4.744   6.822 -12.148  0.00  0.00    +0.033 C 
ATOM     14  C   UNL     1       4.542   5.830  -8.593  0.00  0.00    +0.039 A 
ATOM     15  C   UNL     1       3.744   5.726 -12.266  0.00  0.00    +0.051 C 
ENDBRANCH   4   5
ENDBRANCH   2   4
ENDBRANCH   1   2
BRANCH   1  16
ATOM     16  C   UNL     1      -0.158   5.815  -8.030  0.00  0.00    +0.125 C 
BRANCH  16  17
ATOM     17  C   UNL     1       1.194   5.679  -7.070  0.00  0.00    +0.209 C 
ATOM     18  O   UNL     1       1.510   4.305  -7.651  0.00  0.00    -0.218 OA
BRANCH  17  19
ATOM     19  C   UNL     1       0.263   5.055  -5.717  0.00  0.00    +0.198 C 
ATOM     20  O   UNL     1       1.476   4.549  -4.909  0.00  0.00    -0.477 OA
ATOM     21  C   UNL     1       2.616   5.252  -4.844  0.00  0.00    +0.135 A 
ATOM     22  C   UNL     1       2.512   6.468  -4.169  0.00  0.00    +0.014 A 
ATOM     23  C   UNL     1       3.534   7.342  -4.359  0.00  0.00    +0.028 A 
ATOM     24  C   UNL     1       4.783   6.814  -4.674  0.00  0.00    +0.140 A 
ATOM     25  C   UNL     1       4.937   5.434  -4.783  0.00  0.00    +0.033 A 
ATOM     26  F   UNL     1       5.943   7.482  -4.481  0.00  0.00    -0.204 F 
ATOM     27  C   UNL     1       1.081   6.757  -3.956  0.00  0.00    +0.033 C 
ATOM     28  C   UNL     1       3.830   4.612  -4.588  0.00  0.00    +0.039 A 
ATOM     29  C   UNL     1       0.193   6.563  -5.044  0.00  0.00    +0.051 C 
ENDBRANCH  17  19
ENDBRANCH  16  17
ENDBRANCH   1  16
TORSDOF 6
ENDMDL
MODEL 8
REMARK VINA RESULT:      -8.7      2.559      6.301
REMARK  Name = 
REMARK  6 active torsions:
REMARK  status: ('A' for Active; 'I' for Inactive)
REMARK    1  A    between atoms: C_2  and  C_3
REMARK    2  A    between atoms: C_2  and  C_19
REMARK    3  A    between atoms: C_3  and  N_4
REMARK    4  A    between atoms: N_4  and  C_5
REMARK    5  A    between atoms: C_5  and  C_6
REMARK    6  A    between atoms: C_6  and  C_8
REMARK                            x       y       z     vdW  Elec       q    Type
REMARK                         _______ _______ _______ _____ _____    ______ ____
ROOT
ATOM      1  N   UNL     1       4.168   6.707  -5.449  0.00  0.00    -0.212 NA
ENDROOT
BRANCH   1   2
ATOM      2  C   UNL     1       3.911   6.763  -4.043  0.00  0.00    +0.125 C 
BRANCH   2   4
ATOM      3  O   UNL     1       3.847   5.136  -2.472  0.00  0.00    -0.218 OA
ATOM      4  C   UNL     1       2.983   5.431  -3.694  0.00  0.00    +0.209 C 
BRANCH   4   5
ATOM      5  C   UNL     1       1.783   6.401  -2.853  0.00  0.00    +0.198 C 
ATOM      6  O   UNL     1       1.269   6.929  -4.209  0.00  0.00    -0.477 OA
ATOM      7  C   UNL     1       0.124   6.501  -4.752  0.00  0.00    +0.135 A 
ATOM      8  C   UNL     1      -0.975   6.367  -3.911  0.00  0.00    +0.014 A 
ATOM      9  C   UNL     1      -2.101   5.820  -4.504  0.00  0.00    +0.028 A 
ATOM     10  C   UNL     1      -2.169   5.553  -5.863  0.00  0.00    +0.140 A 
ATOM     11  C   UNL     1      -1.040   5.708  -6.650  0.00  0.00    +0.033 A 
ATOM     12  F   UNL     1      -3.206   4.873  -6.421  0.00  0.00    -0.204 F 
ATOM     13  C   UNL     1      -0.586   5.996  -2.510  0.00  0.00    +0.033 C 
ATOM     14  C   UNL     1      -0.065   6.551  -6.128  0.00  0.00    +0.039 A 
ATOM     15  C   UNL     1       0.657   5.198  -2.695  0.00  0.00    +0.051 C 
ENDBRANCH   4   5
ENDBRANCH   2   4
ENDBRANCH   1   2
BRANCH   1  16
ATOM     16  C   UNL     1       4.240   5.426  -6.047  0.00  0.00    +0.125 C 
BRANCH  16  17
ATOM     17  C   UNL     1       3.158   5.454  -7.310  0.00  0.00    +0.209 C 
ATOM     18  O   UNL     1       2.503   4.166  -6.822  0.00  0.00    -0.218 OA
BRANCH  17  19
ATOM     19  C   UNL     1       4.284   4.645  -8.391  0.00  0.00    +0.198 C 
ATOM     20  O   UNL     1       3.212   4.109  -9.363  0.00  0.00    -0.477 OA
ATOM     21  C   UNL     1       2.152   4.850  -9.715  0.00  0.00    +0.135 A 
ATOM     22  C   UNL     1       2.458   5.979 -10.474  0.00  0.00    +0.014 A 
ATOM     23  C   UNL     1       1.477   6.914 -10.571  0.00  0.00    +0.028 A 
ATOM     24  C   UNL     1       0.159   6.479 -10.452  0.00  0.00    +0.140 A 
ATOM     25  C   UNL     1      -0.100   5.127 -10.239  0.00  0.00    +0.033 A 
ATOM     26  F   UNL     1      -0.899   7.172 -10.929  0.00  0.00    -0.204 F 
ATOM     27  C   UNL     1       3.920   6.180 -10.435  0.00  0.00    +0.033 C 
ATOM     28  C   UNL     1       0.969   4.240 -10.136  0.00  0.00    +0.039 A 
ATOM     29  C   UNL     1       4.574   6.067  -9.183  0.00  0.00    +0.051 C 
ENDBRANCH  17  19
ENDBRANCH  16  17
ENDBRANCH   1  16
TORSDOF 6
ENDMDL
MODEL 9
REMARK VINA RESULT:      -8.7      7.158     10.184
REMARK  Name = 
REMARK  6 active torsions:
REMARK  status: ('A' for Active; 'I' for Inactive)
REMARK    1  A    between atoms: C_2  and  C_3
REMARK    2  A    between atoms: C_2  and  C_19
REMARK    3  A    between atoms: C_3  and  N_4
REMARK    4  A    between atoms: N_4  and  C_5
REMARK    5  A    between atoms: C_5  and  C_6
REMARK    6  A    between atoms: C_6  and  C_8
REMARK                            x       y       z     vdW  Elec       q    Type
REMARK                         _______ _______ _______ _____ _____    ______ ____
ROOT
ATOM      1  N   UNL     1       4.022   6.347 -15.350  0.00  0.00    -0.212 NA
ENDROOT
BRANCH   1   2
ATOM      2  C   UNL     1       5.265   6.965 -15.007  0.00  0.00    +0.125 C 
BRANCH   2   4
ATOM      3  O   UNL     1       7.065   5.858 -15.815  0.00  0.00    -0.218 OA
ATOM      4  C   UNL     1       6.269   5.736 -14.520  0.00  0.00    +0.209 C 
BRANCH   4   5
ATOM      5  C   UNL     1       7.267   6.830 -13.574  0.00  0.00    +0.198 C 
ATOM      6  O   UNL     1       6.086   7.064 -12.609  0.00  0.00    -0.477 OA
ATOM      7  C   UNL     1       6.041   6.512 -11.392  0.00  0.00    +0.135 A 
ATOM      8  C   UNL     1       7.210   6.527 -10.637  0.00  0.00    +0.014 A 
ATOM      9  C   UNL     1       7.134   5.849  -9.431  0.00  0.00    +0.028 A 
ATOM     10  C   UNL     1       5.948   5.313  -8.953  0.00  0.00    +0.140 A 
ATOM     11  C   UNL     1       4.817   5.329  -9.752  0.00  0.00    +0.033 A 
ATOM     12  F   UNL     1       5.901   4.514  -7.855  0.00  0.00    -0.204 F 
ATOM     13  C   UNL     1       8.444   6.455 -11.484  0.00  0.00    +0.033 C 
ATOM     14  C   UNL     1       4.822   6.280 -10.767  0.00  0.00    +0.039 A 
ATOM     15  C   UNL     1       8.008   5.660 -12.666  0.00  0.00    +0.051 C 
ENDBRANCH   4   5
ENDBRANCH   2   4
ENDBRANCH   1   2
BRANCH   1  16
ATOM     16  C   UNL     1       2.838   6.954 -14.867  0.00  0.00    +0.125 C 
BRANCH  16  17
ATOM     17  C   UNL     1       2.344   6.021 -13.582  0.00  0.00    +0.209 C 
ATOM     18  O   UNL     1       2.657   4.740 -14.348  0.00  0.00    -0.218 OA
BRANCH  17  19
ATOM     19  C   UNL     1       0.661   6.084 -14.087  0.00  0.00    +0.198 C 
ATOM     20  O   UNL     1       0.116   5.216 -12.934  0.00  0.00    -0.477 OA
ATOM     21  C   UNL     1       0.585   5.337 -11.684  0.00  0.00    +0.135 A 
ATOM     22  C   UNL     1       0.299   6.556 -11.071  0.00  0.00    +0.014 A 
ATOM     23  C   UNL     1       1.017   6.845  -9.955  0.00  0.00    +0.028 A 
ATOM     24  C   UNL     1       1.501   5.775  -9.207  0.00  0.00    +0.140 A 
ATOM     25  C   UNL     1       1.237   4.472  -9.622  0.00  0.00    +0.033 A 
ATOM     26  F   UNL     1       1.849   5.876  -7.904  0.00  0.00    -0.204 F 
ATOM     27  C   UNL     1      -0.214   7.482 -12.100  0.00  0.00    +0.033 C 
ATOM     28  C   UNL     1       0.505   4.269 -10.789  0.00  0.00    +0.039 A 
ATOM     29  C   UNL     1       0.472   7.546 -13.339  0.00  0.00    +0.051 C 
ENDBRANCH  17  19
ENDBRANCH  16  17
ENDBRANCH   1  16
TORSDOF 6
ENDMDL
