MODEL 1
REMARK VINA RESULT:      -5.6      0.000      0.000
REMARK  Name = 
REMARK  0 active torsions:
REMARK  status: ('A' for Active; 'I' for Inactive)
REMARK                            x       y       z     vdW  Elec       q    Type
REMARK                         _______ _______ _______ _____ _____    ______ ____
ROOT
ATOM      1  C   UNL     1       6.469   7.340 -13.380  0.00  0.00    +0.000 C 
ATOM      2  C   UNL     1       6.524   7.203 -12.121  0.00  0.00    +0.007 C 
ATOM      3  C   UNL     1       7.322   6.045 -11.638  0.00  0.00    +0.052 C 
ATOM      4  C   UNL     1       6.676   5.093 -12.596  0.00  0.00    +0.150 C 
ATOM      5  C   UNL     1       5.295   5.101 -12.164  0.00  0.00    +0.064 C 
ATOM      6  O   UNL     1       7.147   4.824 -13.668  0.00  0.00    -0.296 OA
ATOM      7  C   UNL     1       8.764   6.199 -11.766  0.00  0.00    +0.007 C 
ATOM      8  C   UNL     1       6.762   5.719 -10.306  0.00  0.00    +0.007 C 
ATOM      9  C   UNL     1       5.447   6.384 -10.158  0.00  0.00    +0.001 C 
ATOM     10  C   UNL     1       5.019   6.663 -11.726  0.00  0.00    +0.008 C 
ATOM     11  C   UNL     1       6.626   8.441 -11.291  0.00  0.00    +0.000 C 
ENDROOT
TORSDOF 0
ENDMDL
MODEL 2
REMARK VINA RESULT:      -5.5      1.679      2.884
REMARK  Name = 
REMARK  0 active torsions:
REMARK  status: ('A' for Active; 'I' for Inactive)
REMARK                            x       y       z     vdW  Elec       q    Type
REMARK                         _______ _______ _______ _____ _____    ______ ____
ROOT
ATOM      1  C   UNL     1       5.453   7.663 -10.874  0.00  0.00    +0.000 C 
ATOM      2  C   UNL     1       6.293   7.039 -11.589  0.00  0.00    +0.007 C 
ATOM      3  C   UNL     1       6.122   5.562 -11.635  0.00  0.00    +0.052 C 
ATOM      4  C   UNL     1       5.979   5.449 -10.149  0.00  0.00    +0.150 C 
ATOM      5  C   UNL     1       7.271   5.895  -9.675  0.00  0.00    +0.064 C 
ATOM      6  O   UNL     1       4.915   5.440  -9.593  0.00  0.00    -0.296 OA
ATOM      7  C   UNL     1       4.986   5.101 -12.421  0.00  0.00    +0.007 C 
ATOM      8  C   UNL     1       7.465   5.027 -11.954  0.00  0.00    +0.007 C 
ATOM      9  C   UNL     1       8.474   6.086 -11.727  0.00  0.00    +0.001 C 
ATOM     10  C   UNL     1       7.681   7.110 -10.706  0.00  0.00    +0.008 C 
ATOM     11  C   UNL     1       6.721   7.673 -12.873  0.00  0.00    +0.000 C 
ENDROOT
TORSDOF 0
ENDMDL
MODEL 3
REMARK VINA RESULT:      -5.4      1.084      2.559
REMARK  Name = 
REMARK  0 active torsions:
REMARK  status: ('A' for Active; 'I' for Inactive)
REMARK                            x       y       z     vdW  Elec       q    Type
REMARK                         _______ _______ _______ _____ _____    ______ ____
ROOT
ATOM      1  C   UNL     1       7.499   4.888 -11.717  0.00  0.00    +0.000 C 
ATOM      2  C   UNL     1       7.009   5.899 -11.132  0.00  0.00    +0.007 C 
ATOM      3  C   UNL     1       5.537   6.066 -11.267  0.00  0.00    +0.052 C 
ATOM      4  C   UNL     1       5.563   5.835 -12.747  0.00  0.00    +0.150 C 
ATOM      5  C   UNL     1       6.347   6.953 -13.225  0.00  0.00    +0.064 C 
ATOM      6  O   UNL     1       5.371   4.758 -13.243  0.00  0.00    -0.296 OA
ATOM      7  C   UNL     1       4.740   5.127 -10.489  0.00  0.00    +0.007 C 
ATOM      8  C   UNL     1       5.295   7.516 -11.089  0.00  0.00    +0.007 C 
ATOM      9  C   UNL     1       6.577   8.242 -11.230  0.00  0.00    +0.001 C 
ATOM     10  C   UNL     1       7.499   7.162 -12.069  0.00  0.00    +0.008 C 
ATOM     11  C   UNL     1       7.575   6.275  -9.801  0.00  0.00    +0.000 C 
ENDROOT
TORSDOF 0
ENDMDL
MODEL 4
REMARK VINA RESULT:      -5.2      1.427      2.968
REMARK  Name = 
REMARK  0 active torsions:
REMARK  status: ('A' for Active; 'I' for Inactive)
REMARK                            x       y       z     vdW  Elec       q    Type
REMARK                         _______ _______ _______ _____ _____    ______ ____
ROOT
ATOM      1  C   UNL     1       7.113   5.682 -10.409  0.00  0.00    +0.000 C 
ATOM      2  C   UNL     1       7.341   6.146 -11.566  0.00  0.00    +0.007 C 
ATOM      3  C   UNL     1       6.434   7.238 -12.008  0.00  0.00    +0.052 C 
ATOM      4  C   UNL     1       5.202   6.500 -11.585  0.00  0.00    +0.150 C 
ATOM      5  C   UNL     1       5.220   5.340 -12.450  0.00  0.00    +0.064 C 
ATOM      6  O   UNL     1       4.681   6.656 -10.514  0.00  0.00    -0.296 OA
ATOM      7  C   UNL     1       6.662   8.522 -11.359  0.00  0.00    +0.007 C 
ATOM      8  C   UNL     1       6.453   7.181 -13.487  0.00  0.00    +0.007 C 
ATOM      9  C   UNL     1       7.024   5.884 -13.914  0.00  0.00    +0.001 C 
ATOM     10  C   UNL     1       6.814   4.951 -12.571  0.00  0.00    +0.008 C 
ATOM     11  C   UNL     1       8.767   6.287 -11.989  0.00  0.00    +0.000 C 
ENDROOT
TORSDOF 0
ENDMDL
MODEL 5
REMARK VINA RESULT:      -5.2      5.075      6.403
REMARK  Name = 
REMARK  0 active torsions:
REMARK  status: ('A' for Active; 'I' for Inactive)
REMARK                            x       y       z     vdW  Elec       q    Type
REMARK                         _______ _______ _______ _____ _____    ______ ____
ROOT
ATOM      1  C   UNL     1       0.879   6.095  -7.131  0.00  0.00    +0.000 C 
ATOM      2  C   UNL     1       1.974   5.467  -7.244  0.00  0.00    +0.007 C 
ATOM      3  C   UNL     1       3.200   6.307  -7.201  0.00  0.00    +0.052 C 
ATOM      4  C   UNL     1       2.654   7.302  -8.177  0.00  0.00    +0.150 C 
ATOM      5  C   UNL     1       2.503   6.511  -9.380  0.00  0.00    +0.064 C 
ATOM      6  O   UNL     1       2.092   8.308  -7.840  0.00  0.00    -0.296 OA
ATOM      7  C   UNL     1       3.540   6.827  -5.883  0.00  0.00    +0.007 C 
ATOM      8  C   UNL     1       4.224   5.534  -7.940  0.00  0.00    +0.007 C 
ATOM      9  C   UNL     1       3.555   4.471  -8.725  0.00  0.00    +0.001 C 
ATOM     10  C   UNL     1       2.010   5.039  -8.834  0.00  0.00    +0.008 C 
ATOM     11  C   UNL     1       2.085   4.137  -6.572  0.00  0.00    +0.000 C 
ENDROOT
TORSDOF 0
ENDMDL
MODEL 6
REMARK VINA RESULT:      -5.1     10.464     12.056
REMARK  Name = 
REMARK  0 active torsions:
REMARK  status: ('A' for Active; 'I' for Inactive)
REMARK                            x       y       z     vdW  Elec       q    Type
REMARK                         _______ _______ _______ _____ _____    ______ ____
ROOT
ATOM      1  C   UNL     1      -0.435   5.191  -3.276  0.00  0.00    +0.000 C 
ATOM      2  C   UNL     1      -0.940   6.200  -3.853  0.00  0.00    +0.007 C 
ATOM      3  C   UNL     1      -2.077   6.842  -3.141  0.00  0.00    +0.052 C 
ATOM      4  C   UNL     1      -2.767   5.537  -2.894  0.00  0.00    +0.150 C 
ATOM      5  C   UNL     1      -3.070   5.083  -4.234  0.00  0.00    +0.064 C 
ATOM      6  O   UNL     1      -2.635   4.909  -1.878  0.00  0.00    -0.296 OA
ATOM      7  C   UNL     1      -1.706   7.602  -1.956  0.00  0.00    +0.007 C 
ATOM      8  C   UNL     1      -2.861   7.520  -4.198  0.00  0.00    +0.007 C 
ATOM      9  C   UNL     1      -2.449   6.995  -5.520  0.00  0.00    +0.001 C 
ATOM     10  C   UNL     1      -1.765   5.548  -5.121  0.00  0.00    +0.008 C 
ATOM     11  C   UNL     1      -0.010   7.139  -4.551  0.00  0.00    +0.000 C 
ENDROOT
TORSDOF 0
ENDMDL
MODEL 7
REMARK VINA RESULT:      -5.1      4.922      6.701
REMARK  Name = 
REMARK  0 active torsions:
REMARK  status: ('A' for Active; 'I' for Inactive)
REMARK                            x       y       z     vdW  Elec       q    Type
REMARK                         _______ _______ _______ _____ _____    ______ ____
ROOT
ATOM      1  C   UNL     1       3.683   6.367  -8.766  0.00  0.00    +0.000 C 
ATOM      2  C   UNL     1       2.921   5.522  -8.209  0.00  0.00    +0.007 C 
ATOM      3  C   UNL     1       1.541   5.998  -7.921  0.00  0.00    +0.052 C 
ATOM      4  C   UNL     1       2.021   7.281  -7.315  0.00  0.00    +0.150 C 
ATOM      5  C   UNL     1       2.760   6.825  -6.158  0.00  0.00    +0.064 C 
ATOM      6  O   UNL     1       2.120   8.302  -7.940  0.00  0.00    -0.296 OA
ATOM      7  C   UNL     1       0.682   6.127  -9.089  0.00  0.00    +0.007 C 
ATOM      8  C   UNL     1       1.075   5.167  -6.788  0.00  0.00    +0.007 C 
ATOM      9  C   UNL     1       2.240   4.496  -6.167  0.00  0.00    +0.001 C 
ATOM     10  C   UNL     1       3.494   5.443  -6.666  0.00  0.00    +0.008 C 
ATOM     11  C   UNL     1       3.028   4.096  -8.642  0.00  0.00    +0.000 C 
ENDROOT
TORSDOF 0
ENDMDL
MODEL 8
REMARK VINA RESULT:      -5.0      6.295      7.993
REMARK  Name = 
REMARK  0 active torsions:
REMARK  status: ('A' for Active; 'I' for Inactive)
REMARK                            x       y       z     vdW  Elec       q    Type
REMARK                         _______ _______ _______ _____ _____    ______ ____
ROOT
ATOM      1  C   UNL     1       2.722   7.137  -6.672  0.00  0.00    +0.000 C 
ATOM      2  C   UNL     1       3.426   6.244  -6.113  0.00  0.00    +0.007 C 
ATOM      3  C   UNL     1       2.689   5.322  -5.208  0.00  0.00    +0.052 C 
ATOM      4  C   UNL     1       1.976   6.440  -4.513  0.00  0.00    +0.150 C 
ATOM      5  C   UNL     1       3.061   7.164  -3.887  0.00  0.00    +0.064 C 
ATOM      6  O   UNL     1       0.881   6.816  -4.833  0.00  0.00    -0.296 OA
ATOM      7  C   UNL     1       1.843   4.348  -5.884  0.00  0.00    +0.007 C 
ATOM      8  C   UNL     1       3.703   4.831  -4.248  0.00  0.00    +0.007 C 
ATOM      9  C   UNL     1       4.898   5.702  -4.317  0.00  0.00    +0.001 C 
ATOM     10  C   UNL     1       4.286   7.081  -4.983  0.00  0.00    +0.008 C 
ATOM     11  C   UNL     1       4.518   5.615  -6.916  0.00  0.00    +0.000 C 
ENDROOT
TORSDOF 0
ENDMDL
MODEL 9
REMARK VINA RESULT:      -4.9      4.658      6.135
REMARK  Name = 
REMARK  0 active torsions:
REMARK  status: ('A' for Active; 'I' for Inactive)
REMARK                            x       y       z     vdW  Elec       q    Type
REMARK                         _______ _______ _______ _____ _____    ______ ____
ROOT
ATOM      1  C   UNL     1       3.192   4.165  -8.712  0.00  0.00    +0.000 C 
ATOM      2  C   UNL     1       3.256   5.402  -8.445  0.00  0.00    +0.007 C 
ATOM      3  C   UNL     1       3.213   5.747  -6.999  0.00  0.00    +0.052 C 
ATOM      4  C   UNL     1       2.043   4.851  -6.734  0.00  0.00    +0.150 C 
ATOM      5  C   UNL     1       0.998   5.455  -7.532  0.00  0.00    +0.064 C 
ATOM      6  O   UNL     1       2.160   3.722  -6.343  0.00  0.00    -0.296 OA
ATOM      7  C   UNL     1       4.431   5.441  -6.260  0.00  0.00    +0.007 C 
ATOM      8  C   UNL     1       2.684   7.129  -6.947  0.00  0.00    +0.007 C 
ATOM      9  C   UNL     1       2.070   7.462  -8.252  0.00  0.00    +0.001 C 
ATOM     10  C   UNL     1       1.774   5.970  -8.889  0.00  0.00    +0.008 C 
ATOM     11  C   UNL     1       4.163   6.247  -9.278  0.00  0.00    +0.000 C 
ENDROOT
TORSDOF 0
ENDMDL
