MODEL 1
REMARK VINA RESULT:     -10.4      0.000      0.000
REMARK  Name = 
REMARK  6 active torsions:
REMARK  status: ('A' for Active; 'I' for Inactive)
REMARK    1  A    between atoms: C_3  and  C_5
REMARK    2  A    between atoms: C_7  and  O_8
REMARK    3  A    between atoms: O_8  and  C_9
REMARK    4  A    between atoms: C_12  and  N_13
REMARK    5  A    between atoms: N_16  and  C_17
REMARK    6  A    between atoms: C_22  and  C_23
REMARK                            x       y       z     vdW  Elec       q    Type
REMARK                         _______ _______ _______ _____ _____    ______ ____
ROOT
ATOM      1  C   UNL     1      -0.589   6.775  -5.626  0.00  0.00    +0.145 A 
ATOM      2  C   UNL     1       0.762   6.986  -5.875  0.00  0.00    +0.039 A 
ATOM      3  C   UNL     1       1.360   6.564  -7.056  0.00  0.00    +0.020 A 
ATOM      4  C   UNL     1       0.576   5.993  -8.018  0.00  0.00    +0.075 A 
ATOM      5  C   UNL     1      -0.614   5.414  -7.591  0.00  0.00    +0.020 A 
ATOM      6  C   UNL     1      -1.181   5.766  -6.374  0.00  0.00    +0.039 A 
ENDROOT
BRANCH   4   7
ATOM      7  N   UNL     1       0.853   6.076  -9.421  0.00  0.00    -0.161 NA
ATOM      8  C   UNL     1       1.917   5.325  -9.964  0.00  0.00    +0.348 C 
ATOM      9  N   UNL     1       2.656   5.701 -11.121  0.00  0.00    -0.161 NA
ATOM     10  O   UNL     1       2.279   4.241  -9.415  0.00  0.00    -0.248 OA
BRANCH   9  11
ATOM     11  C   UNL     1       4.056   5.434 -11.262  0.00  0.00    +0.075 A 
ATOM     12  C   UNL     1       4.994   5.866 -10.351  0.00  0.00    +0.021 A 
ATOM     13  C   UNL     1       6.336   5.926 -10.703  0.00  0.00    +0.083 A 
ATOM     14  C   UNL     1       6.744   5.693 -12.011  0.00  0.00    +0.062 A 
ATOM     15 CL   UNL     1       8.398   5.856 -12.533  0.00  0.00    -0.082 Cl
ATOM     16  C   UNL     1       5.777   5.523 -12.965  0.00  0.00    +0.013 A 
ATOM     17  C   UNL     1       4.517   5.128 -12.538  0.00  0.00    +0.018 A 
BRANCH  13  18
ATOM     18  C   UNL     1       7.425   5.912  -9.678  0.00  0.00    +0.419 C 
ATOM     19  F   UNL     1       8.308   4.881  -9.866  0.00  0.00    -0.166 F 
ATOM     20  F   UNL     1       6.799   5.811  -8.439  0.00  0.00    -0.166 F 
ATOM     21  F   UNL     1       8.037   7.157  -9.760  0.00  0.00    -0.166 F 
ENDBRANCH  13  18
ENDBRANCH   9  11
ENDBRANCH   4   7
BRANCH   1  22
ATOM     22  O   UNL     1      -1.347   7.685  -4.881  0.00  0.00    -0.453 OA
BRANCH  22  27
ATOM     23  C   UNL     1      -1.870   6.568  -1.478  0.00  0.00    +0.139 A 
ATOM     24  N   UNL     1      -2.249   5.295  -1.749  0.00  0.00    -0.239 NA
ATOM     25  C   UNL     1      -2.960   5.095  -2.886  0.00  0.00    +0.102 A 
ATOM     26  C   UNL     1      -2.793   6.004  -3.907  0.00  0.00    +0.058 A 
ATOM     27  C   UNL     1      -2.016   7.147  -3.778  0.00  0.00    +0.149 A 
ATOM     28  C   UNL     1      -1.703   7.516  -2.478  0.00  0.00    +0.061 A 
BRANCH  23  31
ATOM     29  C   UNL     1      -2.047   8.986   1.400  0.00  0.00    +0.139 C 
ATOM     30  N   UNL     1      -1.555   8.370   0.193  0.00  0.00    -0.198 NA
ATOM     31  C   UNL     1      -1.757   7.000  -0.079  0.00  0.00    +0.283 C 
ATOM     32  O   UNL     1      -1.922   6.197   0.868  0.00  0.00    -0.267 OA
ENDBRANCH  23  31
ENDBRANCH  22  27
ENDBRANCH   1  22
TORSDOF 6
ENDMDL
MODEL 2
REMARK VINA RESULT:     -10.4      1.876      2.273
REMARK  Name = 
REMARK  6 active torsions:
REMARK  status: ('A' for Active; 'I' for Inactive)
REMARK    1  A    between atoms: C_3  and  C_5
REMARK    2  A    between atoms: C_7  and  O_8
REMARK    3  A    between atoms: O_8  and  C_9
REMARK    4  A    between atoms: C_12  and  N_13
REMARK    5  A    between atoms: N_16  and  C_17
REMARK    6  A    between atoms: C_22  and  C_23
REMARK                            x       y       z     vdW  Elec       q    Type
REMARK                         _______ _______ _______ _____ _____    ______ ____
ROOT
ATOM      1  C   UNL     1      -2.076   6.690  -5.130  0.00  0.00    +0.145 A 
ATOM      2  C   UNL     1      -2.241   5.902  -6.263  0.00  0.00    +0.039 A 
ATOM      3  C   UNL     1      -1.153   5.383  -6.954  0.00  0.00    +0.020 A 
ATOM      4  C   UNL     1       0.101   5.600  -6.458  0.00  0.00    +0.075 A 
ATOM      5  C   UNL     1       0.262   6.705  -5.630  0.00  0.00    +0.020 A 
ATOM      6  C   UNL     1      -0.829   7.286  -4.997  0.00  0.00    +0.039 A 
ENDROOT
BRANCH   4   7
ATOM      7  N   UNL     1       1.195   4.695  -6.642  0.00  0.00    -0.161 NA
ATOM      8  C   UNL     1       2.419   5.178  -7.152  0.00  0.00    +0.348 C 
ATOM      9  N   UNL     1       3.343   4.394  -7.898  0.00  0.00    -0.161 NA
ATOM     10  O   UNL     1       2.756   6.387  -6.965  0.00  0.00    -0.248 OA
BRANCH   9  11
ATOM     11  C   UNL     1       4.128   4.936  -8.967  0.00  0.00    +0.075 A 
ATOM     12  C   UNL     1       5.484   5.153  -8.861  0.00  0.00    +0.021 A 
ATOM     13  C   UNL     1       6.127   6.011  -9.744  0.00  0.00    +0.083 A 
ATOM     14  C   UNL     1       5.404   6.776 -10.652  0.00  0.00    +0.062 A 
ATOM     15 CL   UNL     1       6.144   7.944 -11.711  0.00  0.00    -0.082 Cl
ATOM     16  C   UNL     1       4.037   6.749 -10.571  0.00  0.00    +0.013 A 
ATOM     17  C   UNL     1       3.454   5.656  -9.946  0.00  0.00    +0.018 A 
BRANCH  13  18
ATOM     18  C   UNL     1       7.597   5.928 -10.001  0.00  0.00    +0.419 C 
ATOM     19  F   UNL     1       7.883   5.550 -11.286  0.00  0.00    -0.166 F 
ATOM     20  F   UNL     1       8.105   5.010  -9.087  0.00  0.00    -0.166 F 
ATOM     21  F   UNL     1       8.106   7.184  -9.690  0.00  0.00    -0.166 F 
ENDBRANCH  13  18
ENDBRANCH   9  11
ENDBRANCH   4   7
BRANCH   1  22
ATOM     22  O   UNL     1      -2.998   6.664  -4.079  0.00  0.00    -0.453 OA
BRANCH  22  27
ATOM     23  C   UNL     1      -1.509   7.306  -0.843  0.00  0.00    +0.139 A 
ATOM     24  N   UNL     1      -0.419   6.510  -0.972  0.00  0.00    -0.239 NA
ATOM     25  C   UNL     1      -0.572   5.368  -1.685  0.00  0.00    +0.102 A 
ATOM     26  C   UNL     1      -1.568   5.344  -2.638  0.00  0.00    +0.058 A 
ATOM     27  C   UNL     1      -2.463   6.390  -2.817  0.00  0.00    +0.149 A 
ATOM     28  C   UNL     1      -2.538   7.301  -1.775  0.00  0.00    +0.061 A 
BRANCH  23  31
ATOM     29  C   UNL     1      -2.286   7.910   2.788  0.00  0.00    +0.139 C 
ATOM     30  N   UNL     1      -2.520   7.613   1.397  0.00  0.00    -0.198 NA
ATOM     31  C   UNL     1      -1.674   8.103   0.379  0.00  0.00    +0.283 C 
ATOM     32  O   UNL     1      -1.018   9.152   0.569  0.00  0.00    -0.267 OA
ENDBRANCH  23  31
ENDBRANCH  22  27
ENDBRANCH   1  22
TORSDOF 6
ENDMDL
MODEL 3
REMARK VINA RESULT:     -10.3      2.833      3.120
REMARK  Name = 
REMARK  6 active torsions:
REMARK  status: ('A' for Active; 'I' for Inactive)
REMARK    1  A    between atoms: C_3  and  C_5
REMARK    2  A    between atoms: C_7  and  O_8
REMARK    3  A    between atoms: O_8  and  C_9
REMARK    4  A    between atoms: C_12  and  N_13
REMARK    5  A    between atoms: N_16  and  C_17
REMARK    6  A    between atoms: C_22  and  C_23
REMARK                            x       y       z     vdW  Elec       q    Type
REMARK                         _______ _______ _______ _____ _____    ______ ____
ROOT
ATOM      1  C   UNL     1       0.902   5.560  -5.803  0.00  0.00    +0.145 A 
ATOM      2  C   UNL     1      -0.182   5.161  -6.575  0.00  0.00    +0.039 A 
ATOM      3  C   UNL     1      -0.331   5.579  -7.892  0.00  0.00    +0.020 A 
ATOM      4  C   UNL     1       0.655   6.341  -8.452  0.00  0.00    +0.075 A 
ATOM      5  C   UNL     1       1.459   7.062  -7.577  0.00  0.00    +0.020 A 
ATOM      6  C   UNL     1       1.553   6.706  -6.239  0.00  0.00    +0.039 A 
ENDROOT
BRANCH   4   7
ATOM      7  N   UNL     1       0.971   6.329  -9.849  0.00  0.00    -0.161 NA
ATOM      8  C   UNL     1       2.034   5.528 -10.314  0.00  0.00    +0.348 C 
ATOM      9  N   UNL     1       2.810   5.817 -11.472  0.00  0.00    -0.161 NA
ATOM     10  O   UNL     1       2.363   4.475  -9.687  0.00  0.00    -0.248 OA
BRANCH   9  11
ATOM     11  C   UNL     1       4.208   5.518 -11.558  0.00  0.00    +0.075 A 
ATOM     12  C   UNL     1       5.122   5.952 -10.624  0.00  0.00    +0.021 A 
ATOM     13  C   UNL     1       6.477   5.977 -10.930  0.00  0.00    +0.083 A 
ATOM     14  C   UNL     1       6.926   5.707 -12.217  0.00  0.00    +0.062 A 
ATOM     15 CL   UNL     1       8.599   5.824 -12.684  0.00  0.00    -0.082 Cl
ATOM     16  C   UNL     1       5.988   5.535 -13.201  0.00  0.00    +0.013 A 
ATOM     17  C   UNL     1       4.707   5.175 -12.810  0.00  0.00    +0.018 A 
BRANCH  13  18
ATOM     18  C   UNL     1       7.529   5.964  -9.867  0.00  0.00    +0.419 C 
ATOM     19  F   UNL     1       8.414   4.929 -10.018  0.00  0.00    -0.166 F 
ATOM     20  F   UNL     1       6.859   5.872  -8.650  0.00  0.00    -0.166 F 
ATOM     21  F   UNL     1       8.148   7.207  -9.934  0.00  0.00    -0.166 F 
ENDBRANCH  13  18
ENDBRANCH   9  11
ENDBRANCH   4   7
BRANCH   1  22
ATOM     22  O   UNL     1       1.453   4.723  -4.827  0.00  0.00    -0.453 OA
BRANCH  22  27
ATOM     23  C   UNL     1       2.675   5.321  -1.473  0.00  0.00    +0.139 A 
ATOM     24  N   UNL     1       1.556   4.967  -0.794  0.00  0.00    -0.239 NA
ATOM     25  C   UNL     1       0.367   5.240  -1.385  0.00  0.00    +0.102 A 
ATOM     26  C   UNL     1       0.348   5.331  -2.760  0.00  0.00    +0.058 A 
ATOM     27  C   UNL     1       1.497   5.255  -3.535  0.00  0.00    +0.149 A 
ATOM     28  C   UNL     1       2.693   5.436  -2.856  0.00  0.00    +0.061 A 
BRANCH  23  31
ATOM     29  C   UNL     1       4.673   7.360   0.978  0.00  0.00    +0.139 C 
ATOM     30  N   UNL     1       3.949   7.042  -0.227  0.00  0.00    -0.198 NA
ATOM     31  C   UNL     1       3.871   5.722  -0.722  0.00  0.00    +0.283 C 
ATOM     32  O   UNL     1       4.773   4.900  -0.440  0.00  0.00    -0.267 OA
ENDBRANCH  23  31
ENDBRANCH  22  27
ENDBRANCH   1  22
TORSDOF 6
ENDMDL
MODEL 4
REMARK VINA RESULT:     -10.3      5.212     11.586
REMARK  Name = 
REMARK  6 active torsions:
REMARK  status: ('A' for Active; 'I' for Inactive)
REMARK    1  A    between atoms: C_3  and  C_5
REMARK    2  A    between atoms: C_7  and  O_8
REMARK    3  A    between atoms: O_8  and  C_9
REMARK    4  A    between atoms: C_12  and  N_13
REMARK    5  A    between atoms: N_16  and  C_17
REMARK    6  A    between atoms: C_22  and  C_23
REMARK                            x       y       z     vdW  Elec       q    Type
REMARK                         _______ _______ _______ _____ _____    ______ ____
ROOT
ATOM      1  C   UNL     1       5.418   6.606 -10.043  0.00  0.00    +0.145 A 
ATOM      2  C   UNL     1       4.076   6.790  -9.733  0.00  0.00    +0.039 A 
ATOM      3  C   UNL     1       3.522   6.282  -8.565  0.00  0.00    +0.020 A 
ATOM      4  C   UNL     1       4.342   5.651  -7.673  0.00  0.00    +0.075 A 
ATOM      5  C   UNL     1       5.518   5.110  -8.181  0.00  0.00    +0.020 A 
ATOM      6  C   UNL     1       6.040   5.550  -9.389  0.00  0.00    +0.039 A 
ENDROOT
BRANCH   4   7
ATOM      7  N   UNL     1       4.113   5.633  -6.259  0.00  0.00    -0.161 NA
ATOM      8  C   UNL     1       2.977   4.971  -5.747  0.00  0.00    +0.348 C 
ATOM      9  N   UNL     1       2.322   5.324  -4.534  0.00  0.00    -0.161 NA
ATOM     10  O   UNL     1       2.465   3.999  -6.380  0.00  0.00    -0.248 OA
BRANCH   9  11
ATOM     11  C   UNL     1       0.903   5.221  -4.364  0.00  0.00    +0.075 A 
ATOM     12  C   UNL     1       0.005   5.673  -5.306  0.00  0.00    +0.021 A 
ATOM     13  C   UNL     1      -1.319   5.905  -4.955  0.00  0.00    +0.083 A 
ATOM     14  C   UNL     1      -1.732   5.829  -3.630  0.00  0.00    +0.062 A 
ATOM     15 CL   UNL     1      -3.352   6.211  -3.118  0.00  0.00    -0.082 Cl
ATOM     16  C   UNL     1      -0.775   5.637  -2.669  0.00  0.00    +0.013 A 
ATOM     17  C   UNL     1       0.429   5.075  -3.066  0.00  0.00    +0.018 A 
BRANCH  13  18
ATOM     18  C   UNL     1      -2.416   5.922  -5.970  0.00  0.00    +0.419 C 
ATOM     19  F   UNL     1      -1.950   5.747  -7.247  0.00  0.00    -0.166 F 
ATOM     20  F   UNL     1      -3.056   7.151  -5.839  0.00  0.00    -0.166 F 
ATOM     21  F   UNL     1      -3.302   4.923  -5.585  0.00  0.00    -0.166 F 
ENDBRANCH  13  18
ENDBRANCH   9  11
ENDBRANCH   4   7
BRANCH   1  22
ATOM     22  O   UNL     1       6.146   7.571 -10.748  0.00  0.00    -0.453 OA
BRANCH  22  27
ATOM     23  C   UNL     1       6.821   6.453 -14.123  0.00  0.00    +0.139 A 
ATOM     24  N   UNL     1       7.342   5.238 -13.823  0.00  0.00    -0.239 NA
ATOM     25  C   UNL     1       8.063   5.144 -12.679  0.00  0.00    +0.102 A 
ATOM     26  C   UNL     1       7.784   6.048 -11.678  0.00  0.00    +0.058 A 
ATOM     27  C   UNL     1       6.881   7.091 -11.836  0.00  0.00    +0.149 A 
ATOM     28  C   UNL     1       6.538   7.395 -13.145  0.00  0.00    +0.061 A 
BRANCH  23  31
ATOM     29  C   UNL     1       6.404   8.828 -17.011  0.00  0.00    +0.139 C 
ATOM     30  N   UNL     1       6.056   8.074 -15.833  0.00  0.00    -0.198 NA
ATOM     31  C   UNL     1       6.670   6.839 -15.532  0.00  0.00    +0.283 C 
ATOM     32  O   UNL     1       7.148   6.142 -16.456  0.00  0.00    -0.267 OA
ENDBRANCH  23  31
ENDBRANCH  22  27
ENDBRANCH   1  22
TORSDOF 6
ENDMDL
MODEL 5
REMARK VINA RESULT:     -10.0      1.505      1.921
REMARK  Name = 
REMARK  6 active torsions:
REMARK  status: ('A' for Active; 'I' for Inactive)
REMARK    1  A    between atoms: C_3  and  C_5
REMARK    2  A    between atoms: C_7  and  O_8
REMARK    3  A    between atoms: O_8  and  C_9
REMARK    4  A    between atoms: C_12  and  N_13
REMARK    5  A    between atoms: N_16  and  C_17
REMARK    6  A    between atoms: C_22  and  C_23
REMARK                            x       y       z     vdW  Elec       q    Type
REMARK                         _______ _______ _______ _____ _____    ______ ____
ROOT
ATOM      1  C   UNL     1      -0.667   6.496  -5.744  0.00  0.00    +0.145 A 
ATOM      2  C   UNL     1       0.671   6.804  -5.955  0.00  0.00    +0.039 A 
ATOM      3  C   UNL     1       1.304   6.513  -7.157  0.00  0.00    +0.020 A 
ATOM      4  C   UNL     1       0.566   5.975  -8.172  0.00  0.00    +0.075 A 
ATOM      5  C   UNL     1      -0.591   5.295  -7.809  0.00  0.00    +0.020 A 
ATOM      6  C   UNL     1      -1.190   5.515  -6.577  0.00  0.00    +0.039 A 
ENDROOT
BRANCH   4   7
ATOM      7  N   UNL     1       0.852   6.185  -9.560  0.00  0.00    -0.161 NA
ATOM      8  C   UNL     1       1.891   5.454 -10.173  0.00  0.00    +0.348 C 
ATOM      9  N   UNL     1       2.648   5.916 -11.287  0.00  0.00    -0.161 NA
ATOM     10  O   UNL     1       2.214   4.310  -9.731  0.00  0.00    -0.248 OA
BRANCH   9  11
ATOM     11  C   UNL     1       4.039   5.615 -11.452  0.00  0.00    +0.075 A 
ATOM     12  C   UNL     1       5.005   6.049 -10.572  0.00  0.00    +0.021 A 
ATOM     13  C   UNL     1       6.341   6.071 -10.954  0.00  0.00    +0.083 A 
ATOM     14  C   UNL     1       6.715   5.801 -12.265  0.00  0.00    +0.062 A 
ATOM     15 CL   UNL     1       8.359   5.916 -12.826  0.00  0.00    -0.082 Cl
ATOM     16  C   UNL     1       5.722   5.629 -13.193  0.00  0.00    +0.013 A 
ATOM     17  C   UNL     1       4.465   5.271 -12.730  0.00  0.00    +0.018 A 
BRANCH  13  18
ATOM     18  C   UNL     1       7.451   6.058  -9.954  0.00  0.00    +0.419 C 
ATOM     19  F   UNL     1       6.998   5.909  -8.669  0.00  0.00    -0.166 F 
ATOM     20  F   UNL     1       8.133   7.262 -10.104  0.00  0.00    -0.166 F 
ATOM     21  F   UNL     1       8.297   5.025 -10.342  0.00  0.00    -0.166 F 
ENDBRANCH  13  18
ENDBRANCH   9  11
ENDBRANCH   4   7
BRANCH   1  22
ATOM     22  O   UNL     1      -1.486   7.297  -4.941  0.00  0.00    -0.453 OA
BRANCH  22  27
ATOM     23  C   UNL     1      -0.412   5.780  -1.835  0.00  0.00    +0.139 A 
ATOM     24  N   UNL     1      -1.567   5.142  -1.523  0.00  0.00    -0.239 NA
ATOM     25  C   UNL     1      -2.722   5.756  -1.877  0.00  0.00    +0.102 A 
ATOM     26  C   UNL     1      -2.676   6.631  -2.940  0.00  0.00    +0.058 A 
ATOM     27  C   UNL     1      -1.494   6.975  -3.581  0.00  0.00    +0.149 A 
ATOM     28  C   UNL     1      -0.328   6.678  -2.890  0.00  0.00    +0.061 A 
BRANCH  23  31
ATOM     29  C   UNL     1       3.207   5.171  -1.004  0.00  0.00    +0.139 C 
ATOM     30  N   UNL     1       1.861   4.882  -1.431  0.00  0.00    -0.198 NA
ATOM     31  C   UNL     1       0.755   5.620  -0.958  0.00  0.00    +0.283 C 
ATOM     32  O   UNL     1       0.820   6.192   0.154  0.00  0.00    -0.267 OA
ENDBRANCH  23  31
ENDBRANCH  22  27
ENDBRANCH   1  22
TORSDOF 6
ENDMDL
MODEL 6
REMARK VINA RESULT:      -9.6      5.137     10.711
REMARK  Name = 
REMARK  6 active torsions:
REMARK  status: ('A' for Active; 'I' for Inactive)
REMARK    1  A    between atoms: C_3  and  C_5
REMARK    2  A    between atoms: C_7  and  O_8
REMARK    3  A    between atoms: O_8  and  C_9
REMARK    4  A    between atoms: C_12  and  N_13
REMARK    5  A    between atoms: N_16  and  C_17
REMARK    6  A    between atoms: C_22  and  C_23
REMARK                            x       y       z     vdW  Elec       q    Type
REMARK                         _______ _______ _______ _____ _____    ______ ____
ROOT
ATOM      1  C   UNL     1       3.830   5.698  -9.585  0.00  0.00    +0.145 A 
ATOM      2  C   UNL     1       4.934   5.134  -8.958  0.00  0.00    +0.039 A 
ATOM      3  C   UNL     1       5.170   5.311  -7.601  0.00  0.00    +0.020 A 
ATOM      4  C   UNL     1       4.251   6.000  -6.861  0.00  0.00    +0.075 A 
ATOM      5  C   UNL     1       3.436   6.890  -7.551  0.00  0.00    +0.020 A 
ATOM      6  C   UNL     1       3.256   6.775  -8.922  0.00  0.00    +0.039 A 
ENDROOT
BRANCH   4   7
ATOM      7  N   UNL     1       4.009   5.758  -5.471  0.00  0.00    -0.161 NA
ATOM      8  C   UNL     1       2.832   5.087  -5.077  0.00  0.00    +0.348 C 
ATOM      9  N   UNL     1       2.187   5.268  -3.821  0.00  0.00    -0.161 NA
ATOM     10  O   UNL     1       2.271   4.266  -5.864  0.00  0.00    -0.248 OA
BRANCH   9  11
ATOM     11  C   UNL     1       0.763   5.221  -3.671  0.00  0.00    +0.075 A 
ATOM     12  C   UNL     1      -0.104   5.694  -4.631  0.00  0.00    +0.021 A 
ATOM     13  C   UNL     1      -1.423   5.981  -4.302  0.00  0.00    +0.083 A 
ATOM     14  C   UNL     1      -1.858   5.937  -2.983  0.00  0.00    +0.062 A 
ATOM     15 CL   UNL     1      -3.469   6.387  -2.499  0.00  0.00    -0.082 Cl
ATOM     16  C   UNL     1      -0.923   5.722  -2.006  0.00  0.00    +0.013 A 
ATOM     17  C   UNL     1       0.265   5.110  -2.378  0.00  0.00    +0.018 A 
BRANCH  13  18
ATOM     18  C   UNL     1      -2.505   6.025  -5.333  0.00  0.00    +0.419 C 
ATOM     19  F   UNL     1      -3.142   7.237  -5.372  0.00  0.00    -0.166 F 
ATOM     20  F   UNL     1      -3.395   5.004  -5.015  0.00  0.00    -0.166 F 
ATOM     21  F   UNL     1      -1.890   5.710  -6.540  0.00  0.00    -0.166 F 
ENDBRANCH  13  18
ENDBRANCH   9  11
ENDBRANCH   4   7
BRANCH   1  22
ATOM     22  O   UNL     1       3.192   5.063 -10.655  0.00  0.00    -0.453 OA
BRANCH  22  27
ATOM     23  C   UNL     1       2.257   6.077 -14.002  0.00  0.00    +0.139 A 
ATOM     24  N   UNL     1       3.404   5.728 -14.636  0.00  0.00    -0.239 NA
ATOM     25  C   UNL     1       4.558   5.867 -13.939  0.00  0.00    +0.102 A 
ATOM     26  C   UNL     1       4.479   5.815 -12.564  0.00  0.00    +0.058 A 
ATOM     27  C   UNL     1       3.273   5.728 -11.883  0.00  0.00    +0.149 A 
ATOM     28  C   UNL     1       2.142   6.049 -12.619  0.00  0.00    +0.061 A 
BRANCH  23  31
ATOM     29  C   UNL     1       0.439   8.647 -16.063  0.00  0.00    +0.139 C 
ATOM     30  N   UNL     1       1.018   8.026 -14.898  0.00  0.00    -0.198 NA
ATOM     31  C   UNL     1       1.143   6.624 -14.786  0.00  0.00    +0.283 C 
ATOM     32  O   UNL     1       0.363   5.879 -15.423  0.00  0.00    -0.267 OA
ENDBRANCH  23  31
ENDBRANCH  22  27
ENDBRANCH   1  22
TORSDOF 6
ENDMDL
MODEL 7
REMARK VINA RESULT:      -9.4      2.615      3.118
REMARK  Name = 
REMARK  6 active torsions:
REMARK  status: ('A' for Active; 'I' for Inactive)
REMARK    1  A    between atoms: C_3  and  C_5
REMARK    2  A    between atoms: C_7  and  O_8
REMARK    3  A    between atoms: O_8  and  C_9
REMARK    4  A    between atoms: C_12  and  N_13
REMARK    5  A    between atoms: N_16  and  C_17
REMARK    6  A    between atoms: C_22  and  C_23
REMARK                            x       y       z     vdW  Elec       q    Type
REMARK                         _______ _______ _______ _____ _____    ______ ____
ROOT
ATOM      1  C   UNL     1       2.274   5.602  -4.683  0.00  0.00    +0.145 A 
ATOM      2  C   UNL     1       1.127   4.974  -5.151  0.00  0.00    +0.039 A 
ATOM      3  C   UNL     1       0.581   5.284  -6.391  0.00  0.00    +0.020 A 
ATOM      4  C   UNL     1       1.237   6.176  -7.190  0.00  0.00    +0.075 A 
ATOM      5  C   UNL     1       2.083   7.078  -6.554  0.00  0.00    +0.020 A 
ATOM      6  C   UNL     1       2.571   6.820  -5.280  0.00  0.00    +0.039 A 
ENDROOT
BRANCH   4   7
ATOM      7  N   UNL     1       1.193   6.143  -8.621  0.00  0.00    -0.161 NA
ATOM      8  C   UNL     1       2.165   5.404  -9.328  0.00  0.00    +0.348 C 
ATOM      9  N   UNL     1       2.602   5.711 -10.648  0.00  0.00    -0.161 NA
ATOM     10  O   UNL     1       2.719   4.398  -8.791  0.00  0.00    -0.248 OA
BRANCH   9  11
ATOM     11  C   UNL     1       3.953   5.509 -11.080  0.00  0.00    +0.075 A 
ATOM     12  C   UNL     1       5.039   5.958 -10.362  0.00  0.00    +0.021 A 
ATOM     13  C   UNL     1       6.279   6.086 -10.975  0.00  0.00    +0.083 A 
ATOM     14  C   UNL     1       6.421   5.909 -12.346  0.00  0.00    +0.062 A 
ATOM     15 CL   UNL     1       7.926   6.159 -13.186  0.00  0.00    -0.082 Cl
ATOM     16  C   UNL     1       5.286   5.723 -13.090  0.00  0.00    +0.013 A 
ATOM     17  C   UNL     1       4.156   5.261 -12.432  0.00  0.00    +0.018 A 
BRANCH  13  18
ATOM     18  C   UNL     1       7.553   6.091 -10.194  0.00  0.00    +0.419 C 
ATOM     19  F   UNL     1       8.448   5.157 -10.644  0.00  0.00    -0.166 F 
ATOM     20  F   UNL     1       7.204   5.847  -8.868  0.00  0.00    -0.166 F 
ATOM     21  F   UNL     1       8.047   7.388 -10.284  0.00  0.00    -0.166 F 
ENDBRANCH  13  18
ENDBRANCH   9  11
ENDBRANCH   4   7
BRANCH   1  22
ATOM     22  O   UNL     1       3.196   4.933  -3.871  0.00  0.00    -0.453 OA
BRANCH  22  27
ATOM     23  C   UNL     1       1.900   6.339  -0.798  0.00  0.00    +0.139 A 
ATOM     24  N   UNL     1       3.079   6.721  -0.249  0.00  0.00    -0.239 NA
ATOM     25  C   UNL     1       4.156   5.937  -0.500  0.00  0.00    +0.102 A 
ATOM     26  C   UNL     1       4.137   5.184  -1.654  0.00  0.00    +0.058 A 
ATOM     27  C   UNL     1       3.035   5.126  -2.495  0.00  0.00    +0.149 A 
ATOM     28  C   UNL     1       1.840   5.571  -1.952  0.00  0.00    +0.061 A 
BRANCH  23  31
ATOM     29  C   UNL     1      -0.249   7.849   1.896  0.00  0.00    +0.139 C 
ATOM     30  N   UNL     1       0.713   6.967   1.284  0.00  0.00    -0.198 NA
ATOM     31  C   UNL     1       0.650   6.635  -0.087  0.00  0.00    +0.283 C 
ATOM     32  O   UNL     1      -0.448   6.682  -0.687  0.00  0.00    -0.267 OA
ENDBRANCH  23  31
ENDBRANCH  22  27
ENDBRANCH   1  22
TORSDOF 6
ENDMDL
MODEL 8
REMARK VINA RESULT:      -9.1      3.674      5.049
REMARK  Name = 
REMARK  6 active torsions:
REMARK  status: ('A' for Active; 'I' for Inactive)
REMARK    1  A    between atoms: C_3  and  C_5
REMARK    2  A    between atoms: C_7  and  O_8
REMARK    3  A    between atoms: O_8  and  C_9
REMARK    4  A    between atoms: C_12  and  N_13
REMARK    5  A    between atoms: N_16  and  C_17
REMARK    6  A    between atoms: C_22  and  C_23
REMARK                            x       y       z     vdW  Elec       q    Type
REMARK                         _______ _______ _______ _____ _____    ______ ____
ROOT
ATOM      1  C   UNL     1      -0.296   5.634 -10.388  0.00  0.00    +0.145 A 
ATOM      2  C   UNL     1      -0.128   4.620 -11.323  0.00  0.00    +0.039 A 
ATOM      3  C   UNL     1       0.389   4.874 -12.588  0.00  0.00    +0.020 A 
ATOM      4  C   UNL     1       0.804   6.142 -12.883  0.00  0.00    +0.075 A 
ATOM      5  C   UNL     1       0.239   7.171 -12.139  0.00  0.00    +0.020 A 
ATOM      6  C   UNL     1      -0.355   6.920 -10.910  0.00  0.00    +0.039 A 
ENDROOT
BRANCH   4   7
ATOM      7  N   UNL     1       1.857   6.438 -13.807  0.00  0.00    -0.161 NA
ATOM      8  C   UNL     1       3.067   5.716 -13.735  0.00  0.00    +0.348 C 
ATOM      9  N   UNL     1       4.332   6.228 -14.141  0.00  0.00    -0.161 NA
ATOM     10  O   UNL     1       3.080   4.534 -13.277  0.00  0.00    -0.248 OA
BRANCH   9  11
ATOM     11  C   UNL     1       5.552   5.893 -13.469  0.00  0.00    +0.075 A 
ATOM     12  C   UNL     1       5.827   6.291 -12.180  0.00  0.00    +0.021 A 
ATOM     13  C   UNL     1       7.133   6.282 -11.708  0.00  0.00    +0.083 A 
ATOM     14  C   UNL     1       8.199   6.016 -12.558  0.00  0.00    +0.062 A 
ATOM     15 CL   UNL     1       9.863   6.094 -12.049  0.00  0.00    -0.082 Cl
ATOM     16  C   UNL     1       7.936   5.881 -13.896  0.00  0.00    +0.013 A 
ATOM     17  C   UNL     1       6.640   5.551 -14.264  0.00  0.00    +0.018 A 
BRANCH  13  18
ATOM     18  C   UNL     1       7.448   6.228 -10.247  0.00  0.00    +0.419 C 
ATOM     19  F   UNL     1       8.160   7.319  -9.824  0.00  0.00    -0.166 F 
ATOM     20  F   UNL     1       8.167   5.054 -10.042  0.00  0.00    -0.166 F 
ATOM     21  F   UNL     1       6.223   6.109  -9.601  0.00  0.00    -0.166 F 
ENDBRANCH  13  18
ENDBRANCH   9  11
ENDBRANCH   4   7
BRANCH   1  22
ATOM     22  O   UNL     1      -0.147   5.398  -9.018  0.00  0.00    -0.453 OA
BRANCH  22  27
ATOM     23  C   UNL     1       2.284   6.814  -6.741  0.00  0.00    +0.139 A 
ATOM     24  N   UNL     1       2.992   7.539  -7.641  0.00  0.00    -0.239 NA
ATOM     25  C   UNL     1       3.116   7.019  -8.886  0.00  0.00    +0.102 A 
ATOM     26  C   UNL     1       2.137   6.147  -9.310  0.00  0.00    +0.058 A 
ATOM     27  C   UNL     1       1.107   5.715  -8.487  0.00  0.00    +0.149 A 
ATOM     28  C   UNL     1       1.299   5.917  -7.128  0.00  0.00    +0.061 A 
BRANCH  23  31
ATOM     29  C   UNL     1       2.549   5.577  -3.197  0.00  0.00    +0.139 C 
ATOM     30  N   UNL     1       1.937   6.086  -4.398  0.00  0.00    -0.198 NA
ATOM     31  C   UNL     1       2.653   6.879  -5.320  0.00  0.00    +0.283 C 
ATOM     32  O   UNL     1       3.635   7.550  -4.930  0.00  0.00    -0.267 OA
ENDBRANCH  23  31
ENDBRANCH  22  27
ENDBRANCH   1  22
TORSDOF 6
ENDMDL
MODEL 9
REMARK VINA RESULT:      -9.1      5.315     10.789
REMARK  Name = 
REMARK  6 active torsions:
REMARK  status: ('A' for Active; 'I' for Inactive)
REMARK    1  A    between atoms: C_3  and  C_5
REMARK    2  A    between atoms: C_7  and  O_8
REMARK    3  A    between atoms: O_8  and  C_9
REMARK    4  A    between atoms: C_12  and  N_13
REMARK    5  A    between atoms: N_16  and  C_17
REMARK    6  A    between atoms: C_22  and  C_23
REMARK                            x       y       z     vdW  Elec       q    Type
REMARK                         _______ _______ _______ _____ _____    ______ ____
ROOT
ATOM      1  C   UNL     1       2.448   5.898  -9.892  0.00  0.00    +0.145 A 
ATOM      2  C   UNL     1       3.436   4.970  -9.586  0.00  0.00    +0.039 A 
ATOM      3  C   UNL     1       4.066   4.958  -8.347  0.00  0.00    +0.020 A 
ATOM      4  C   UNL     1       3.644   5.838  -7.391  0.00  0.00    +0.075 A 
ATOM      5  C   UNL     1       3.008   6.989  -7.839  0.00  0.00    +0.020 A 
ATOM      6  C   UNL     1       2.445   7.044  -9.107  0.00  0.00    +0.039 A 
ENDROOT
BRANCH   4   7
ATOM      7  N   UNL     1       3.712   5.574  -5.985  0.00  0.00    -0.161 NA
ATOM      8  C   UNL     1       2.611   4.978  -5.336  0.00  0.00    +0.348 C 
ATOM      9  N   UNL     1       2.289   5.169  -3.962  0.00  0.00    -0.161 NA
ATOM     10  O   UNL     1       1.823   4.221  -5.979  0.00  0.00    -0.248 OA
BRANCH   9  11
ATOM     11  C   UNL     1       0.939   5.218  -3.486  0.00  0.00    +0.075 A 
ATOM     12  C   UNL     1      -0.125   5.555  -4.293  0.00  0.00    +0.021 A 
ATOM     13  C   UNL     1      -1.329   5.959  -3.732  0.00  0.00    +0.083 A 
ATOM     14  C   UNL     1      -1.445   6.173  -2.364  0.00  0.00    +0.062 A 
ATOM     15 CL   UNL     1      -2.897   6.779  -1.617  0.00  0.00    -0.082 Cl
ATOM     16  C   UNL     1      -0.310   6.089  -1.602  0.00  0.00    +0.013 A 
ATOM     17  C   UNL     1       0.755   5.364  -2.116  0.00  0.00    +0.018 A 
BRANCH  13  18
ATOM     18  C   UNL     1      -2.620   5.872  -4.480  0.00  0.00    +0.419 C 
ATOM     19  F   UNL     1      -3.541   5.080  -3.845  0.00  0.00    -0.166 F 
ATOM     20  F   UNL     1      -2.313   5.366  -5.740  0.00  0.00    -0.166 F 
ATOM     21  F   UNL     1      -3.060   7.182  -4.630  0.00  0.00    -0.166 F 
ENDBRANCH  13  18
ENDBRANCH   9  11
ENDBRANCH   4   7
BRANCH   1  22
ATOM     22  O   UNL     1       1.381   5.579 -10.738  0.00  0.00    -0.453 OA
BRANCH  22  27
ATOM     23  C   UNL     1       2.864   6.044 -14.008  0.00  0.00    +0.139 A 
ATOM     24  N   UNL     1       1.742   5.882 -14.752  0.00  0.00    -0.239 NA
ATOM     25  C   UNL     1       0.823   4.998 -14.294  0.00  0.00    +0.102 A 
ATOM     26  C   UNL     1       0.800   4.751 -12.939  0.00  0.00    +0.058 A 
ATOM     27  C   UNL     1       1.731   5.289 -12.061  0.00  0.00    +0.149 A 
ATOM     28  C   UNL     1       2.884   5.794 -12.643  0.00  0.00    +0.061 A 
BRANCH  23  31
ATOM     29  C   UNL     1       6.575   5.889 -14.609  0.00  0.00    +0.139 C 
ATOM     30  N   UNL     1       5.334   6.226 -13.958  0.00  0.00    -0.198 NA
ATOM     31  C   UNL     1       4.129   6.367 -14.679  0.00  0.00    +0.283 C 
ATOM     32  O   UNL     1       4.165   6.678 -15.892  0.00  0.00    -0.267 OA
ENDBRANCH  23  31
ENDBRANCH  22  27
ENDBRANCH   1  22
TORSDOF 6
ENDMDL
