MODEL 1
REMARK VINA RESULT:      -8.4      0.000      0.000
REMARK  Name = 
REMARK  4 active torsions:
REMARK  status: ('A' for Active; 'I' for Inactive)
REMARK    1  A    between atoms: C_2  and  C_3
REMARK    2  A    between atoms: C_10  and  C_11
REMARK    3  A    between atoms: C_11  and  C_13
REMARK    4  A    between atoms: C_20  and  O_21
REMARK                            x       y       z     vdW  Elec       q    Type
REMARK                         _______ _______ _______ _____ _____    ______ ____
ROOT
ATOM      1  C   UNL     1       2.030   7.020  -5.777  0.00  0.00    +0.189 C 
ATOM      2  O   UNL     1       2.396   7.838  -6.993  0.00  0.00    -0.217 OA
ENDROOT
BRANCH   1   3
ATOM      3  C   UNL     1       1.182   5.929  -6.608  0.00  0.00    +0.012 A 
ATOM      4  C   UNL     1      -0.107   5.914  -6.061  0.00  0.00    +0.019 A 
ATOM      5  C   UNL     1      -1.204   5.548  -6.833  0.00  0.00    +0.081 A 
ATOM      6  C   UNL     1      -2.466   5.446  -6.263  0.00  0.00    +0.022 A 
ATOM      7  C   UNL     1      -2.624   5.685  -4.904  0.00  0.00    +0.038 A 
ATOM      8  C   UNL     1      -1.529   5.883  -4.072  0.00  0.00    +0.139 A 
ATOM      9  N   UNL     1      -0.971   5.096  -8.075  0.00  0.00    -0.244 NA
ATOM     10  C   UNL     1       0.092   5.549  -8.745  0.00  0.00    +0.099 A 
ATOM     11  C   UNL     1      -0.360   6.206  -4.747  0.00  0.00    +0.038 A 
ATOM     12  C   UNL     1       1.191   5.938  -7.961  0.00  0.00    +0.019 A 
BRANCH   8  13
ATOM     13  O   UNL     1      -1.382   5.165  -2.879  0.00  0.00    -0.471 OA
ATOM     14  C   UNL     1      -0.393   5.306  -1.934  0.00  0.00    +0.252 C 
ENDBRANCH   8  13
ENDBRANCH   1   3
BRANCH   1  18
ATOM     15  C   UNL     1       4.086   6.542  -2.590  0.00  0.00    +0.038 C 
ATOM     16  C   UNL     1       5.292   6.609  -3.799  0.00  0.00    +0.008 C 
ATOM     17  C   UNL     1       4.422   7.197  -5.009  0.00  0.00    +0.019 C 
ATOM     18  C   UNL     1       3.493   6.083  -5.694  0.00  0.00    +0.092 C 
ATOM     19  N   UNL     1       2.955   5.476  -4.360  0.00  0.00    -0.271 NA
ATOM     20  C   UNL     1       3.883   4.508  -3.992  0.00  0.00    +0.072 C 
ATOM     21  C   UNL     1       5.230   5.027  -4.150  0.00  0.00    +0.018 C 
ATOM     22  C   UNL     1       2.776   6.596  -3.539  0.00  0.00    +0.076 C 
BRANCH  15  24
ATOM     23  C   UNL     1       3.781   8.732  -1.784  0.00  0.00    -0.005 C 
ATOM     24  C   UNL     1       4.120   8.128  -2.433  0.00  0.00    -0.025 C 
ENDBRANCH  15  24
ENDBRANCH   1  18
TORSDOF 4
ENDMDL
MODEL 2
REMARK VINA RESULT:      -8.0      2.216      5.277
REMARK  Name = 
REMARK  4 active torsions:
REMARK  status: ('A' for Active; 'I' for Inactive)
REMARK    1  A    between atoms: C_2  and  C_3
REMARK    2  A    between atoms: C_10  and  C_11
REMARK    3  A    between atoms: C_11  and  C_13
REMARK    4  A    between atoms: C_20  and  O_21
REMARK                            x       y       z     vdW  Elec       q    Type
REMARK                         _______ _______ _______ _____ _____    ______ ____
ROOT
ATOM      1  C   UNL     1       1.622   4.750  -6.556  0.00  0.00    +0.189 C 
ATOM      2  O   UNL     1       2.258   3.411  -6.262  0.00  0.00    -0.217 OA
ENDROOT
BRANCH   1   3
ATOM      3  C   UNL     1       2.056   5.409  -5.150  0.00  0.00    +0.012 A 
ATOM      4  C   UNL     1       0.923   5.392  -4.327  0.00  0.00    +0.019 A 
ATOM      5  C   UNL     1       1.049   5.347  -2.943  0.00  0.00    +0.081 A 
ATOM      6  C   UNL     1      -0.074   5.424  -2.129  0.00  0.00    +0.022 A 
ATOM      7  C   UNL     1      -1.328   5.575  -2.706  0.00  0.00    +0.038 A 
ATOM      8  C   UNL     1      -1.475   5.796  -4.070  0.00  0.00    +0.139 A 
ATOM      9  N   UNL     1       2.282   5.443  -2.424  0.00  0.00    -0.244 NA
ATOM     10  C   UNL     1       3.321   4.976  -3.122  0.00  0.00    +0.099 A 
ATOM     11  C   UNL     1      -0.353   5.466  -4.818  0.00  0.00    +0.038 A 
ATOM     12  C   UNL     1       3.183   5.003  -4.520  0.00  0.00    +0.019 A 
BRANCH   8  13
ATOM     13  O   UNL     1      -2.262   6.847  -4.557  0.00  0.00    -0.471 OA
ATOM     14  C   UNL     1      -1.951   8.187  -4.570  0.00  0.00    +0.252 C 
ENDBRANCH   8  13
ENDBRANCH   1   3
BRANCH   1  18
ATOM     15  C   UNL     1       1.257   6.146 -10.095  0.00  0.00    +0.038 C 
ATOM     16  C   UNL     1       2.808   5.430 -10.141  0.00  0.00    +0.008 C 
ATOM     17  C   UNL     1       2.731   4.545  -8.808  0.00  0.00    +0.019 C 
ATOM     18  C   UNL     1       2.936   5.418  -7.479  0.00  0.00    +0.092 C 
ATOM     19  N   UNL     1       1.973   6.575  -7.893  0.00  0.00    -0.271 NA
ATOM     20  C   UNL     1       2.755   7.463  -8.625  0.00  0.00    +0.072 C 
ATOM     21  C   UNL     1       3.583   6.734  -9.568  0.00  0.00    +0.018 C 
ATOM     22  C   UNL     1       0.918   5.912  -8.530  0.00  0.00    +0.076 C 
BRANCH  15  24
ATOM     23  C   UNL     1      -0.170   4.536 -11.051  0.00  0.00    -0.005 C 
ATOM     24  C   UNL     1       0.580   4.764 -10.517  0.00  0.00    -0.025 C 
ENDBRANCH  15  24
ENDBRANCH   1  18
TORSDOF 4
ENDMDL
MODEL 3
REMARK VINA RESULT:      -8.0      1.537      2.209
REMARK  Name = 
REMARK  4 active torsions:
REMARK  status: ('A' for Active; 'I' for Inactive)
REMARK    1  A    between atoms: C_2  and  C_3
REMARK    2  A    between atoms: C_10  and  C_11
REMARK    3  A    between atoms: C_11  and  C_13
REMARK    4  A    between atoms: C_20  and  O_21
REMARK                            x       y       z     vdW  Elec       q    Type
REMARK                         _______ _______ _______ _____ _____    ______ ____
ROOT
ATOM      1  C   UNL     1       2.842   6.894  -4.296  0.00  0.00    +0.189 C 
ATOM      2  O   UNL     1       3.960   7.538  -5.083  0.00  0.00    -0.217 OA
ENDROOT
BRANCH   1   3
ATOM      3  C   UNL     1       2.539   5.764  -5.406  0.00  0.00    +0.012 A 
ATOM      4  C   UNL     1       1.168   5.823  -5.682  0.00  0.00    +0.019 A 
ATOM      5  C   UNL     1       0.673   5.427  -6.920  0.00  0.00    +0.081 A 
ATOM      6  C   UNL     1      -0.696   5.401  -7.158  0.00  0.00    +0.022 A 
ATOM      7  C   UNL     1      -1.573   5.747  -6.138  0.00  0.00    +0.038 A 
ATOM      8  C   UNL     1      -1.124   5.981  -4.844  0.00  0.00    +0.139 A 
ATOM      9  N   UNL     1       1.533   4.875  -7.789  0.00  0.00    -0.244 NA
ATOM     10  C   UNL     1       2.815   5.249  -7.764  0.00  0.00    +0.099 A 
ATOM     11  C   UNL     1       0.240   6.222  -4.757  0.00  0.00    +0.038 A 
ATOM     12  C   UNL     1       3.307   5.669  -6.516  0.00  0.00    +0.019 A 
BRANCH   8  13
ATOM     13  O   UNL     1      -1.719   5.352  -3.743  0.00  0.00    -0.471 OA
ATOM     14  C   UNL     1      -3.059   5.291  -3.438  0.00  0.00    +0.252 C 
ENDBRANCH   8  13
ENDBRANCH   1   3
BRANCH   1  18
ATOM     15  C   UNL     1       3.210   7.356  -0.521  0.00  0.00    +0.038 C 
ATOM     16  C   UNL     1       4.775   6.848  -0.983  0.00  0.00    +0.008 C 
ATOM     17  C   UNL     1       4.665   7.059  -2.566  0.00  0.00    +0.019 C 
ATOM     18  C   UNL     1       3.838   5.888  -3.285  0.00  0.00    +0.092 C 
ATOM     19  N   UNL     1       2.662   5.865  -2.258  0.00  0.00    -0.271 NA
ATOM     20  C   UNL     1       3.066   4.993  -1.252  0.00  0.00    +0.072 C 
ATOM     21  C   UNL     1       4.444   5.263  -0.886  0.00  0.00    +0.018 C 
ATOM     22  C   UNL     1       2.468   7.217  -1.951  0.00  0.00    +0.076 C 
BRANCH  15  24
ATOM     23  C   UNL     1       3.342   9.703  -0.400  0.00  0.00    -0.005 C 
ATOM     24  C   UNL     1       3.597   8.879  -0.795  0.00  0.00    -0.025 C 
ENDBRANCH  15  24
ENDBRANCH   1  18
TORSDOF 4
ENDMDL
MODEL 4
REMARK VINA RESULT:      -7.9      2.145      3.904
REMARK  Name = 
REMARK  4 active torsions:
REMARK  status: ('A' for Active; 'I' for Inactive)
REMARK    1  A    between atoms: C_2  and  C_3
REMARK    2  A    between atoms: C_10  and  C_11
REMARK    3  A    between atoms: C_11  and  C_13
REMARK    4  A    between atoms: C_20  and  O_21
REMARK                            x       y       z     vdW  Elec       q    Type
REMARK                         _______ _______ _______ _____ _____    ______ ____
ROOT
ATOM      1  C   UNL     1       0.396   6.743  -4.722  0.00  0.00    +0.189 C 
ATOM      2  O   UNL     1      -0.648   7.671  -5.298  0.00  0.00    -0.217 OA
ENDROOT
BRANCH   1   3
ATOM      3  C   UNL     1      -0.678   5.714  -4.099  0.00  0.00    +0.012 A 
ATOM      4  C   UNL     1      -0.700   5.937  -2.717  0.00  0.00    +0.019 A 
ATOM      5  C   UNL     1      -1.841   5.664  -1.970  0.00  0.00    +0.081 A 
ATOM      6  C   UNL     1      -1.829   5.799  -0.588  0.00  0.00    +0.022 A 
ATOM      7  C   UNL     1      -0.658   6.185   0.051  0.00  0.00    +0.038 A 
ATOM      8  C   UNL     1       0.541   6.299  -0.641  0.00  0.00    +0.139 A 
ATOM      9  N   UNL     1      -2.869   5.069  -2.594  0.00  0.00    -0.244 NA
ATOM     10  C   UNL     1      -3.063   5.299  -3.896  0.00  0.00    +0.099 A 
ATOM     11  C   UNL     1       0.390   6.385  -2.019  0.00  0.00    +0.038 A 
ATOM     12  C   UNL     1      -1.911   5.595  -4.644  0.00  0.00    +0.019 A 
BRANCH   8  13
ATOM     13  O   UNL     1       1.710   5.681  -0.180  0.00  0.00    -0.471 OA
ATOM     14  C   UNL     1       2.704   5.103  -0.934  0.00  0.00    +0.252 C 
ENDBRANCH   8  13
ENDBRANCH   1   3
BRANCH   1  18
ATOM     15  C   UNL     1       3.822   5.358  -5.696  0.00  0.00    +0.038 C 
ATOM     16  C   UNL     1       3.153   5.783  -7.211  0.00  0.00    +0.008 C 
ATOM     17  C   UNL     1       1.935   6.696  -6.715  0.00  0.00    +0.019 C 
ATOM     18  C   UNL     1       0.700   5.830  -6.170  0.00  0.00    +0.092 C 
ATOM     19  N   UNL     1       1.556   4.855  -5.300  0.00  0.00    -0.271 NA
ATOM     20  C   UNL     1       1.929   3.826  -6.158  0.00  0.00    +0.072 C 
ATOM     21  C   UNL     1       2.379   4.373  -7.424  0.00  0.00    +0.018 C 
ATOM     22  C   UNL     1       2.545   5.683  -4.757  0.00  0.00    +0.076 C 
BRANCH  15  24
ATOM     23  C   UNL     1       4.865   7.273  -4.812  0.00  0.00    -0.005 C 
ATOM     24  C   UNL     1       4.413   6.828  -5.517  0.00  0.00    -0.025 C 
ENDBRANCH  15  24
ENDBRANCH   1  18
TORSDOF 4
ENDMDL
MODEL 5
REMARK VINA RESULT:      -7.6      3.416      6.129
REMARK  Name = 
REMARK  4 active torsions:
REMARK  status: ('A' for Active; 'I' for Inactive)
REMARK    1  A    between atoms: C_2  and  C_3
REMARK    2  A    between atoms: C_10  and  C_11
REMARK    3  A    between atoms: C_11  and  C_13
REMARK    4  A    between atoms: C_20  and  O_21
REMARK                            x       y       z     vdW  Elec       q    Type
REMARK                         _______ _______ _______ _____ _____    ______ ____
ROOT
ATOM      1  C   UNL     1       2.398   4.961  -8.410  0.00  0.00    +0.189 C 
ATOM      2  O   UNL     1       2.202   3.497  -8.728  0.00  0.00    -0.217 OA
ENDROOT
BRANCH   1   3
ATOM      3  C   UNL     1       1.632   5.482  -9.730  0.00  0.00    +0.012 A 
ATOM      4  C   UNL     1       2.604   5.648 -10.725  0.00  0.00    +0.019 A 
ATOM      5  C   UNL     1       2.272   5.534 -12.070  0.00  0.00    +0.081 A 
ATOM      6  C   UNL     1       3.217   5.790 -13.055  0.00  0.00    +0.022 A 
ATOM      7  C   UNL     1       4.496   6.190 -12.688  0.00  0.00    +0.038 A 
ATOM      8  C   UNL     1       4.812   6.479 -11.366  0.00  0.00    +0.139 A 
ATOM      9  N   UNL     1       0.976   5.383 -12.384  0.00  0.00    -0.244 NA
ATOM     10  C   UNL     1       0.167   4.755 -11.526  0.00  0.00    +0.099 A 
ATOM     11  C   UNL     1       3.905   5.972 -10.446  0.00  0.00    +0.038 A 
ATOM     12  C   UNL     1       0.516   4.854 -10.168  0.00  0.00    +0.019 A 
BRANCH   8  13
ATOM     13  O   UNL     1       5.454   7.673 -11.016  0.00  0.00    -0.471 OA
ATOM     14  C   UNL     1       6.782   7.990 -11.187  0.00  0.00    +0.252 C 
ENDBRANCH   8  13
ENDBRANCH   1   3
BRANCH   1  18
ATOM     15  C   UNL     1       2.690   6.044  -4.757  0.00  0.00    +0.038 C 
ATOM     16  C   UNL     1       1.405   4.918  -4.705  0.00  0.00    +0.008 C 
ATOM     17  C   UNL     1       1.600   4.229  -6.137  0.00  0.00    +0.019 C 
ATOM     18  C   UNL     1       1.042   5.136  -7.336  0.00  0.00    +0.092 C 
ATOM     19  N   UNL     1       1.685   6.471  -6.843  0.00  0.00    -0.271 NA
ATOM     20  C   UNL     1       0.760   7.024  -5.963  0.00  0.00    +0.072 C 
ATOM     21  C   UNL     1       0.253   6.001  -5.067  0.00  0.00    +0.018 C 
ATOM     22  C   UNL     1       2.935   6.073  -6.356  0.00  0.00    +0.076 C 
BRANCH  15  24
ATOM     23  C   UNL     1       4.672   4.858  -4.307  0.00  0.00    -0.005 C 
ATOM     24  C   UNL     1       3.755   4.876  -4.547  0.00  0.00    -0.025 C 
ENDBRANCH  15  24
ENDBRANCH   1  18
TORSDOF 4
ENDMDL
MODEL 6
REMARK VINA RESULT:      -7.5      2.039      5.652
REMARK  Name = 
REMARK  4 active torsions:
REMARK  status: ('A' for Active; 'I' for Inactive)
REMARK    1  A    between atoms: C_2  and  C_3
REMARK    2  A    between atoms: C_10  and  C_11
REMARK    3  A    between atoms: C_11  and  C_13
REMARK    4  A    between atoms: C_20  and  O_21
REMARK                            x       y       z     vdW  Elec       q    Type
REMARK                         _______ _______ _______ _____ _____    ______ ____
ROOT
ATOM      1  C   UNL     1       0.731   5.629  -4.581  0.00  0.00    +0.189 C 
ATOM      2  O   UNL     1       0.719   4.282  -5.264  0.00  0.00    -0.217 OA
ENDROOT
BRANCH   1   3
ATOM      3  C   UNL     1       1.800   6.278  -5.599  0.00  0.00    +0.012 A 
ATOM      4  C   UNL     1       2.946   6.574  -4.850  0.00  0.00    +0.019 A 
ATOM      5  C   UNL     1       4.200   6.604  -5.449  0.00  0.00    +0.081 A 
ATOM      6  C   UNL     1       5.320   6.988  -4.724  0.00  0.00    +0.022 A 
ATOM      7  C   UNL     1       5.177   7.370  -3.396  0.00  0.00    +0.038 A 
ATOM      8  C   UNL     1       3.923   7.517  -2.816  0.00  0.00    +0.139 A 
ATOM      9  N   UNL     1       4.259   6.463  -6.782  0.00  0.00    -0.244 NA
ATOM     10  C   UNL     1       3.332   5.726  -7.401  0.00  0.00    +0.099 A 
ATOM     11  C   UNL     1       2.901   6.892  -3.519  0.00  0.00    +0.038 A 
ATOM     12  C   UNL     1       2.071   5.681  -6.782  0.00  0.00    +0.019 A 
BRANCH   8  13
ATOM     13  O   UNL     1       3.577   8.677  -2.113  0.00  0.00    -0.471 OA
ATOM     14  C   UNL     1       3.578   8.860  -0.750  0.00  0.00    +0.252 C 
ENDBRANCH   8  13
ENDBRANCH   1   3
BRANCH   1  18
ATOM     15  C   UNL     1      -2.247   7.131  -2.715  0.00  0.00    +0.038 C 
ATOM     16  C   UNL     1      -2.996   6.370  -4.050  0.00  0.00    +0.008 C 
ATOM     17  C   UNL     1      -1.781   5.452  -4.547  0.00  0.00    +0.019 C 
ATOM     18  C   UNL     1      -0.679   6.283  -5.363  0.00  0.00    +0.092 C 
ATOM     19  N   UNL     1      -0.602   7.479  -4.362  0.00  0.00    -0.271 NA
ATOM     20  C   UNL     1      -1.598   8.363  -4.765  0.00  0.00    +0.072 C 
ATOM     21  C   UNL     1      -2.821   7.635  -5.050  0.00  0.00    +0.018 C 
ATOM     22  C   UNL     1      -0.701   6.865  -3.109  0.00  0.00    +0.076 C 
BRANCH  15  24
ATOM     23  C   UNL     1      -2.010   5.520  -1.015  0.00  0.00    -0.005 C 
ATOM     24  C   UNL     1      -2.333   5.782  -1.868  0.00  0.00    -0.025 C 
ENDBRANCH  15  24
ENDBRANCH   1  18
TORSDOF 4
ENDMDL
MODEL 7
REMARK VINA RESULT:      -7.3      2.052      4.449
REMARK  Name = 
REMARK  4 active torsions:
REMARK  status: ('A' for Active; 'I' for Inactive)
REMARK    1  A    between atoms: C_2  and  C_3
REMARK    2  A    between atoms: C_10  and  C_11
REMARK    3  A    between atoms: C_11  and  C_13
REMARK    4  A    between atoms: C_20  and  O_21
REMARK                            x       y       z     vdW  Elec       q    Type
REMARK                         _______ _______ _______ _____ _____    ______ ____
ROOT
ATOM      1  C   UNL     1       1.874   5.246  -4.804  0.00  0.00    +0.189 C 
ATOM      2  O   UNL     1       0.552   4.980  -4.123  0.00  0.00    -0.217 OA
ENDROOT
BRANCH   1   3
ATOM      3  C   UNL     1       1.208   5.814  -6.158  0.00  0.00    +0.012 A 
ATOM      4  C   UNL     1       1.948   5.291  -7.225  0.00  0.00    +0.019 A 
ATOM      5  C   UNL     1       1.363   5.102  -8.473  0.00  0.00    +0.081 A 
ATOM      6  C   UNL     1       2.124   4.670  -9.552  0.00  0.00    +0.022 A 
ATOM      7  C   UNL     1       3.486   4.454  -9.384  0.00  0.00    +0.038 A 
ATOM      8  C   UNL     1       4.134   4.796  -8.204  0.00  0.00    +0.139 A 
ATOM      9  N   UNL     1       0.110   5.548  -8.650  0.00  0.00    -0.244 NA
ATOM     10  C   UNL     1      -0.727   5.573  -7.608  0.00  0.00    +0.099 A 
ATOM     11  C   UNL     1       3.278   4.983  -7.126  0.00  0.00    +0.038 A 
ATOM     12  C   UNL     1      -0.130   5.743  -6.347  0.00  0.00    +0.019 A 
BRANCH   8  13
ATOM     13  O   UNL     1       5.304   5.564  -8.212  0.00  0.00    -0.471 OA
ATOM     14  C   UNL     1       6.249   5.637  -9.209  0.00  0.00    +0.252 C 
ENDBRANCH   8  13
ENDBRANCH   1   3
BRANCH   1  18
ATOM     15  C   UNL     1       4.429   5.859  -2.029  0.00  0.00    +0.038 C 
ATOM     16  C   UNL     1       3.176   6.949  -1.622  0.00  0.00    +0.008 C 
ATOM     17  C   UNL     1       2.009   6.370  -2.554  0.00  0.00    +0.019 C 
ATOM     18  C   UNL     1       2.179   6.802  -4.089  0.00  0.00    +0.092 C 
ATOM     19  N   UNL     1       3.704   6.475  -4.183  0.00  0.00    -0.271 NA
ATOM     20  C   UNL     1       4.356   7.629  -3.762  0.00  0.00    +0.072 C 
ATOM     21  C   UNL     1       3.721   8.150  -2.565  0.00  0.00    +0.018 C 
ATOM     22  C   UNL     1       3.835   5.304  -3.428  0.00  0.00    +0.076 C 
BRANCH  15  24
ATOM     23  C   UNL     1       3.986   3.824  -0.933  0.00  0.00    -0.005 C 
ATOM     24  C   UNL     1       3.725   4.699  -1.192  0.00  0.00    -0.025 C 
ENDBRANCH  15  24
ENDBRANCH   1  18
TORSDOF 4
ENDMDL
MODEL 8
REMARK VINA RESULT:      -7.3      2.274      4.639
REMARK  Name = 
REMARK  4 active torsions:
REMARK  status: ('A' for Active; 'I' for Inactive)
REMARK    1  A    between atoms: C_2  and  C_3
REMARK    2  A    between atoms: C_10  and  C_11
REMARK    3  A    between atoms: C_11  and  C_13
REMARK    4  A    between atoms: C_20  and  O_21
REMARK                            x       y       z     vdW  Elec       q    Type
REMARK                         _______ _______ _______ _____ _____    ______ ____
ROOT
ATOM      1  C   UNL     1      -0.089   6.221  -5.162  0.00  0.00    +0.189 C 
ATOM      2  O   UNL     1      -1.278   6.585  -6.019  0.00  0.00    -0.217 OA
ENDROOT
BRANCH   1   3
ATOM      3  C   UNL     1      -0.965   5.447  -4.052  0.00  0.00    +0.012 A 
ATOM      4  C   UNL     1      -0.455   5.816  -2.801  0.00  0.00    +0.019 A 
ATOM      5  C   UNL     1      -1.265   5.807  -1.671  0.00  0.00    +0.081 A 
ATOM      6  C   UNL     1      -0.734   6.086  -0.418  0.00  0.00    +0.022 A 
ATOM      7  C   UNL     1       0.625   6.347  -0.295  0.00  0.00    +0.038 A 
ATOM      8  C   UNL     1       1.492   6.197  -1.371  0.00  0.00    +0.139 A 
ATOM      9  N   UNL     1      -2.508   5.319  -1.797  0.00  0.00    -0.244 NA
ATOM     10  C   UNL     1      -3.139   5.436  -2.969  0.00  0.00    +0.099 A 
ATOM     11  C   UNL     1       0.856   6.158  -2.605  0.00  0.00    +0.038 A 
ATOM     12  C   UNL     1      -2.317   5.466  -4.108  0.00  0.00    +0.019 A 
BRANCH   8  13
ATOM     13  O   UNL     1       2.674   5.455  -1.254  0.00  0.00    -0.471 OA
ATOM     14  C   UNL     1       3.537   5.094  -2.263  0.00  0.00    +0.252 C 
ENDBRANCH   8  13
ENDBRANCH   1   3
BRANCH   1  18
ATOM     15  C   UNL     1       3.019   6.013  -7.376  0.00  0.00    +0.038 C 
ATOM     16  C   UNL     1       1.901   5.035  -8.220  0.00  0.00    +0.008 C 
ATOM     17  C   UNL     1       0.551   5.479  -7.482  0.00  0.00    +0.019 C 
ATOM     18  C   UNL     1       0.387   4.798  -6.039  0.00  0.00    +0.092 C 
ATOM     19  N   UNL     1       1.849   5.069  -5.564  0.00  0.00    -0.271 NA
ATOM     20  C   UNL     1       2.594   3.985  -6.017  0.00  0.00    +0.072 C 
ATOM     21  C   UNL     1       2.242   3.683  -7.392  0.00  0.00    +0.018 C 
ATOM     22  C   UNL     1       2.127   6.345  -6.068  0.00  0.00    +0.076 C 
BRANCH  15  24
ATOM     23  C   UNL     1       2.180   8.159  -7.858  0.00  0.00    -0.005 C 
ATOM     24  C   UNL     1       2.500   7.312  -8.142  0.00  0.00    -0.025 C 
ENDBRANCH  15  24
ENDBRANCH   1  18
TORSDOF 4
ENDMDL
MODEL 9
REMARK VINA RESULT:      -7.2      1.863      4.101
REMARK  Name = 
REMARK  4 active torsions:
REMARK  status: ('A' for Active; 'I' for Inactive)
REMARK    1  A    between atoms: C_2  and  C_3
REMARK    2  A    between atoms: C_10  and  C_11
REMARK    3  A    between atoms: C_11  and  C_13
REMARK    4  A    between atoms: C_20  and  O_21
REMARK                            x       y       z     vdW  Elec       q    Type
REMARK                         _______ _______ _______ _____ _____    ______ ____
ROOT
ATOM      1  C   UNL     1       0.646   5.363  -2.576  0.00  0.00    +0.189 C 
ATOM      2  O   UNL     1       0.112   4.911  -1.237  0.00  0.00    -0.217 OA
ENDROOT
BRANCH   1   3
ATOM      3  C   UNL     1      -0.744   6.031  -3.048  0.00  0.00    +0.012 A 
ATOM      4  C   UNL     1      -0.904   5.721  -4.404  0.00  0.00    +0.019 A 
ATOM      5  C   UNL     1      -2.171   5.636  -4.971  0.00  0.00    +0.081 A 
ATOM      6  C   UNL     1      -2.322   5.419  -6.334  0.00  0.00    +0.022 A 
ATOM      7  C   UNL     1      -1.195   5.315  -7.139  0.00  0.00    +0.038 A 
ATOM      8  C   UNL     1       0.077   5.565  -6.639  0.00  0.00    +0.139 A 
ATOM      9  N   UNL     1      -3.221   5.978  -4.208  0.00  0.00    -0.244 NA
ATOM     10  C   UNL     1      -3.156   5.790  -2.887  0.00  0.00    +0.099 A 
ATOM     11  C   UNL     1       0.154   5.532  -5.253  0.00  0.00    +0.038 A 
ATOM     12  C   UNL     1      -1.871   5.856  -2.321  0.00  0.00    +0.019 A 
BRANCH   8  13
ATOM     13  O   UNL     1       0.957   6.438  -7.292  0.00  0.00    -0.471 OA
ATOM     14  C   UNL     1       2.025   7.111  -6.746  0.00  0.00    +0.252 C 
ENDBRANCH   8  13
ENDBRANCH   1   3
BRANCH   1  18
ATOM     15  C   UNL     1       4.383   5.769  -1.888  0.00  0.00    +0.038 C 
ATOM     16  C   UNL     1       3.678   6.760  -0.687  0.00  0.00    +0.008 C 
ATOM     17  C   UNL     1       2.165   6.241  -0.770  0.00  0.00    +0.019 C 
ATOM     18  C   UNL     1       1.380   6.842  -2.033  0.00  0.00    +0.092 C 
ATOM     19  N   UNL     1       2.518   6.585  -3.071  0.00  0.00    -0.271 NA
ATOM     20  C   UNL     1       3.333   7.711  -3.013  0.00  0.00    +0.072 C 
ATOM     21  C   UNL     1       3.578   8.076  -1.629  0.00  0.00    +0.018 C 
ATOM     22  C   UNL     1       3.040   5.346  -2.685  0.00  0.00    +0.076 C 
BRANCH  15  24
ATOM     23  C   UNL     1       4.462   3.572  -1.046  0.00  0.00    -0.005 C 
ATOM     24  C   UNL     1       4.294   4.499  -0.927  0.00  0.00    -0.025 C 
ENDBRANCH  15  24
ENDBRANCH   1  18
TORSDOF 4
ENDMDL
