MODEL 1
REMARK VINA RESULT:      -4.2      0.000      0.000
REMARK  Name = 
REMARK  1 active torsions:
REMARK  status: ('A' for Active; 'I' for Inactive)
REMARK    1  A    between atoms: C_4  and  P_5
REMARK                            x       y       z     vdW  Elec       q    Type
REMARK                         _______ _______ _______ _____ _____    ______ ____
ROOT
ATOM      1  C   UNL     1       7.303   5.855 -10.389  0.00  0.00    +0.035 C 
ATOM      2  C   UNL     1       7.019   7.418 -10.852  0.00  0.00    +0.150 C 
ATOM      3  C   UNL     1       6.689   7.294 -12.498  0.00  0.00    +0.193 C 
ATOM      4  O   UNL     1       5.477   7.172 -11.386  0.00  0.00    -0.346 OA
ENDROOT
BRANCH   3   5
ATOM      5  P   UNL     1       6.840   5.482 -13.080  0.00  0.00    +0.146 P 
ATOM      6  O   UNL     1       6.898   5.774 -14.765  0.00  0.00    -0.356 OA
ATOM      7  O   UNL     1       5.291   4.874 -12.723  0.00  0.00    -0.356 OA
ATOM      8  O   UNL     1       7.910   4.671 -12.736  0.00  0.00    -0.458 OA
ENDBRANCH   3   5
TORSDOF 1
ENDMDL
MODEL 2
REMARK VINA RESULT:      -4.1      1.569      2.192
REMARK  Name = 
REMARK  1 active torsions:
REMARK  status: ('A' for Active; 'I' for Inactive)
REMARK    1  A    between atoms: C_4  and  P_5
REMARK                            x       y       z     vdW  Elec       q    Type
REMARK                         _______ _______ _______ _____ _____    ______ ____
ROOT
ATOM      1  C   UNL     1       5.673   5.877  -9.806  0.00  0.00    +0.035 C 
ATOM      2  C   UNL     1       7.279   5.665  -9.468  0.00  0.00    +0.150 C 
ATOM      3  C   UNL     1       7.989   5.499 -10.986  0.00  0.00    +0.193 C 
ATOM      4  O   UNL     1       7.815   6.988 -10.297  0.00  0.00    -0.346 OA
ENDROOT
BRANCH   3   5
ATOM      5  P   UNL     1       6.664   5.571 -12.360  0.00  0.00    +0.146 P 
ATOM      6  O   UNL     1       7.600   4.910 -13.630  0.00  0.00    -0.356 OA
ATOM      7  O   UNL     1       6.543   7.246 -12.636  0.00  0.00    -0.356 OA
ATOM      8  O   UNL     1       5.468   4.876 -12.285  0.00  0.00    -0.458 OA
ENDBRANCH   3   5
TORSDOF 1
ENDMDL
MODEL 3
REMARK VINA RESULT:      -4.1     11.632     12.630
REMARK  Name = 
REMARK  1 active torsions:
REMARK  status: ('A' for Active; 'I' for Inactive)
REMARK    1  A    between atoms: C_4  and  P_5
REMARK                            x       y       z     vdW  Elec       q    Type
REMARK                         _______ _______ _______ _____ _____    ______ ____
ROOT
ATOM      1  C   UNL     1      -2.387   5.750  -5.453  0.00  0.00    +0.035 C 
ATOM      2  C   UNL     1      -2.463   7.361  -5.083  0.00  0.00    +0.150 C 
ATOM      3  C   UNL     1      -2.173   7.405  -3.425  0.00  0.00    +0.193 C 
ATOM      4  O   UNL     1      -0.924   7.486  -4.499  0.00  0.00    -0.346 OA
ENDROOT
BRANCH   3   5
ATOM      5  P   UNL     1      -1.952   5.639  -2.733  0.00  0.00    +0.146 P 
ATOM      6  O   UNL     1      -1.926   6.034  -1.069  0.00  0.00    -0.356 OA
ATOM      7  O   UNL     1      -0.353   5.284  -3.197  0.00  0.00    -0.356 OA
ATOM      8  O   UNL     1      -2.884   4.633  -2.934  0.00  0.00    -0.458 OA
ENDBRANCH   3   5
TORSDOF 1
ENDMDL
MODEL 4
REMARK VINA RESULT:      -4.1     11.289     12.204
REMARK  Name = 
REMARK  1 active torsions:
REMARK  status: ('A' for Active; 'I' for Inactive)
REMARK    1  A    between atoms: C_4  and  P_5
REMARK                            x       y       z     vdW  Elec       q    Type
REMARK                         _______ _______ _______ _____ _____    ______ ____
ROOT
ATOM      1  C   UNL     1      -2.236   7.295  -2.325  0.00  0.00    +0.035 C 
ATOM      2  C   UNL     1      -3.438   6.211  -2.672  0.00  0.00    +0.150 C 
ATOM      3  C   UNL     1      -2.853   5.382  -4.016  0.00  0.00    +0.193 C 
ATOM      4  O   UNL     1      -2.517   4.854  -2.489  0.00  0.00    -0.346 OA
ENDROOT
BRANCH   3   5
ATOM      5  P   UNL     1      -1.156   6.076  -4.549  0.00  0.00    +0.146 P 
ATOM      6  O   UNL     1      -1.032   5.276  -6.056  0.00  0.00    -0.356 OA
ATOM      7  O   UNL     1      -0.105   5.289  -3.467  0.00  0.00    -0.356 OA
ATOM      8  O   UNL     1      -0.929   7.429  -4.748  0.00  0.00    -0.458 OA
ENDBRANCH   3   5
TORSDOF 1
ENDMDL
MODEL 5
REMARK VINA RESULT:      -4.0      1.655      3.370
REMARK  Name = 
REMARK  1 active torsions:
REMARK  status: ('A' for Active; 'I' for Inactive)
REMARK    1  A    between atoms: C_4  and  P_5
REMARK                            x       y       z     vdW  Elec       q    Type
REMARK                         _______ _______ _______ _____ _____    ______ ____
ROOT
ATOM      1  C   UNL     1       7.006   6.822 -13.344  0.00  0.00    +0.035 C 
ATOM      2  C   UNL     1       8.327   6.000 -12.780  0.00  0.00    +0.150 C 
ATOM      3  C   UNL     1       7.869   5.518 -11.233  0.00  0.00    +0.193 C 
ATOM      4  O   UNL     1       7.558   4.560 -12.540  0.00  0.00    -0.346 OA
ENDROOT
BRANCH   3   5
ATOM      5  P   UNL     1       6.119   6.159 -10.819  0.00  0.00    +0.146 P 
ATOM      6  O   UNL     1       6.056   5.650  -9.187  0.00  0.00    -0.356 OA
ATOM      7  O   UNL     1       5.140   5.099 -11.721  0.00  0.00    -0.356 OA
ATOM      8  O   UNL     1       5.779   7.502 -10.876  0.00  0.00    -0.458 OA
ENDBRANCH   3   5
TORSDOF 1
ENDMDL
MODEL 6
REMARK VINA RESULT:      -4.0     11.191     12.283
REMARK  Name = 
REMARK  1 active torsions:
REMARK  status: ('A' for Active; 'I' for Inactive)
REMARK    1  A    between atoms: C_4  and  P_5
REMARK                            x       y       z     vdW  Elec       q    Type
REMARK                         _______ _______ _______ _____ _____    ______ ____
ROOT
ATOM      1  C   UNL     1      -2.017   7.658  -4.156  0.00  0.00    +0.035 C 
ATOM      2  C   UNL     1      -0.822   6.978  -5.078  0.00  0.00    +0.150 C 
ATOM      3  C   UNL     1      -0.228   5.736  -4.110  0.00  0.00    +0.193 C 
ATOM      4  O   UNL     1      -1.482   5.467  -5.146  0.00  0.00    -0.346 OA
ENDROOT
BRANCH   3   5
ATOM      5  P   UNL     1      -1.126   5.706  -2.425  0.00  0.00    +0.146 P 
ATOM      6  O   UNL     1      -0.055   4.657  -1.600  0.00  0.00    -0.356 OA
ATOM      7  O   UNL     1      -2.527   4.813  -2.797  0.00  0.00    -0.356 OA
ATOM      8  O   UNL     1      -1.312   6.843  -1.654  0.00  0.00    -0.458 OA
ENDBRANCH   3   5
TORSDOF 1
ENDMDL
MODEL 7
REMARK VINA RESULT:      -3.9     11.152     12.077
REMARK  Name = 
REMARK  1 active torsions:
REMARK  status: ('A' for Active; 'I' for Inactive)
REMARK    1  A    between atoms: C_4  and  P_5
REMARK                            x       y       z     vdW  Elec       q    Type
REMARK                         _______ _______ _______ _____ _____    ______ ____
ROOT
ATOM      1  C   UNL     1      -0.270   6.416  -5.530  0.00  0.00    +0.035 C 
ATOM      2  C   UNL     1      -1.712   5.911  -6.167  0.00  0.00    +0.150 C 
ATOM      3  C   UNL     1      -2.626   5.501  -4.813  0.00  0.00    +0.193 C 
ATOM      4  O   UNL     1      -2.650   7.039  -5.410  0.00  0.00    -0.346 OA
ENDROOT
BRANCH   3   5
ATOM      5  P   UNL     1      -1.607   5.740  -3.216  0.00  0.00    +0.146 P 
ATOM      6  O   UNL     1      -2.628   4.878  -2.148  0.00  0.00    -0.356 OA
ATOM      7  O   UNL     1      -1.833   7.399  -2.907  0.00  0.00    -0.356 OA
ATOM      8  O   UNL     1      -0.314   5.262  -3.073  0.00  0.00    -0.458 OA
ENDBRANCH   3   5
TORSDOF 1
ENDMDL
MODEL 8
REMARK VINA RESULT:      -3.8      1.358      2.528
REMARK  Name = 
REMARK  1 active torsions:
REMARK  status: ('A' for Active; 'I' for Inactive)
REMARK    1  A    between atoms: C_4  and  P_5
REMARK                            x       y       z     vdW  Elec       q    Type
REMARK                         _______ _______ _______ _____ _____    ______ ____
ROOT
ATOM      1  C   UNL     1       7.351   7.174 -10.644  0.00  0.00    +0.035 C 
ATOM      2  C   UNL     1       8.299   5.856 -10.965  0.00  0.00    +0.150 C 
ATOM      3  C   UNL     1       7.467   5.052 -12.188  0.00  0.00    +0.193 C 
ATOM      4  O   UNL     1       8.579   6.215 -12.551  0.00  0.00    -0.346 OA
ENDROOT
BRANCH   3   5
ATOM      5  P   UNL     1       5.837   5.957 -12.600  0.00  0.00    +0.146 P 
ATOM      6  O   UNL     1       5.098   4.715 -13.516  0.00  0.00    -0.356 OA
ATOM      7  O   UNL     1       6.369   7.147 -13.693  0.00  0.00    -0.356 OA
ATOM      8  O   UNL     1       4.945   6.377 -11.625  0.00  0.00    -0.458 OA
ENDBRANCH   3   5
TORSDOF 1
ENDMDL
MODEL 9
REMARK VINA RESULT:      -3.8      2.279      3.254
REMARK  Name = 
REMARK  1 active torsions:
REMARK  status: ('A' for Active; 'I' for Inactive)
REMARK    1  A    between atoms: C_4  and  P_5
REMARK                            x       y       z     vdW  Elec       q    Type
REMARK                         _______ _______ _______ _____ _____    ______ ____
ROOT
ATOM      1  C   UNL     1       8.785   5.867 -12.344  0.00  0.00    +0.035 C 
ATOM      2  C   UNL     1       7.487   5.437 -13.276  0.00  0.00    +0.150 C 
ATOM      3  C   UNL     1       6.171   5.641 -12.247  0.00  0.00    +0.193 C 
ATOM      4  O   UNL     1       6.708   6.889 -13.182  0.00  0.00    -0.346 OA
ENDROOT
BRANCH   3   5
ATOM      5  P   UNL     1       6.750   6.200 -10.515  0.00  0.00    +0.146 P 
ATOM      6  O   UNL     1       5.243   6.095  -9.712  0.00  0.00    -0.356 OA
ATOM      7  O   UNL     1       7.074   7.850 -10.776  0.00  0.00    -0.356 OA
ATOM      8  O   UNL     1       7.692   5.501  -9.778  0.00  0.00    -0.458 OA
ENDBRANCH   3   5
TORSDOF 1
ENDMDL
