MODEL 1
REMARK VINA RESULT:      -7.3      0.000      0.000
REMARK  Name = 
REMARK  0 active torsions:
REMARK  status: ('A' for Active; 'I' for Inactive)
REMARK                            x       y       z     vdW  Elec       q    Type
REMARK                         _______ _______ _______ _____ _____    ______ ____
ROOT
ATOM      1  N   UNL     1      -0.099   5.385  -8.920  0.00  0.00    -0.128 NA
ATOM      2  C   UNL     1       1.247   5.655  -8.514  0.00  0.00    +0.091 A 
ATOM      3  C   UNL     1       2.027   6.451  -9.344  0.00  0.00    +0.037 A 
ATOM      4  C   UNL     1       3.401   6.332  -9.405  0.00  0.00    +0.083 A 
ATOM      5  C   UNL     1       4.008   5.798  -8.277  0.00  0.00    +0.018 A 
ATOM      6  C   UNL     1       5.395   5.714  -8.325  0.00  0.00    +0.003 A 
ATOM      7  C   UNL     1       6.071   5.884  -9.528  0.00  0.00    +0.018 A 
ATOM      8  C   UNL     1       5.413   6.354 -10.657  0.00  0.00    +0.083 A 
ATOM      9  C   UNL     1       5.882   5.852 -11.866  0.00  0.00    +0.037 A 
ATOM     10  C   UNL     1       7.164   5.394 -11.993  0.00  0.00    +0.091 A 
ATOM     11  N   UNL     1       7.710   4.949 -13.220  0.00  0.00    -0.128 NA
ATOM     12  C   UNL     1       7.954   5.226 -10.868  0.00  0.00    +0.018 A 
ATOM     13  C   UNL     1       7.403   5.501  -9.624  0.00  0.00    +0.003 A 
ATOM     14  C   UNL     1       3.271   4.896  -7.521  0.00  0.00    +0.003 A 
ATOM     15  N   UNL     1       4.118   6.680 -10.498  0.00  0.00    -0.245 NA
ATOM     16  C   UNL     1       1.893   4.782  -7.661  0.00  0.00    +0.018 A 
ENDROOT
TORSDOF 0
ENDMDL
MODEL 2
REMARK VINA RESULT:      -7.2      3.960      8.179
REMARK  Name = 
REMARK  0 active torsions:
REMARK  status: ('A' for Active; 'I' for Inactive)
REMARK                            x       y       z     vdW  Elec       q    Type
REMARK                         _______ _______ _______ _____ _____    ______ ____
ROOT
ATOM      1  N   UNL     1       4.749   5.661  -7.256  0.00  0.00    -0.128 NA
ATOM      2  C   UNL     1       3.350   5.849  -7.494  0.00  0.00    +0.091 A 
ATOM      3  C   UNL     1       2.641   6.642  -6.602  0.00  0.00    +0.037 A 
ATOM      4  C   UNL     1       1.293   6.461  -6.360  0.00  0.00    +0.083 A 
ATOM      5  C   UNL     1       0.578   5.849  -7.381  0.00  0.00    +0.018 A 
ATOM      6  C   UNL     1      -0.785   5.702  -7.152  0.00  0.00    +0.003 A 
ATOM      7  C   UNL     1      -1.312   5.892  -5.879  0.00  0.00    +0.018 A 
ATOM      8  C   UNL     1      -0.543   6.441  -4.862  0.00  0.00    +0.083 A 
ATOM      9  C   UNL     1      -0.828   5.971  -3.586  0.00  0.00    +0.037 A 
ATOM     10  C   UNL     1      -2.058   5.458  -3.278  0.00  0.00    +0.091 A 
ATOM     11  N   UNL     1      -2.420   5.042  -1.975  0.00  0.00    -0.128 NA
ATOM     12  C   UNL     1      -2.974   5.204  -4.286  0.00  0.00    +0.018 A 
ATOM     13  C   UNL     1      -2.599   5.450  -5.599  0.00  0.00    +0.003 A 
ATOM     14  C   UNL     1       1.260   4.952  -8.191  0.00  0.00    +0.003 A 
ATOM     15  N   UNL     1       0.703   6.822  -5.198  0.00  0.00    -0.245 NA
ATOM     16  C   UNL     1       2.648   4.909  -8.224  0.00  0.00    +0.018 A 
ENDROOT
TORSDOF 0
ENDMDL
MODEL 3
REMARK VINA RESULT:      -7.0      4.276      6.873
REMARK  Name = 
REMARK  0 active torsions:
REMARK  status: ('A' for Active; 'I' for Inactive)
REMARK                            x       y       z     vdW  Elec       q    Type
REMARK                         _______ _______ _______ _____ _____    ______ ____
ROOT
ATOM      1  N   UNL     1      -1.387   7.230  -1.262  0.00  0.00    -0.128 NA
ATOM      2  C   UNL     1      -1.715   6.686  -2.545  0.00  0.00    +0.091 A 
ATOM      3  C   UNL     1      -0.877   5.712  -3.070  0.00  0.00    +0.037 A 
ATOM      4  C   UNL     1      -0.719   5.524  -4.429  0.00  0.00    +0.083 A 
ATOM      5  C   UNL     1      -1.777   5.951  -5.220  0.00  0.00    +0.018 A 
ATOM      6  C   UNL     1      -1.634   5.727  -6.584  0.00  0.00    +0.003 A 
ATOM      7  C   UNL     1      -0.399   5.373  -7.115  0.00  0.00    +0.018 A 
ATOM      8  C   UNL     1       0.660   5.021  -6.289  0.00  0.00    +0.083 A 
ATOM      9  C   UNL     1       1.920   5.367  -6.763  0.00  0.00    +0.037 A 
ATOM     10  C   UNL     1       2.154   5.529  -8.101  0.00  0.00    +0.091 A 
ATOM     11  N   UNL     1       3.435   5.802  -8.636  0.00  0.00    -0.128 NA
ATOM     12  C   UNL     1       1.093   5.558  -8.990  0.00  0.00    +0.018 A 
ATOM     13  C   UNL     1      -0.196   5.453  -8.487  0.00  0.00    +0.003 A 
ATOM     14  C   UNL     1      -2.535   7.017  -4.754  0.00  0.00    +0.003 A 
ATOM     15  N   UNL     1       0.400   4.992  -4.969  0.00  0.00    -0.245 NA
ATOM     16  C   UNL     1      -2.480   7.425  -3.426  0.00  0.00    +0.018 A 
ENDROOT
TORSDOF 0
ENDMDL
MODEL 4
REMARK VINA RESULT:      -7.0      2.952      5.763
REMARK  Name = 
REMARK  0 active torsions:
REMARK  status: ('A' for Active; 'I' for Inactive)
REMARK                            x       y       z     vdW  Elec       q    Type
REMARK                         _______ _______ _______ _____ _____    ______ ____
ROOT
ATOM      1  N   UNL     1       9.506   6.045 -12.335  0.00  0.00    -0.128 NA
ATOM      2  C   UNL     1       8.215   5.858 -11.744  0.00  0.00    +0.091 A 
ATOM      3  C   UNL     1       7.285   5.101 -12.444  0.00  0.00    +0.037 A 
ATOM      4  C   UNL     1       5.925   5.298 -12.319  0.00  0.00    +0.083 A 
ATOM      5  C   UNL     1       5.510   5.879 -11.128  0.00  0.00    +0.018 A 
ATOM      6  C   UNL     1       4.137   6.043 -10.987  0.00  0.00    +0.003 A 
ATOM      7  C   UNL     1       3.293   5.900 -12.082  0.00  0.00    +0.018 A 
ATOM      8  C   UNL     1       3.761   5.381 -13.282  0.00  0.00    +0.083 A 
ATOM      9  C   UNL     1       3.159   5.897 -14.424  0.00  0.00    +0.037 A 
ATOM     10  C   UNL     1       1.899   6.428 -14.382  0.00  0.00    +0.091 A 
ATOM     11  N   UNL     1       1.215   6.890 -15.531  0.00  0.00    -0.128 NA
ATOM     12  C   UNL     1       1.283   6.653 -13.163  0.00  0.00    +0.018 A 
ATOM     13  C   UNL     1       1.984   6.360 -12.002  0.00  0.00    +0.003 A 
ATOM     14  C   UNL     1       6.394   6.744 -10.497  0.00  0.00    +0.003 A 
ATOM     15  N   UNL     1       5.046   4.982 -13.296  0.00  0.00    -0.245 NA
ATOM     16  C   UNL     1       7.744   6.777 -10.827  0.00  0.00    +0.018 A 
ENDROOT
TORSDOF 0
ENDMDL
MODEL 5
REMARK VINA RESULT:      -6.9      1.534      5.360
REMARK  Name = 
REMARK  0 active torsions:
REMARK  status: ('A' for Active; 'I' for Inactive)
REMARK                            x       y       z     vdW  Elec       q    Type
REMARK                         _______ _______ _______ _____ _____    ______ ____
ROOT
ATOM      1  N   UNL     1       6.343   7.196 -13.835  0.00  0.00    -0.128 NA
ATOM      2  C   UNL     1       6.441   6.499 -12.588  0.00  0.00    +0.091 A 
ATOM      3  C   UNL     1       5.305   5.857 -12.113  0.00  0.00    +0.037 A 
ATOM      4  C   UNL     1       5.074   5.662 -10.766  0.00  0.00    +0.083 A 
ATOM      5  C   UNL     1       6.204   5.641  -9.960  0.00  0.00    +0.018 A 
ATOM      6  C   UNL     1       5.972   5.407  -8.610  0.00  0.00    +0.003 A 
ATOM      7  C   UNL     1       4.685   5.483  -8.090  0.00  0.00    +0.018 A 
ATOM      8  C   UNL     1       3.581   5.575  -8.927  0.00  0.00    +0.083 A 
ATOM      9  C   UNL     1       2.519   6.317  -8.425  0.00  0.00    +0.037 A 
ATOM     10  C   UNL     1       2.339   6.476  -7.078  0.00  0.00    +0.091 A 
ATOM     11  N   UNL     1       1.230   7.154  -6.518  0.00  0.00    -0.128 NA
ATOM     12  C   UNL     1       3.330   6.077  -6.196  0.00  0.00    +0.018 A 
ATOM     13  C   UNL     1       4.506   5.552  -6.714  0.00  0.00    +0.003 A 
ATOM     14  C   UNL     1       7.295   6.395 -10.370  0.00  0.00    +0.003 A 
ATOM     15  N   UNL     1       3.831   5.530 -10.248  0.00  0.00    -0.245 NA
ATOM     16  C   UNL     1       7.406   6.870 -11.671  0.00  0.00    +0.018 A 
ENDROOT
TORSDOF 0
ENDMDL
MODEL 6
REMARK VINA RESULT:      -6.9      1.928      5.442
REMARK  Name = 
REMARK  0 active torsions:
REMARK  status: ('A' for Active; 'I' for Inactive)
REMARK                            x       y       z     vdW  Elec       q    Type
REMARK                         _______ _______ _______ _____ _____    ______ ____
ROOT
ATOM      1  N   UNL     1       8.082   6.596 -11.122  0.00  0.00    -0.128 NA
ATOM      2  C   UNL     1       6.975   5.839 -10.622  0.00  0.00    +0.091 A 
ATOM      3  C   UNL     1       5.932   5.562 -11.495  0.00  0.00    +0.037 A 
ATOM      4  C   UNL     1       4.633   5.378 -11.063  0.00  0.00    +0.083 A 
ATOM      5  C   UNL     1       4.493   4.961  -9.746  0.00  0.00    +0.018 A 
ATOM      6  C   UNL     1       3.188   4.739  -9.324  0.00  0.00    +0.003 A 
ATOM      7  C   UNL     1       2.114   5.188 -10.084  0.00  0.00    +0.018 A 
ATOM      8  C   UNL     1       2.302   5.667 -11.374  0.00  0.00    +0.083 A 
ATOM      9  C   UNL     1       1.430   6.677 -11.762  0.00  0.00    +0.037 A 
ATOM     10  C   UNL     1       0.199   6.813 -11.183  0.00  0.00    +0.091 A 
ATOM     11  N   UNL     1      -0.753   7.774 -11.599  0.00  0.00    -0.128 NA
ATOM     12  C   UNL     1      -0.119   6.077 -10.053  0.00  0.00    +0.018 A 
ATOM     13  C   UNL     1       0.847   5.237  -9.517  0.00  0.00    +0.003 A 
ATOM     14  C   UNL     1       5.472   5.354  -8.843  0.00  0.00    +0.003 A 
ATOM     15  N   UNL     1       3.560   5.616 -11.850  0.00  0.00    -0.245 NA
ATOM     16  C   UNL     1       6.703   5.839  -9.268  0.00  0.00    +0.018 A 
ENDROOT
TORSDOF 0
ENDMDL
MODEL 7
REMARK VINA RESULT:      -6.9      3.263      4.970
REMARK  Name = 
REMARK  0 active torsions:
REMARK  status: ('A' for Active; 'I' for Inactive)
REMARK                            x       y       z     vdW  Elec       q    Type
REMARK                         _______ _______ _______ _____ _____    ______ ____
ROOT
ATOM      1  N   UNL     1       3.094   6.646  -1.965  0.00  0.00    -0.128 NA
ATOM      2  C   UNL     1       3.779   6.404  -3.199  0.00  0.00    +0.091 A 
ATOM      3  C   UNL     1       3.560   7.289  -4.247  0.00  0.00    +0.037 A 
ATOM      4  C   UNL     1       3.660   6.908  -5.570  0.00  0.00    +0.083 A 
ATOM      5  C   UNL     1       4.474   5.811  -5.819  0.00  0.00    +0.018 A 
ATOM      6  C   UNL     1       4.604   5.453  -7.155  0.00  0.00    +0.003 A 
ATOM      7  C   UNL     1       3.747   5.980  -8.115  0.00  0.00    +0.018 A 
ATOM      8  C   UNL     1       2.894   7.032  -7.809  0.00  0.00    +0.083 A 
ATOM      9  C   UNL     1       1.680   7.024  -8.487  0.00  0.00    +0.037 A 
ATOM     10  C   UNL     1       1.547   6.397  -9.695  0.00  0.00    +0.091 A 
ATOM     11  N   UNL     1       0.356   6.430 -10.458  0.00  0.00    -0.128 NA
ATOM     12  C   UNL     1       2.562   5.580 -10.166  0.00  0.00    +0.018 A 
ATOM     13  C   UNL     1       3.684   5.394  -9.372  0.00  0.00    +0.003 A 
ATOM     14  C   UNL     1       4.585   4.857  -4.816  0.00  0.00    +0.003 A 
ATOM     15  N   UNL     1       2.989   7.533  -6.564  0.00  0.00    -0.245 NA
ATOM     16  C   UNL     1       4.199   5.125  -3.508  0.00  0.00    +0.018 A 
ENDROOT
TORSDOF 0
ENDMDL
MODEL 8
REMARK VINA RESULT:      -6.8      1.405      5.712
REMARK  Name = 
REMARK  0 active torsions:
REMARK  status: ('A' for Active; 'I' for Inactive)
REMARK                            x       y       z     vdW  Elec       q    Type
REMARK                         _______ _______ _______ _____ _____    ______ ____
ROOT
ATOM      1  N   UNL     1       7.746   4.685 -12.418  0.00  0.00    -0.128 NA
ATOM      2  C   UNL     1       6.550   5.414 -12.126  0.00  0.00    +0.091 A 
ATOM      3  C   UNL     1       6.333   5.806 -10.812  0.00  0.00    +0.037 A 
ATOM      4  C   UNL     1       5.067   5.977 -10.289  0.00  0.00    +0.083 A 
ATOM      5  C   UNL     1       4.070   6.260 -11.212  0.00  0.00    +0.018 A 
ATOM      6  C   UNL     1       2.803   6.470 -10.681  0.00  0.00    +0.003 A 
ATOM      7  C   UNL     1       2.525   6.129  -9.362  0.00  0.00    +0.018 A 
ATOM      8  C   UNL     1       3.543   5.780  -8.485  0.00  0.00    +0.083 A 
ATOM      9  C   UNL     1       3.198   4.838  -7.523  0.00  0.00    +0.037 A 
ATOM     10  C   UNL     1       1.900   4.674  -7.125  0.00  0.00    +0.091 A 
ATOM     11  N   UNL     1       1.512   3.785  -6.095  0.00  0.00    -0.128 NA
ATOM     12  C   UNL     1       0.879   5.298  -7.822  0.00  0.00    +0.018 A 
ATOM     13  C   UNL     1       1.204   6.054  -8.939  0.00  0.00    +0.003 A 
ATOM     14  C   UNL     1       4.224   5.752 -12.495  0.00  0.00    +0.003 A 
ATOM     15  N   UNL     1       4.796   5.849  -8.970  0.00  0.00    -0.245 NA
ATOM     16  C   UNL     1       5.450   5.283 -12.951  0.00  0.00    +0.018 A 
ENDROOT
TORSDOF 0
ENDMDL
MODEL 9
REMARK VINA RESULT:      -6.7      3.915      5.689
REMARK  Name = 
REMARK  0 active torsions:
REMARK  status: ('A' for Active; 'I' for Inactive)
REMARK                            x       y       z     vdW  Elec       q    Type
REMARK                         _______ _______ _______ _____ _____    ______ ____
ROOT
ATOM      1  N   UNL     1      -2.539   4.832  -2.644  0.00  0.00    -0.128 NA
ATOM      2  C   UNL     1      -1.342   5.569  -2.915  0.00  0.00    +0.091 A 
ATOM      3  C   UNL     1      -1.122   5.990  -4.220  0.00  0.00    +0.037 A 
ATOM      4  C   UNL     1       0.147   6.174  -4.734  0.00  0.00    +0.083 A 
ATOM      5  C   UNL     1       1.140   6.437  -3.800  0.00  0.00    +0.018 A 
ATOM      6  C   UNL     1       2.409   6.659  -4.322  0.00  0.00    +0.003 A 
ATOM      7  C   UNL     1       2.692   6.348  -5.647  0.00  0.00    +0.018 A 
ATOM      8  C   UNL     1       1.677   6.019  -6.536  0.00  0.00    +0.083 A 
ATOM      9  C   UNL     1       2.026   5.098  -7.517  0.00  0.00    +0.037 A 
ATOM     10  C   UNL     1       3.326   4.944  -7.915  0.00  0.00    +0.091 A 
ATOM     11  N   UNL     1       3.719   4.079  -8.963  0.00  0.00    -0.128 NA
ATOM     12  C   UNL     1       4.344   5.553  -7.200  0.00  0.00    +0.018 A 
ATOM     13  C   UNL     1       4.014   6.283  -6.067  0.00  0.00    +0.003 A 
ATOM     14  C   UNL     1       0.982   5.899  -2.530  0.00  0.00    +0.003 A 
ATOM     15  N   UNL     1       0.422   6.075  -6.054  0.00  0.00    -0.245 NA
ATOM     16  C   UNL     1      -0.245   5.419  -2.089  0.00  0.00    +0.018 A 
ENDROOT
TORSDOF 0
ENDMDL
