MODEL 1
REMARK VINA RESULT:      -7.2      0.000      0.000
REMARK  Name = 
REMARK  4 active torsions:
REMARK  status: ('A' for Active; 'I' for Inactive)
REMARK    1  A    between atoms: C_4  and  C_5
REMARK    2  A    between atoms: N_7  and  N_8
REMARK    3  A    between atoms: N_8  and  C_9
REMARK    4  A    between atoms: C_9  and  C_10
REMARK                            x       y       z     vdW  Elec       q    Type
REMARK                         _______ _______ _______ _____ _____    ______ ____
ROOT
ATOM      1  C   UNL     1       2.485   6.377  -6.965  0.00  0.00    +0.302 C 
ATOM      2  N   UNL     1       3.482   5.403  -6.659  0.00  0.00    -0.106 NA
ATOM      3  O   UNL     1       2.811   7.592  -7.100  0.00  0.00    -0.265 OA
ENDROOT
BRANCH   1   8
ATOM      4  C   UNL     1      -2.334   5.626  -6.157  0.00  0.00    +0.075 C 
ATOM      5  C   UNL     1      -0.978   5.484  -6.777  0.00  0.00    +0.155 A 
ATOM      6  O   UNL     1      -0.688   5.283  -8.034  0.00  0.00    -0.358 OA
ATOM      7  N   UNL     1       0.571   5.484  -8.276  0.00  0.00    -0.073 NA
ATOM      8  C   UNL     1       1.088   6.060  -7.165  0.00  0.00    +0.179 A 
ATOM      9  C   UNL     1       0.254   5.614  -6.145  0.00  0.00    +0.063 A 
ENDBRANCH   1   8
BRANCH   2  10
ATOM     10  N   UNL     1       4.757   5.569  -7.231  0.00  0.00    -0.103 NA
BRANCH  10  11
ATOM     11  C   UNL     1       4.780   4.960  -8.536  0.00  0.00    +0.140 C 
BRANCH  11  12
ATOM     12  C   UNL     1       5.575   5.740  -9.511  0.00  0.00    -0.003 A 
ATOM     13  C   UNL     1       6.954   5.793  -9.475  0.00  0.00    -0.003 A 
ATOM     14  C   UNL     1       7.664   6.621 -10.322  0.00  0.00    -0.000 A 
ATOM     15  C   UNL     1       6.977   7.684 -10.865  0.00  0.00    -0.000 A 
ATOM     16  C   UNL     1       5.610   7.568 -11.043  0.00  0.00    -0.000 A 
ATOM     17  C   UNL     1       4.913   6.594 -10.385  0.00  0.00    -0.003 A 
ENDBRANCH  11  12
ENDBRANCH  10  11
ENDBRANCH   2  10
TORSDOF 4
ENDMDL
MODEL 2
REMARK VINA RESULT:      -7.1      1.790      2.140
REMARK  Name = 
REMARK  4 active torsions:
REMARK  status: ('A' for Active; 'I' for Inactive)
REMARK    1  A    between atoms: C_4  and  C_5
REMARK    2  A    between atoms: N_7  and  N_8
REMARK    3  A    between atoms: N_8  and  C_9
REMARK    4  A    between atoms: C_9  and  C_10
REMARK                            x       y       z     vdW  Elec       q    Type
REMARK                         _______ _______ _______ _____ _____    ______ ____
ROOT
ATOM      1  C   UNL     1       2.386   4.286  -6.909  0.00  0.00    +0.302 C 
ATOM      2  N   UNL     1       2.540   3.717  -8.209  0.00  0.00    -0.106 NA
ATOM      3  O   UNL     1       3.405   4.512  -6.195  0.00  0.00    -0.265 OA
ENDROOT
BRANCH   1   8
ATOM      4  C   UNL     1      -2.349   5.634  -6.456  0.00  0.00    +0.075 C 
ATOM      5  C   UNL     1      -0.895   5.490  -6.127  0.00  0.00    +0.155 A 
ATOM      6  O   UNL     1      -0.351   5.325  -4.951  0.00  0.00    -0.358 OA
ATOM      7  N   UNL     1       0.890   4.961  -5.042  0.00  0.00    -0.073 NA
ATOM      8  C   UNL     1       1.107   4.658  -6.343  0.00  0.00    +0.179 A 
ATOM      9  C   UNL     1       0.168   5.427  -7.021  0.00  0.00    +0.063 A 
ENDBRANCH   1   8
BRANCH   2  10
ATOM     10  N   UNL     1       3.663   4.102  -8.964  0.00  0.00    -0.103 NA
BRANCH  10  11
ATOM     11  C   UNL     1       3.493   5.459  -9.418  0.00  0.00    +0.140 C 
BRANCH  11  12
ATOM     12  C   UNL     1       4.782   6.120  -9.722  0.00  0.00    -0.003 A 
ATOM     13  C   UNL     1       4.906   7.105 -10.682  0.00  0.00    -0.003 A 
ATOM     14  C   UNL     1       6.140   7.621 -11.027  0.00  0.00    -0.000 A 
ATOM     15  C   UNL     1       7.238   6.843 -10.735  0.00  0.00    -0.000 A 
ATOM     16  C   UNL     1       7.162   5.964  -9.670  0.00  0.00    -0.000 A 
ATOM     17  C   UNL     1       5.945   5.615  -9.154  0.00  0.00    -0.003 A 
ENDBRANCH  11  12
ENDBRANCH  10  11
ENDBRANCH   2  10
TORSDOF 4
ENDMDL
MODEL 3
REMARK VINA RESULT:      -7.0      2.042      6.915
REMARK  Name = 
REMARK  4 active torsions:
REMARK  status: ('A' for Active; 'I' for Inactive)
REMARK    1  A    between atoms: C_4  and  C_5
REMARK    2  A    between atoms: N_7  and  N_8
REMARK    3  A    between atoms: N_8  and  C_9
REMARK    4  A    between atoms: C_9  and  C_10
REMARK                            x       y       z     vdW  Elec       q    Type
REMARK                         _______ _______ _______ _____ _____    ______ ____
ROOT
ATOM      1  C   UNL     1       2.730   4.231  -8.621  0.00  0.00    +0.302 C 
ATOM      2  N   UNL     1       2.636   3.939  -7.228  0.00  0.00    -0.106 NA
ATOM      3  O   UNL     1       1.716   4.094  -9.364  0.00  0.00    -0.265 OA
ENDROOT
BRANCH   1   8
ATOM      4  C   UNL     1       7.380   5.729  -9.379  0.00  0.00    +0.075 C 
ATOM      5  C   UNL     1       5.899   5.609  -9.564  0.00  0.00    +0.155 A 
ATOM      6  O   UNL     1       5.227   5.616 -10.684  0.00  0.00    -0.358 OA
ATOM      7  N   UNL     1       4.005   5.217 -10.514  0.00  0.00    -0.073 NA
ATOM      8  C   UNL     1       3.936   4.712  -9.260  0.00  0.00    +0.179 A 
ATOM      9  C   UNL     1       4.943   5.386  -8.579  0.00  0.00    +0.063 A 
ENDBRANCH   1   8
BRANCH   2  10
ATOM     10  N   UNL     1       1.431   4.252  -6.573  0.00  0.00    -0.103 NA
BRANCH  10  11
ATOM     11  C   UNL     1       1.418   5.654  -6.240  0.00  0.00    +0.140 C 
BRANCH  11  12
ATOM     12  C   UNL     1       0.046   6.179  -6.050  0.00  0.00    -0.003 A 
ATOM     13  C   UNL     1      -0.259   7.145  -5.113  0.00  0.00    -0.003 A 
ATOM     14  C   UNL     1      -1.563   7.530  -4.876  0.00  0.00    -0.000 A 
ATOM     15  C   UNL     1      -2.547   6.643  -5.252  0.00  0.00    -0.000 A 
ATOM     16  C   UNL     1      -2.292   5.776  -6.300  0.00  0.00    -0.000 A 
ATOM     17  C   UNL     1      -1.007   5.555  -6.709  0.00  0.00    -0.003 A 
ENDBRANCH  11  12
ENDBRANCH  10  11
ENDBRANCH   2  10
TORSDOF 4
ENDMDL
MODEL 4
REMARK VINA RESULT:      -6.8      5.361      6.292
REMARK  Name = 
REMARK  4 active torsions:
REMARK  status: ('A' for Active; 'I' for Inactive)
REMARK    1  A    between atoms: C_4  and  C_5
REMARK    2  A    between atoms: N_7  and  N_8
REMARK    3  A    between atoms: N_8  and  C_9
REMARK    4  A    between atoms: C_9  and  C_10
REMARK                            x       y       z     vdW  Elec       q    Type
REMARK                         _______ _______ _______ _____ _____    ______ ____
ROOT
ATOM      1  C   UNL     1      -0.150   5.655  -1.308  0.00  0.00    +0.302 C 
ATOM      2  N   UNL     1       1.013   4.849  -1.129  0.00  0.00    -0.106 NA
ATOM      3  O   UNL     1      -0.350   6.650  -0.554  0.00  0.00    -0.265 OA
ENDROOT
BRANCH   1   8
ATOM      4  C   UNL     1      -2.509   5.667  -5.653  0.00  0.00    +0.075 C 
ATOM      5  C   UNL     1      -2.303   5.629  -4.170  0.00  0.00    +0.155 A 
ATOM      6  O   UNL     1      -2.980   4.949  -3.284  0.00  0.00    -0.358 OA
ATOM      7  N   UNL     1      -2.377   4.921  -2.136  0.00  0.00    -0.073 NA
ATOM      8  C   UNL     1      -1.136   5.422  -2.341  0.00  0.00    +0.179 A 
ATOM      9  C   UNL     1      -1.296   6.255  -3.443  0.00  0.00    +0.063 A 
ENDBRANCH   1   8
BRANCH   2  10
ATOM     10  N   UNL     1       2.204   5.493  -0.745  0.00  0.00    -0.103 NA
BRANCH  10  11
ATOM     11  C   UNL     1       3.332   4.775  -1.283  0.00  0.00    +0.140 C 
BRANCH  11  12
ATOM     12  C   UNL     1       4.065   5.556  -2.305  0.00  0.00    -0.003 A 
ATOM     13  C   UNL     1       4.335   6.902  -2.162  0.00  0.00    -0.003 A 
ATOM     14  C   UNL     1       4.916   7.631  -3.181  0.00  0.00    -0.000 A 
ATOM     15  C   UNL     1       4.804   7.113  -4.452  0.00  0.00    -0.000 A 
ATOM     16  C   UNL     1       4.688   5.743  -4.600  0.00  0.00    -0.000 A 
ATOM     17  C   UNL     1       4.337   4.965  -3.533  0.00  0.00    -0.003 A 
ENDBRANCH  11  12
ENDBRANCH  10  11
ENDBRANCH   2  10
TORSDOF 4
ENDMDL
MODEL 5
REMARK VINA RESULT:      -6.8      2.198      3.581
REMARK  Name = 
REMARK  4 active torsions:
REMARK  status: ('A' for Active; 'I' for Inactive)
REMARK    1  A    between atoms: C_4  and  C_5
REMARK    2  A    between atoms: N_7  and  N_8
REMARK    3  A    between atoms: N_8  and  C_9
REMARK    4  A    between atoms: C_9  and  C_10
REMARK                            x       y       z     vdW  Elec       q    Type
REMARK                         _______ _______ _______ _____ _____    ______ ____
ROOT
ATOM      1  C   UNL     1       2.157   6.509  -7.677  0.00  0.00    +0.302 C 
ATOM      2  N   UNL     1       2.594   7.080  -8.909  0.00  0.00    -0.106 NA
ATOM      3  O   UNL     1       1.242   5.636  -7.676  0.00  0.00    -0.265 OA
ENDROOT
BRANCH   1   8
ATOM      4  C   UNL     1       5.380   7.630  -4.099  0.00  0.00    +0.075 C 
ATOM      5  C   UNL     1       4.143   7.097  -4.755  0.00  0.00    +0.155 A 
ATOM      6  O   UNL     1       2.923   7.103  -4.290  0.00  0.00    -0.358 OA
ATOM      7  N   UNL     1       2.055   6.822  -5.213  0.00  0.00    -0.073 NA
ATOM      8  C   UNL     1       2.723   6.850  -6.390  0.00  0.00    +0.179 A 
ATOM      9  C   UNL     1       4.034   6.555  -6.031  0.00  0.00    +0.063 A 
ENDBRANCH   1   8
BRANCH   2  10
ATOM     10  N   UNL     1       2.631   6.246 -10.041  0.00  0.00    -0.103 NA
BRANCH  10  11
ATOM     11  C   UNL     1       3.770   5.367  -9.951  0.00  0.00    +0.140 C 
BRANCH  11  12
ATOM     12  C   UNL     1       5.056   6.096 -10.029  0.00  0.00    -0.003 A 
ATOM     13  C   UNL     1       5.299   7.080 -10.966  0.00  0.00    -0.003 A 
ATOM     14  C   UNL     1       6.546   7.660 -11.093  0.00  0.00    -0.000 A 
ATOM     15  C   UNL     1       7.613   6.945 -10.597  0.00  0.00    -0.000 A 
ATOM     16  C   UNL     1       7.393   6.068  -9.549  0.00  0.00    -0.000 A 
ATOM     17  C   UNL     1       6.123   5.657  -9.254  0.00  0.00    -0.003 A 
ENDBRANCH  11  12
ENDBRANCH  10  11
ENDBRANCH   2  10
TORSDOF 4
ENDMDL
MODEL 6
REMARK VINA RESULT:      -6.5      3.758      6.723
REMARK  Name = 
REMARK  4 active torsions:
REMARK  status: ('A' for Active; 'I' for Inactive)
REMARK    1  A    between atoms: C_4  and  C_5
REMARK    2  A    between atoms: N_7  and  N_8
REMARK    3  A    between atoms: N_8  and  C_9
REMARK    4  A    between atoms: C_9  and  C_10
REMARK                            x       y       z     vdW  Elec       q    Type
REMARK                         _______ _______ _______ _____ _____    ______ ____
ROOT
ATOM      1  C   UNL     1       3.766   5.447  -5.793  0.00  0.00    +0.302 C 
ATOM      2  N   UNL     1       2.617   4.602  -5.752  0.00  0.00    -0.106 NA
ATOM      3  O   UNL     1       4.491   5.475  -6.829  0.00  0.00    -0.265 OA
ENDROOT
BRANCH   1   8
ATOM      4  C   UNL     1       4.639   7.232  -1.266  0.00  0.00    +0.075 C 
ATOM      5  C   UNL     1       4.314   7.217  -2.728  0.00  0.00    +0.155 A 
ATOM      6  O   UNL     1       4.671   8.082  -3.638  0.00  0.00    -0.358 OA
ATOM      7  N   UNL     1       4.462   7.634  -4.837  0.00  0.00    -0.073 NA
ATOM      8  C   UNL     1       4.157   6.321  -4.709  0.00  0.00    +0.179 A 
ATOM      9  C   UNL     1       3.625   6.231  -3.427  0.00  0.00    +0.063 A 
ENDBRANCH   1   8
BRANCH   2  10
ATOM     10  N   UNL     1       1.882   4.437  -6.941  0.00  0.00    -0.103 NA
BRANCH  10  11
ATOM     11  C   UNL     1       1.213   5.672  -7.265  0.00  0.00    +0.140 C 
BRANCH  11  12
ATOM     12  C   UNL     1      -0.030   5.865  -6.485  0.00  0.00    -0.003 A 
ATOM     13  C   UNL     1      -1.236   5.304  -6.854  0.00  0.00    -0.003 A 
ATOM     14  C   UNL     1      -2.402   5.596  -6.175  0.00  0.00    -0.000 A 
ATOM     15  C   UNL     1      -2.415   6.762  -5.443  0.00  0.00    -0.000 A 
ATOM     16  C   UNL     1      -1.218   7.242  -4.941  0.00  0.00    -0.000 A 
ATOM     17  C   UNL     1      -0.032   6.787  -5.445  0.00  0.00    -0.003 A 
ENDBRANCH  11  12
ENDBRANCH  10  11
ENDBRANCH   2  10
TORSDOF 4
ENDMDL
MODEL 7
REMARK VINA RESULT:      -6.4      2.666      3.397
REMARK  Name = 
REMARK  4 active torsions:
REMARK  status: ('A' for Active; 'I' for Inactive)
REMARK    1  A    between atoms: C_4  and  C_5
REMARK    2  A    between atoms: N_7  and  N_8
REMARK    3  A    between atoms: N_8  and  C_9
REMARK    4  A    between atoms: C_9  and  C_10
REMARK                            x       y       z     vdW  Elec       q    Type
REMARK                         _______ _______ _______ _____ _____    ______ ____
ROOT
ATOM      1  C   UNL     1       1.872   6.516  -9.224  0.00  0.00    +0.302 C 
ATOM      2  N   UNL     1       2.680   5.465  -8.696  0.00  0.00    -0.106 NA
ATOM      3  O   UNL     1       1.746   7.598  -8.581  0.00  0.00    -0.265 OA
ENDROOT
BRANCH   1   8
ATOM      4  C   UNL     1       0.699   5.320 -13.875  0.00  0.00    +0.075 C 
ATOM      5  C   UNL     1       0.788   6.124 -12.615  0.00  0.00    +0.155 A 
ATOM      6  O   UNL     1      -0.114   6.919 -12.105  0.00  0.00    -0.358 OA
ATOM      7  N   UNL     1       0.165   7.240 -10.880  0.00  0.00    -0.073 NA
ATOM      8  C   UNL     1       1.186   6.439 -10.495  0.00  0.00    +0.179 A 
ATOM      9  C   UNL     1       1.826   6.126 -11.689  0.00  0.00    +0.063 A 
ENDBRANCH   1   8
BRANCH   2  10
ATOM     10  N   UNL     1       3.845   5.824  -7.993  0.00  0.00    -0.103 NA
BRANCH  10  11
ATOM     11  C   UNL     1       4.959   5.056  -8.489  0.00  0.00    +0.140 C 
BRANCH  11  12
ATOM     12  C   UNL     1       5.752   5.794  -9.498  0.00  0.00    -0.003 A 
ATOM     13  C   UNL     1       7.132   5.819  -9.488  0.00  0.00    -0.003 A 
ATOM     14  C   UNL     1       7.843   6.610 -10.368  0.00  0.00    -0.000 A 
ATOM     15  C   UNL     1       7.169   7.674 -10.925  0.00  0.00    -0.000 A 
ATOM     16  C   UNL     1       5.797   7.583 -11.076  0.00  0.00    -0.000 A 
ATOM     17  C   UNL     1       5.092   6.640 -10.381  0.00  0.00    -0.003 A 
ENDBRANCH  11  12
ENDBRANCH  10  11
ENDBRANCH   2  10
TORSDOF 4
ENDMDL
MODEL 8
REMARK VINA RESULT:      -6.3      5.534      7.985
REMARK  Name = 
REMARK  4 active torsions:
REMARK  status: ('A' for Active; 'I' for Inactive)
REMARK    1  A    between atoms: C_4  and  C_5
REMARK    2  A    between atoms: N_7  and  N_8
REMARK    3  A    between atoms: N_8  and  C_9
REMARK    4  A    between atoms: C_9  and  C_10
REMARK                            x       y       z     vdW  Elec       q    Type
REMARK                         _______ _______ _______ _____ _____    ______ ____
ROOT
ATOM      1  C   UNL     1       3.556   5.513  -2.610  0.00  0.00    +0.302 C 
ATOM      2  N   UNL     1       2.231   5.492  -3.139  0.00  0.00    -0.106 NA
ATOM      3  O   UNL     1       4.518   5.066  -3.299  0.00  0.00    -0.265 OA
ENDROOT
BRANCH   1   8
ATOM      4  C   UNL     1       4.384   8.657   1.114  0.00  0.00    +0.075 C 
ATOM      5  C   UNL     1       4.501   7.430   0.265  0.00  0.00    +0.155 A 
ATOM      6  O   UNL     1       4.684   6.198   0.656  0.00  0.00    -0.358 OA
ATOM      7  N   UNL     1       4.463   5.350  -0.301  0.00  0.00    -0.073 NA
ATOM      8  C   UNL     1       3.892   6.050  -1.309  0.00  0.00    +0.179 A 
ATOM      9  C   UNL     1       4.359   7.345  -1.117  0.00  0.00    +0.063 A 
ENDBRANCH   1   8
BRANCH   2  10
ATOM     10  N   UNL     1       2.072   5.726  -4.517  0.00  0.00    -0.103 NA
BRANCH  10  11
ATOM     11  C   UNL     1       0.921   5.004  -4.996  0.00  0.00    +0.140 C 
BRANCH  11  12
ATOM     12  C   UNL     1      -0.229   5.892  -5.279  0.00  0.00    -0.003 A 
ATOM     13  C   UNL     1      -0.458   7.060  -4.578  0.00  0.00    -0.003 A 
ATOM     14  C   UNL     1      -1.600   7.807  -4.781  0.00  0.00    -0.000 A 
ATOM     15  C   UNL     1      -2.675   7.153  -5.341  0.00  0.00    -0.000 A 
ATOM     16  C   UNL     1      -2.434   6.073  -6.171  0.00  0.00    -0.000 A 
ATOM     17  C   UNL     1      -1.215   5.454  -6.154  0.00  0.00    -0.003 A 
ENDBRANCH  11  12
ENDBRANCH  10  11
ENDBRANCH   2  10
TORSDOF 4
ENDMDL
MODEL 9
REMARK VINA RESULT:      -6.3      4.040      5.618
REMARK  Name = 
REMARK  4 active torsions:
REMARK  status: ('A' for Active; 'I' for Inactive)
REMARK    1  A    between atoms: C_4  and  C_5
REMARK    2  A    between atoms: N_7  and  N_8
REMARK    3  A    between atoms: N_8  and  C_9
REMARK    4  A    between atoms: C_9  and  C_10
REMARK                            x       y       z     vdW  Elec       q    Type
REMARK                         _______ _______ _______ _____ _____    ______ ____
ROOT
ATOM      1  C   UNL     1      -1.179   5.986  -5.038  0.00  0.00    +0.302 C 
ATOM      2  N   UNL     1      -0.028   6.745  -5.404  0.00  0.00    -0.106 NA
ATOM      3  O   UNL     1      -1.846   5.383  -5.928  0.00  0.00    -0.265 OA
ENDROOT
BRANCH   1   8
ATOM      4  C   UNL     1      -1.505   6.306  -0.116  0.00  0.00    +0.075 C 
ATOM      5  C   UNL     1      -1.661   5.750  -1.497  0.00  0.00    +0.155 A 
ATOM      6  O   UNL     1      -2.667   5.070  -1.979  0.00  0.00    -0.358 OA
ATOM      7  N   UNL     1      -2.611   4.980  -3.272  0.00  0.00    -0.073 NA
ATOM      8  C   UNL     1      -1.638   5.831  -3.675  0.00  0.00    +0.179 A 
ATOM      9  C   UNL     1      -0.795   5.911  -2.573  0.00  0.00    +0.063 A 
ENDBRANCH   1   8
BRANCH   2  10
ATOM     10  N   UNL     1       0.774   6.256  -6.451  0.00  0.00    -0.103 NA
BRANCH  10  11
ATOM     11  C   UNL     1       1.711   5.294  -5.929  0.00  0.00    +0.140 C 
BRANCH  11  12
ATOM     12  C   UNL     1       2.754   5.920  -5.085  0.00  0.00    -0.003 A 
ATOM     13  C   UNL     1       3.616   6.888  -5.561  0.00  0.00    -0.003 A 
ATOM     14  C   UNL     1       4.654   7.369  -4.790  0.00  0.00    -0.000 A 
ATOM     15  C   UNL     1       5.073   6.569  -3.750  0.00  0.00    -0.000 A 
ATOM     16  C   UNL     1       4.161   5.706  -3.170  0.00  0.00    -0.000 A 
ATOM     17  C   UNL     1       3.001   5.394  -3.823  0.00  0.00    -0.003 A 
ENDBRANCH  11  12
ENDBRANCH  10  11
ENDBRANCH   2  10
TORSDOF 4
ENDMDL
