MODEL 1
REMARK VINA RESULT:      -6.2      0.000      0.000
REMARK  Name = 
REMARK  2 active torsions:
REMARK  status: ('A' for Active; 'I' for Inactive)
REMARK    1  A    between atoms: N_6  and  C_7
REMARK    2  A    between atoms: C_10  and  C_11
REMARK                            x       y       z     vdW  Elec       q    Type
REMARK                         _______ _______ _______ _____ _____    ______ ____
ROOT
ATOM      1  N   UNL     1      -2.691   4.987  -2.357  0.00  0.00    -0.105 NA
ATOM      2  C   UNL     1      -1.589   5.316  -2.376  0.00  0.00    +0.203 A 
ATOM      3  C   UNL     1      -1.085   5.910  -3.530  0.00  0.00    +0.192 A 
ATOM      4  F   UNL     1      -1.945   6.462  -4.434  0.00  0.00    -0.200 F 
ATOM      5  C   UNL     1       0.277   5.875  -3.809  0.00  0.00    +0.115 A 
ATOM      6  N   UNL     1       1.070   5.716  -2.721  0.00  0.00    -0.253 N 
ATOM      7  C   UNL     1       0.669   5.078  -1.669  0.00  0.00    +0.353 A 
ATOM      8  O   UNL     1       1.488   5.048  -0.705  0.00  0.00    -0.244 OA
ATOM      9  N   UNL     1      -0.662   4.968  -1.451  0.00  0.00    -0.172 NA
ENDROOT
BRANCH   6  10
ATOM     10  C   UNL     1       2.555   5.561  -3.239  0.00  0.00    +0.220 C 
ATOM     11  O   UNL     1       2.065   5.126  -4.619  0.00  0.00    -0.323 OA
ATOM     12  C   UNL     1       3.436   4.804  -5.062  0.00  0.00    +0.198 C 
ATOM     13  S   UNL     1       3.871   6.678  -5.133  0.00  0.00    -0.105 S 
ATOM     14  C   UNL     1       2.720   7.118  -3.784  0.00  0.00    +0.114 C 
BRANCH  12  15
ATOM     15  C   UNL     1       3.061   4.716  -6.621  0.00  0.00    +0.223 C 
ATOM     16  O   UNL     1       2.144   3.658  -6.724  0.00  0.00    -0.217 OA
ENDBRANCH  12  15
ENDBRANCH   6  10
TORSDOF 2
ENDMDL
MODEL 2
REMARK VINA RESULT:      -6.2      7.097      9.576
REMARK  Name = 
REMARK  2 active torsions:
REMARK  status: ('A' for Active; 'I' for Inactive)
REMARK    1  A    between atoms: N_6  and  C_7
REMARK    2  A    between atoms: C_10  and  C_11
REMARK                            x       y       z     vdW  Elec       q    Type
REMARK                         _______ _______ _______ _____ _____    ______ ____
ROOT
ATOM      1  N   UNL     1       7.902   4.757 -12.787  0.00  0.00    -0.105 NA
ATOM      2  C   UNL     1       6.889   5.241 -12.544  0.00  0.00    +0.203 A 
ATOM      3  C   UNL     1       6.728   5.891 -11.323  0.00  0.00    +0.192 A 
ATOM      4  F   UNL     1       7.830   6.304 -10.631  0.00  0.00    -0.200 F 
ATOM      5  C   UNL     1       5.465   6.051 -10.764  0.00  0.00    +0.115 A 
ATOM      6  N   UNL     1       4.447   6.019 -11.659  0.00  0.00    -0.253 N 
ATOM      7  C   UNL     1       4.522   5.339 -12.758  0.00  0.00    +0.353 A 
ATOM      8  O   UNL     1       3.522   5.437 -13.527  0.00  0.00    -0.244 OA
ATOM      9  N   UNL     1       5.747   5.040 -13.247  0.00  0.00    -0.172 NA
ENDROOT
BRANCH   6  10
ATOM     10  C   UNL     1       3.097   6.075 -10.838  0.00  0.00    +0.220 C 
ATOM     11  O   UNL     1       3.490   4.833 -10.040  0.00  0.00    -0.323 OA
ATOM     12  C   UNL     1       2.165   4.764  -9.394  0.00  0.00    +0.198 C 
ATOM     13  S   UNL     1       2.581   6.321  -8.340  0.00  0.00    -0.105 S 
ATOM     14  C   UNL     1       3.669   7.043  -9.618  0.00  0.00    +0.114 C 
BRANCH  12  15
ATOM     15  C   UNL     1       2.620   3.732  -8.252  0.00  0.00    +0.223 C 
ATOM     16  O   UNL     1       2.165   4.287  -7.045  0.00  0.00    -0.217 OA
ENDBRANCH  12  15
ENDBRANCH   6  10
TORSDOF 2
ENDMDL
MODEL 3
REMARK VINA RESULT:      -5.9      2.929      3.681
REMARK  Name = 
REMARK  2 active torsions:
REMARK  status: ('A' for Active; 'I' for Inactive)
REMARK    1  A    between atoms: N_6  and  C_7
REMARK    2  A    between atoms: C_10  and  C_11
REMARK                            x       y       z     vdW  Elec       q    Type
REMARK                         _______ _______ _______ _____ _____    ______ ____
ROOT
ATOM      1  N   UNL     1      -2.055   7.596  -2.474  0.00  0.00    -0.105 NA
ATOM      2  C   UNL     1      -1.752   6.857  -3.301  0.00  0.00    +0.203 A 
ATOM      3  C   UNL     1      -0.451   6.362  -3.317  0.00  0.00    +0.192 A 
ATOM      4  F   UNL     1       0.302   6.411  -2.180  0.00  0.00    -0.200 F 
ATOM      5  C   UNL     1       0.117   5.893  -4.497  0.00  0.00    +0.115 A 
ATOM      6  N   UNL     1      -0.781   5.484  -5.428  0.00  0.00    -0.253 N 
ATOM      7  C   UNL     1      -1.966   5.998  -5.508  0.00  0.00    +0.353 A 
ATOM      8  O   UNL     1      -2.720   5.489  -6.388  0.00  0.00    -0.244 OA
ATOM      9  N   UNL     1      -2.485   6.595  -4.411  0.00  0.00    -0.172 NA
ENDROOT
BRANCH   6  10
ATOM     10  C   UNL     1       0.030   5.122  -6.736  0.00  0.00    +0.220 C 
ATOM     11  O   UNL     1       0.878   6.387  -6.602  0.00  0.00    -0.323 OA
ATOM     12  C   UNL     1       1.519   6.158  -7.912  0.00  0.00    +0.198 C 
ATOM     13  S   UNL     1       2.514   4.678  -7.185  0.00  0.00    -0.105 S 
ATOM     14  C   UNL     1       1.214   4.244  -5.976  0.00  0.00    +0.114 C 
BRANCH  12  15
ATOM     15  C   UNL     1       2.702   7.216  -7.674  0.00  0.00    +0.223 C 
ATOM     16  O   UNL     1       2.120   8.477  -7.880  0.00  0.00    -0.217 OA
ENDBRANCH  12  15
ENDBRANCH   6  10
TORSDOF 2
ENDMDL
MODEL 4
REMARK VINA RESULT:      -5.8      6.622      7.896
REMARK  Name = 
REMARK  2 active torsions:
REMARK  status: ('A' for Active; 'I' for Inactive)
REMARK    1  A    between atoms: N_6  and  C_7
REMARK    2  A    between atoms: C_10  and  C_11
REMARK                            x       y       z     vdW  Elec       q    Type
REMARK                         _______ _______ _______ _____ _____    ______ ____
ROOT
ATOM      1  N   UNL     1      -0.049   4.405 -10.779  0.00  0.00    -0.105 NA
ATOM      2  C   UNL     1       0.943   4.872 -10.434  0.00  0.00    +0.203 A 
ATOM      3  C   UNL     1       1.546   5.840 -11.233  0.00  0.00    +0.192 A 
ATOM      4  F   UNL     1       0.799   6.509 -12.159  0.00  0.00    -0.200 F 
ATOM      5  C   UNL     1       2.914   6.075 -11.155  0.00  0.00    +0.115 A 
ATOM      6  N   UNL     1       3.478   5.715  -9.975  0.00  0.00    -0.253 N 
ATOM      7  C   UNL     1       3.005   4.749  -9.255  0.00  0.00    +0.353 A 
ATOM      8  O   UNL     1       3.595   4.553  -8.154  0.00  0.00    -0.244 OA
ATOM      9  N   UNL     1       1.709   4.400  -9.420  0.00  0.00    -0.172 NA
ENDROOT
BRANCH   6  10
ATOM     10  C   UNL     1       5.039   5.922 -10.118  0.00  0.00    +0.220 C 
ATOM     11  O   UNL     1       5.002   5.461 -11.575  0.00  0.00    -0.323 OA
ATOM     12  C   UNL     1       6.475   5.476 -11.672  0.00  0.00    +0.198 C 
ATOM     13  S   UNL     1       6.473   7.401 -11.643  0.00  0.00    -0.105 S 
ATOM     14  C   UNL     1       4.967   7.503 -10.614  0.00  0.00    +0.114 C 
BRANCH  12  15
ATOM     15  C   UNL     1       6.509   5.388 -13.274  0.00  0.00    +0.223 C 
ATOM     16  O   UNL     1       7.748   4.804 -13.588  0.00  0.00    -0.217 OA
ENDBRANCH  12  15
ENDBRANCH   6  10
TORSDOF 2
ENDMDL
MODEL 5
REMARK VINA RESULT:      -5.8      2.827      3.857
REMARK  Name = 
REMARK  2 active torsions:
REMARK  status: ('A' for Active; 'I' for Inactive)
REMARK    1  A    between atoms: N_6  and  C_7
REMARK    2  A    between atoms: C_10  and  C_11
REMARK                            x       y       z     vdW  Elec       q    Type
REMARK                         _______ _______ _______ _____ _____    ______ ____
ROOT
ATOM      1  N   UNL     1       2.462   6.636  -1.427  0.00  0.00    -0.105 NA
ATOM      2  C   UNL     1       2.019   6.049  -2.312  0.00  0.00    +0.203 A 
ATOM      3  C   UNL     1       2.885   5.458  -3.228  0.00  0.00    +0.192 A 
ATOM      4  F   UNL     1       4.182   5.221  -2.873  0.00  0.00    -0.200 F 
ATOM      5  C   UNL     1       2.467   5.183  -4.525  0.00  0.00    +0.115 A 
ATOM      6  N   UNL     1       1.126   5.041  -4.664  0.00  0.00    -0.253 N 
ATOM      7  C   UNL     1       0.288   5.658  -3.895  0.00  0.00    +0.353 A 
ATOM      8  O   UNL     1      -0.933   5.397  -4.099  0.00  0.00    -0.244 OA
ATOM      9  N   UNL     1       0.715   6.071  -2.679  0.00  0.00    -0.172 NA
ENDROOT
BRANCH   6  10
ATOM     10  C   UNL     1       0.828   4.874  -6.208  0.00  0.00    +0.220 C 
ATOM     11  O   UNL     1       1.673   6.103  -6.539  0.00  0.00    -0.323 OA
ATOM     12  C   UNL     1       1.261   6.069  -7.957  0.00  0.00    +0.198 C 
ATOM     13  S   UNL     1       2.334   4.496  -8.247  0.00  0.00    -0.105 S 
ATOM     14  C   UNL     1       2.123   3.891  -6.535  0.00  0.00    +0.114 C 
BRANCH  12  15
ATOM     15  C   UNL     1       2.404   7.078  -8.458  0.00  0.00    +0.223 C 
ATOM     16  O   UNL     1       2.108   8.307  -7.846  0.00  0.00    -0.217 OA
ENDBRANCH  12  15
ENDBRANCH   6  10
TORSDOF 2
ENDMDL
MODEL 6
REMARK VINA RESULT:      -5.7      7.585      9.913
REMARK  Name = 
REMARK  2 active torsions:
REMARK  status: ('A' for Active; 'I' for Inactive)
REMARK    1  A    between atoms: N_6  and  C_7
REMARK    2  A    between atoms: C_10  and  C_11
REMARK                            x       y       z     vdW  Elec       q    Type
REMARK                         _______ _______ _______ _____ _____    ______ ____
ROOT
ATOM      1  N   UNL     1       6.902   5.031 -12.354  0.00  0.00    -0.105 NA
ATOM      2  C   UNL     1       5.804   5.335 -12.504  0.00  0.00    +0.203 A 
ATOM      3  C   UNL     1       5.089   5.831 -11.417  0.00  0.00    +0.192 A 
ATOM      4  F   UNL     1       5.762   6.333 -10.341  0.00  0.00    -0.200 F 
ATOM      5  C   UNL     1       3.701   5.747 -11.381  0.00  0.00    +0.115 A 
ATOM      6  N   UNL     1       3.113   5.653 -12.599  0.00  0.00    -0.253 N 
ATOM      7  C   UNL     1       3.710   5.102 -13.607  0.00  0.00    +0.353 A 
ATOM      8  O   UNL     1       3.069   5.126 -14.698  0.00  0.00    -0.244 OA
ATOM      9  N   UNL     1       5.061   5.037 -13.598  0.00  0.00    -0.172 NA
ENDROOT
BRANCH   6  10
ATOM     10  C   UNL     1       1.567   5.428 -12.358  0.00  0.00    +0.220 C 
ATOM     11  O   UNL     1       1.743   5.591 -10.850  0.00  0.00    -0.323 OA
ATOM     12  C   UNL     1       0.340   5.207 -10.592  0.00  0.00    +0.198 C 
ATOM     13  S   UNL     1      -0.269   6.883 -11.319  0.00  0.00    -0.105 S 
ATOM     14  C   UNL     1       1.132   7.023 -12.484  0.00  0.00    +0.114 C 
BRANCH  12  15
ATOM     15  C   UNL     1       0.329   5.732  -9.075  0.00  0.00    +0.223 C 
ATOM     16  O   UNL     1       1.295   6.750  -9.026  0.00  0.00    -0.217 OA
ENDBRANCH  12  15
ENDBRANCH   6  10
TORSDOF 2
ENDMDL
MODEL 7
REMARK VINA RESULT:      -5.7      4.492      5.962
REMARK  Name = 
REMARK  2 active torsions:
REMARK  status: ('A' for Active; 'I' for Inactive)
REMARK    1  A    between atoms: N_6  and  C_7
REMARK    2  A    between atoms: C_10  and  C_11
REMARK                            x       y       z     vdW  Elec       q    Type
REMARK                         _______ _______ _______ _____ _____    ______ ____
ROOT
ATOM      1  N   UNL     1       2.199   5.019  -4.832  0.00  0.00    -0.105 NA
ATOM      2  C   UNL     1       2.141   5.445  -5.899  0.00  0.00    +0.203 A 
ATOM      3  C   UNL     1       2.323   4.585  -6.978  0.00  0.00    +0.192 A 
ATOM      4  F   UNL     1       2.155   3.242  -6.804  0.00  0.00    -0.200 F 
ATOM      5  C   UNL     1       2.752   5.070  -8.209  0.00  0.00    +0.115 A 
ATOM      6  N   UNL     1       2.483   6.382  -8.420  0.00  0.00    -0.253 N 
ATOM      7  C   UNL     1       2.410   7.232  -7.446  0.00  0.00    +0.353 A 
ATOM      8  O   UNL     1       2.101   8.413  -7.777  0.00  0.00    -0.244 OA
ATOM      9  N   UNL     1       2.139   6.766  -6.205  0.00  0.00    -0.172 NA
ENDROOT
BRANCH   6  10
ATOM     10  C   UNL     1       3.158   6.786  -9.791  0.00  0.00    +0.220 C 
ATOM     11  O   UNL     1       4.533   6.359  -9.280  0.00  0.00    -0.323 OA
ATOM     12  C   UNL     1       5.204   6.895 -10.481  0.00  0.00    +0.198 C 
ATOM     13  S   UNL     1       4.478   5.464 -11.545  0.00  0.00    -0.105 S 
ATOM     14  C   UNL     1       2.968   5.312 -10.526  0.00  0.00    +0.114 C 
BRANCH  12  15
ATOM     15  C   UNL     1       6.594   6.141 -10.212  0.00  0.00    +0.223 C 
ATOM     16  O   UNL     1       6.416   5.454  -9.000  0.00  0.00    -0.217 OA
ENDBRANCH  12  15
ENDBRANCH   6  10
TORSDOF 2
ENDMDL
MODEL 8
REMARK VINA RESULT:      -5.6      3.040      5.014
REMARK  Name = 
REMARK  2 active torsions:
REMARK  status: ('A' for Active; 'I' for Inactive)
REMARK    1  A    between atoms: N_6  and  C_7
REMARK    2  A    between atoms: C_10  and  C_11
REMARK                            x       y       z     vdW  Elec       q    Type
REMARK                         _______ _______ _______ _____ _____    ______ ____
ROOT
ATOM      1  N   UNL     1       4.359   5.081  -3.235  0.00  0.00    -0.105 NA
ATOM      2  C   UNL     1       3.451   5.347  -3.888  0.00  0.00    +0.203 A 
ATOM      3  C   UNL     1       2.623   6.394  -3.494  0.00  0.00    +0.192 A 
ATOM      4  F   UNL     1       3.091   7.330  -2.618  0.00  0.00    -0.200 F 
ATOM      5  C   UNL     1       1.300   6.452  -3.919  0.00  0.00    +0.115 A 
ATOM      6  N   UNL     1       1.050   5.779  -5.069  0.00  0.00    -0.253 N 
ATOM      7  C   UNL     1       1.734   4.737  -5.416  0.00  0.00    +0.353 A 
ATOM      8  O   UNL     1       1.431   4.236  -6.537  0.00  0.00    -0.244 OA
ATOM      9  N   UNL     1       2.973   4.579  -4.898  0.00  0.00    -0.172 NA
ENDROOT
BRANCH   6  10
ATOM     10  C   UNL     1      -0.511   5.838  -5.319  0.00  0.00    +0.220 C 
ATOM     11  O   UNL     1      -0.792   5.532  -3.848  0.00  0.00    -0.323 OA
ATOM     12  C   UNL     1      -2.241   5.405  -4.098  0.00  0.00    +0.198 C 
ATOM     13  S   UNL     1      -2.379   7.308  -4.362  0.00  0.00    -0.105 S 
ATOM     14  C   UNL     1      -0.680   7.460  -5.018  0.00  0.00    +0.114 C 
BRANCH  12  15
ATOM     15  C   UNL     1      -2.656   5.477  -2.549  0.00  0.00    +0.223 C 
ATOM     16  O   UNL     1      -1.526   5.036  -1.841  0.00  0.00    -0.217 OA
ENDBRANCH  12  15
ENDBRANCH   6  10
TORSDOF 2
ENDMDL
MODEL 9
REMARK VINA RESULT:      -5.6      5.026      6.417
REMARK  Name = 
REMARK  2 active torsions:
REMARK  status: ('A' for Active; 'I' for Inactive)
REMARK    1  A    between atoms: N_6  and  C_7
REMARK    2  A    between atoms: C_10  and  C_11
REMARK                            x       y       z     vdW  Elec       q    Type
REMARK                         _______ _______ _______ _____ _____    ______ ____
ROOT
ATOM      1  N   UNL     1       3.671   4.983  -5.421  0.00  0.00    -0.105 NA
ATOM      2  C   UNL     1       2.930   5.438  -6.173  0.00  0.00    +0.203 A 
ATOM      3  C   UNL     1       2.094   4.588  -6.893  0.00  0.00    +0.192 A 
ATOM      4  F   UNL     1       1.861   3.324  -6.431  0.00  0.00    -0.200 F 
ATOM      5  C   UNL     1       1.560   4.982  -8.115  0.00  0.00    +0.115 A 
ATOM      6  N   UNL     1       1.476   6.325  -8.283  0.00  0.00    -0.253 N 
ATOM      7  C   UNL     1       2.303   7.140  -7.711  0.00  0.00    +0.353 A 
ATOM      8  O   UNL     1       2.080   8.370  -7.911  0.00  0.00    -0.244 OA
ATOM      9  N   UNL     1       2.951   6.725  -6.599  0.00  0.00    -0.172 NA
ENDROOT
BRANCH   6  10
ATOM     10  C   UNL     1       0.984   6.583  -9.763  0.00  0.00    +0.220 C 
ATOM     11  O   UNL     1       2.311   6.079 -10.329  0.00  0.00    -0.323 OA
ATOM     12  C   UNL     1       1.939   6.481 -11.700  0.00  0.00    +0.198 C 
ATOM     13  S   UNL     1       0.655   5.048 -11.788  0.00  0.00    -0.105 S 
ATOM     14  C   UNL     1       0.312   5.085  -9.994  0.00  0.00    +0.114 C 
BRANCH  12  15
ATOM     15  C   UNL     1       3.101   5.634 -12.413  0.00  0.00    +0.223 C 
ATOM     16  O   UNL     1       2.621   5.357 -13.703  0.00  0.00    -0.217 OA
ENDBRANCH  12  15
ENDBRANCH   6  10
TORSDOF 2
ENDMDL
