MODEL 1
REMARK VINA RESULT:      -3.8      0.000      0.000
REMARK  Name = 
REMARK  3 active torsions:
REMARK  status: ('A' for Active; 'I' for Inactive)
REMARK    1  A    between atoms: N_2  and  C_3
REMARK    2  A    between atoms: C_3  and  C_4
REMARK    3  A    between atoms: C_4  and  O_7
REMARK                            x       y       z     vdW  Elec       q    Type
REMARK                         _______ _______ _______ _____ _____    ______ ____
ROOT
ATOM      1  C   UNL     1       7.011   5.911 -10.843  0.00  0.00    +0.180 C 
ATOM      2  C   UNL     1       6.977   7.411 -11.078  0.00  0.00    +0.038 C 
ATOM      3  C   UNL     1       7.376   5.707  -9.398  0.00  0.00    +0.038 C 
ENDROOT
BRANCH   1   4
ATOM      4  O   UNL     1       5.722   5.430 -11.124  0.00  0.00    -0.348 OA
ATOM      5  C   UNL     1       4.915   5.467  -9.991  0.00  0.00    +0.174 C 
ENDBRANCH   1   4
BRANCH   1   6
ATOM      6  C   UNL     1       7.952   5.237 -11.795  0.00  0.00    +0.438 C 
BRANCH   6   8
ATOM      7  C   UNL     1       7.044   5.445 -14.126  0.00  0.00    -0.236 C 
ATOM      8  N   UNL     1       7.323   5.105 -13.045  0.00  0.00    -0.285 NA
ENDBRANCH   6   8
ENDBRANCH   1   6
TORSDOF 3
ENDMDL
MODEL 2
REMARK VINA RESULT:      -3.8     10.264     11.901
REMARK  Name = 
REMARK  3 active torsions:
REMARK  status: ('A' for Active; 'I' for Inactive)
REMARK    1  A    between atoms: N_2  and  C_3
REMARK    2  A    between atoms: C_3  and  C_4
REMARK    3  A    between atoms: C_4  and  O_7
REMARK                            x       y       z     vdW  Elec       q    Type
REMARK                         _______ _______ _______ _____ _____    ______ ____
ROOT
ATOM      1  C   UNL     1      -2.148   5.858  -4.734  0.00  0.00    +0.180 C 
ATOM      2  C   UNL     1      -2.261   7.368  -4.622  0.00  0.00    +0.038 C 
ATOM      3  C   UNL     1      -2.470   5.504  -6.161  0.00  0.00    +0.038 C 
ENDROOT
BRANCH   1   4
ATOM      4  O   UNL     1      -0.823   5.528  -4.407  0.00  0.00    -0.348 OA
ATOM      5  C   UNL     1       0.058   6.523  -4.818  0.00  0.00    +0.174 C 
ENDBRANCH   1   4
BRANCH   1   6
ATOM      6  C   UNL     1      -3.034   5.175  -3.737  0.00  0.00    +0.438 C 
BRANCH   6   8
ATOM      7  C   UNL     1      -2.168   5.586  -1.418  0.00  0.00    -0.236 C 
ATOM      8  N   UNL     1      -2.397   5.172  -2.485  0.00  0.00    -0.285 NA
ENDBRANCH   6   8
ENDBRANCH   1   6
TORSDOF 3
ENDMDL
MODEL 3
REMARK VINA RESULT:      -3.7      1.524      2.610
REMARK  Name = 
REMARK  3 active torsions:
REMARK  status: ('A' for Active; 'I' for Inactive)
REMARK    1  A    between atoms: N_2  and  C_3
REMARK    2  A    between atoms: C_3  and  C_4
REMARK    3  A    between atoms: C_4  and  O_7
REMARK                            x       y       z     vdW  Elec       q    Type
REMARK                         _______ _______ _______ _____ _____    ______ ____
ROOT
ATOM      1  C   UNL     1       6.832   5.967 -10.935  0.00  0.00    +0.180 C 
ATOM      2  C   UNL     1       7.310   5.766  -9.507  0.00  0.00    +0.038 C 
ATOM      3  C   UNL     1       7.042   7.421 -11.261  0.00  0.00    +0.038 C 
ENDROOT
BRANCH   1   4
ATOM      4  O   UNL     1       7.622   5.136 -11.745  0.00  0.00    -0.348 OA
ATOM      5  C   UNL     1       8.771   5.796 -12.169  0.00  0.00    +0.174 C 
ENDBRANCH   1   4
BRANCH   1   6
ATOM      6  C   UNL     1       5.410   5.520 -11.096  0.00  0.00    +0.438 C 
BRANCH   6   8
ATOM      7  C   UNL     1       4.543   5.120 -13.417  0.00  0.00    -0.236 C 
ATOM      8  N   UNL     1       5.183   5.195 -12.444  0.00  0.00    -0.285 NA
ENDBRANCH   6   8
ENDBRANCH   1   6
TORSDOF 3
ENDMDL
MODEL 4
REMARK VINA RESULT:      -3.7      8.727     10.384
REMARK  Name = 
REMARK  3 active torsions:
REMARK  status: ('A' for Active; 'I' for Inactive)
REMARK    1  A    between atoms: N_2  and  C_3
REMARK    2  A    between atoms: C_3  and  C_4
REMARK    3  A    between atoms: C_4  and  O_7
REMARK                            x       y       z     vdW  Elec       q    Type
REMARK                         _______ _______ _______ _____ _____    ______ ____
ROOT
ATOM      1  C   UNL     1      -1.628   6.236  -5.122  0.00  0.00    +0.180 C 
ATOM      2  C   UNL     1      -2.426   5.588  -6.241  0.00  0.00    +0.038 C 
ATOM      3  C   UNL     1      -2.277   7.564  -4.841  0.00  0.00    +0.038 C 
ENDROOT
BRANCH   1   4
ATOM      4  O   UNL     1      -1.712   5.375  -4.017  0.00  0.00    -0.348 OA
ATOM      5  C   UNL     1      -3.021   5.280  -3.554  0.00  0.00    +0.174 C 
ENDBRANCH   1   4
BRANCH   1   6
ATOM      6  C   UNL     1      -0.179   6.347  -5.488  0.00  0.00    +0.438 C 
BRANCH   6   8
ATOM      7  C   UNL     1       1.181   4.288  -5.947  0.00  0.00    -0.236 C 
ATOM      8  N   UNL     1       0.338   5.059  -5.708  0.00  0.00    -0.285 NA
ENDBRANCH   6   8
ENDBRANCH   1   6
TORSDOF 3
ENDMDL
MODEL 5
REMARK VINA RESULT:      -3.5      1.476      1.783
REMARK  Name = 
REMARK  3 active torsions:
REMARK  status: ('A' for Active; 'I' for Inactive)
REMARK    1  A    between atoms: N_2  and  C_3
REMARK    2  A    between atoms: C_3  and  C_4
REMARK    3  A    between atoms: C_4  and  O_7
REMARK                            x       y       z     vdW  Elec       q    Type
REMARK                         _______ _______ _______ _____ _____    ______ ____
ROOT
ATOM      1  C   UNL     1       7.524   6.045 -11.398  0.00  0.00    +0.180 C 
ATOM      2  C   UNL     1       8.929   5.798 -11.920  0.00  0.00    +0.038 C 
ATOM      3  C   UNL     1       7.533   5.677  -9.939  0.00  0.00    +0.038 C 
ENDROOT
BRANCH   1   4
ATOM      4  O   UNL     1       7.259   7.410 -11.585  0.00  0.00    -0.348 OA
ATOM      5  C   UNL     1       5.991   7.743 -11.119  0.00  0.00    +0.174 C 
ENDBRANCH   1   4
BRANCH   1   6
ATOM      6  C   UNL     1       6.510   5.283 -12.197  0.00  0.00    +0.438 C 
BRANCH   6   8
ATOM      7  C   UNL     1       6.727   5.766 -14.651  0.00  0.00    -0.236 C 
ATOM      8  N   UNL     1       6.844   5.368 -13.560  0.00  0.00    -0.285 NA
ENDBRANCH   6   8
ENDBRANCH   1   6
TORSDOF 3
ENDMDL
MODEL 6
REMARK VINA RESULT:      -3.4      9.947     11.134
REMARK  Name = 
REMARK  3 active torsions:
REMARK  status: ('A' for Active; 'I' for Inactive)
REMARK    1  A    between atoms: N_2  and  C_3
REMARK    2  A    between atoms: C_3  and  C_4
REMARK    3  A    between atoms: C_4  and  O_7
REMARK                            x       y       z     vdW  Elec       q    Type
REMARK                         _______ _______ _______ _____ _____    ______ ____
ROOT
ATOM      1  C   UNL     1      -2.031   5.986  -4.719  0.00  0.00    +0.180 C 
ATOM      2  C   UNL     1      -2.172   7.484  -4.516  0.00  0.00    +0.038 C 
ATOM      3  C   UNL     1      -2.959   5.326  -3.734  0.00  0.00    +0.038 C 
ENDROOT
BRANCH   1   4
ATOM      4  O   UNL     1      -2.411   5.721  -6.043  0.00  0.00    -0.348 OA
ATOM      5  C   UNL     1      -1.328   5.282  -6.798  0.00  0.00    +0.174 C 
ENDBRANCH   1   4
BRANCH   1   6
ATOM      6  C   UNL     1      -0.604   5.553  -4.572  0.00  0.00    +0.438 C 
BRANCH   6   8
ATOM      7  C   UNL     1       0.346   5.184  -2.278  0.00  0.00    -0.236 C 
ATOM      8  N   UNL     1      -0.270   5.530  -3.207  0.00  0.00    -0.285 NA
ENDBRANCH   6   8
ENDBRANCH   1   6
TORSDOF 3
ENDMDL
MODEL 7
REMARK VINA RESULT:      -3.3      2.106      3.192
REMARK  Name = 
REMARK  3 active torsions:
REMARK  status: ('A' for Active; 'I' for Inactive)
REMARK    1  A    between atoms: N_2  and  C_3
REMARK    2  A    between atoms: C_3  and  C_4
REMARK    3  A    between atoms: C_4  and  O_7
REMARK                            x       y       z     vdW  Elec       q    Type
REMARK                         _______ _______ _______ _____ _____    ______ ____
ROOT
ATOM      1  C   UNL     1       5.809   6.032 -10.641  0.00  0.00    +0.180 C 
ATOM      2  C   UNL     1       6.363   5.586 -11.983  0.00  0.00    +0.038 C 
ATOM      3  C   UNL     1       6.901   5.817  -9.628  0.00  0.00    +0.038 C 
ENDROOT
BRANCH   1   4
ATOM      4  O   UNL     1       5.483   7.391 -10.771  0.00  0.00    -0.348 OA
ATOM      5  C   UNL     1       6.496   8.088 -11.422  0.00  0.00    +0.174 C 
ENDBRANCH   1   4
BRANCH   1   6
ATOM      6  C   UNL     1       4.541   5.302 -10.311  0.00  0.00    +0.438 C 
BRANCH   6   8
ATOM      7  C   UNL     1       2.437   5.836 -11.572  0.00  0.00    -0.236 C 
ATOM      8  N   UNL     1       3.540   5.693 -11.217  0.00  0.00    -0.285 NA
ENDBRANCH   6   8
ENDBRANCH   1   6
TORSDOF 3
ENDMDL
MODEL 8
REMARK VINA RESULT:      -3.3      9.171     10.702
REMARK  Name = 
REMARK  3 active torsions:
REMARK  status: ('A' for Active; 'I' for Inactive)
REMARK    1  A    between atoms: N_2  and  C_3
REMARK    2  A    between atoms: C_3  and  C_4
REMARK    3  A    between atoms: C_4  and  O_7
REMARK                            x       y       z     vdW  Elec       q    Type
REMARK                         _______ _______ _______ _____ _____    ______ ____
ROOT
ATOM      1  C   UNL     1      -2.016   6.164  -4.725  0.00  0.00    +0.180 C 
ATOM      2  C   UNL     1      -2.062   7.682  -4.759  0.00  0.00    +0.038 C 
ATOM      3  C   UNL     1      -0.678   5.785  -4.149  0.00  0.00    +0.038 C 
ENDROOT
BRANCH   1   4
ATOM      4  O   UNL     1      -3.071   5.747  -3.898  0.00  0.00    -0.348 OA
ATOM      5  C   UNL     1      -2.615   5.443  -2.619  0.00  0.00    +0.174 C 
ENDBRANCH   1   4
BRANCH   1   6
ATOM      6  C   UNL     1      -2.263   5.585  -6.085  0.00  0.00    +0.438 C 
BRANCH   6   8
ATOM      7  C   UNL     1      -0.401   5.426  -7.760  0.00  0.00    -0.236 C 
ATOM      8  N   UNL     1      -1.065   5.614  -6.819  0.00  0.00    -0.285 NA
ENDBRANCH   6   8
ENDBRANCH   1   6
TORSDOF 3
ENDMDL
MODEL 9
REMARK VINA RESULT:      -3.3      8.727     10.193
REMARK  Name = 
REMARK  3 active torsions:
REMARK  status: ('A' for Active; 'I' for Inactive)
REMARK    1  A    between atoms: N_2  and  C_3
REMARK    2  A    between atoms: C_3  and  C_4
REMARK    3  A    between atoms: C_4  and  O_7
REMARK                            x       y       z     vdW  Elec       q    Type
REMARK                         _______ _______ _______ _____ _____    ______ ____
ROOT
ATOM      1  C   UNL     1      -0.203   5.854  -5.586  0.00  0.00    +0.180 C 
ATOM      2  C   UNL     1       0.788   6.828  -6.200  0.00  0.00    +0.038 C 
ATOM      3  C   UNL     1      -1.120   5.414  -6.694  0.00  0.00    +0.038 C 
ENDROOT
BRANCH   1   4
ATOM      4  O   UNL     1       0.548   4.782  -5.079  0.00  0.00    -0.348 OA
ATOM      5  C   UNL     1       1.310   4.187  -6.079  0.00  0.00    +0.174 C 
ENDBRANCH   1   4
BRANCH   1   6
ATOM      6  C   UNL     1      -0.924   6.477  -4.428  0.00  0.00    +0.438 C 
BRANCH   6   8
ATOM      7  C   UNL     1      -2.826   5.240  -3.353  0.00  0.00    -0.236 C 
ATOM      8  N   UNL     1      -1.856   5.555  -3.921  0.00  0.00    -0.285 NA
ENDBRANCH   6   8
ENDBRANCH   1   6
TORSDOF 3
ENDMDL
