MODEL 1
REMARK VINA RESULT:      -3.6      0.000      0.000
REMARK  Name = 
REMARK  10 active torsions:
REMARK  status: ('A' for Active; 'I' for Inactive)
REMARK    1  A    between atoms: C_2  and  C_3
REMARK    2  A    between atoms: C_3  and  C_4
REMARK    3  A    between atoms: C_4  and  C_5
REMARK    4  A    between atoms: C_5  and  C_7
REMARK    5  A    between atoms: C_7  and  C_8
REMARK    6  A    between atoms: N_10  and  C_11
REMARK    7  A    between atoms: C_11  and  C_12
REMARK    8  A    between atoms: CA_16  and  C_17
REMARK    9  A    between atoms: C_28  and  C_29
REMARK   10  A    between atoms: C_40  and  N_41
REMARK                            x       y       z     vdW  Elec       q    Type
REMARK                         _______ _______ _______ _____ _____    ______ ____
ROOT
ATOM      1  C   UNL     1       0.824   6.818  -5.015  0.00  0.00    +0.195 C 
ATOM      2  C   UNL     1       1.117   5.338  -4.474  0.00  0.00    +0.267 C 
ATOM      3  O   UNL     1       1.269   4.396  -5.314  0.00  0.00    -0.271 OA
ATOM      4  N   UNL     1       0.426   4.726  -3.447  0.00  0.00    -0.172 NA
ATOM      5  C   UNL     1      -0.611   5.388  -2.815  0.00  0.00    +0.145 C 
ATOM      6  C   UNL     1      -1.809   4.906  -2.477  0.00  0.00    +0.112 C 
ATOM      7  C   UNL     1      -0.125   6.745  -2.574  0.00  0.00    +0.282 C 
ATOM      8  O   UNL     1      -0.979   7.566  -2.106  0.00  0.00    -0.267 OA
ATOM      9  N   UNL     1       0.940   6.437  -1.905  0.00  0.00    -0.189 NA
ATOM     10  C   UNL     1       2.305   5.799  -1.877  0.00  0.00    +0.210 C 
ATOM     11  C   UNL     1       2.129   4.440  -1.026  0.00  0.00    +0.265 C 
ATOM     12  O   UNL     1       1.406   4.421  -0.065  0.00  0.00    -0.271 OA
ATOM     13  N   UNL     1       3.410   3.807  -1.198  0.00  0.00    -0.202 NA
ATOM     14  C   UNL     1       4.599   4.393  -1.816  0.00  0.00    +0.144 C 
ATOM     15  CA  UNL     1       4.022   5.113  -3.178  0.00  0.00    +0.191 C 
ATOM     16  N   UNL     1       3.745   3.677  -3.795  0.00  0.00    -0.121 NA
ATOM     17  C   UNL     1       5.402   5.323  -3.977  0.00  0.00    +0.261 C 
ATOM     18  O   UNL     1       6.464   5.004  -3.426  0.00  0.00    -0.272 OA
ATOM     19  N   UNL     1       5.223   6.648  -4.379  0.00  0.00    -0.194 NA
ATOM     20  CA  UNL     1       4.205   7.082  -5.512  0.00  0.00    +0.205 C 
ATOM     21  C   UNL     1       3.004   7.295  -4.508  0.00  0.00    +0.264 C 
ATOM     22  O   UNL     1       3.340   8.362  -3.883  0.00  0.00    -0.271 OA
ATOM     23  N   UNL     1       2.185   7.219  -5.630  0.00  0.00    -0.194 NA
ENDROOT
BRANCH  10  24
ATOM     24  C   UNL     1       2.851   6.560  -0.420  0.00  0.00    +0.202 C 
ATOM     25  N   UNL     1       1.947   7.829  -0.467  0.00  0.00    -0.062 NA
ATOM     26  C   UNL     1       2.447   8.885   0.322  0.00  0.00    +0.473 C 
ATOM     27  N   UNL     1       1.614   9.910   0.852  0.00  0.00    +0.147 NA
ATOM     28  N   UNL     1       3.589   8.684   0.886  0.00  0.00    -0.094 NA
ATOM     29  C   UNL     1       4.651   8.098   0.089  0.00  0.00    +0.223 C 
ATOM     30  C   UNL     1       4.112   7.328  -1.109  0.00  0.00    +0.090 C 
ENDBRANCH  10  24
BRANCH   6  31
ATOM     31  N   UNL     1      -2.797   5.853  -2.108  0.00  0.00    -0.157 NA
ATOM     32  C   UNL     1      -3.724   6.174  -3.128  0.00  0.00    +0.363 C 
ATOM     33  O   UNL     1      -3.279   6.205  -4.313  0.00  0.00    -0.247 OA
ATOM     34  N   UNL     1      -4.904   6.823  -2.707  0.00  0.00    -0.068 NA
ENDBRANCH   6  31
BRANCH  20  35
ATOM     35  C   UNL     1       3.985   5.556  -6.078  0.00  0.00    +0.213 C 
ATOM     36  O   UNL     1       4.577   5.643  -7.308  0.00  0.00    -0.218 OA
ENDBRANCH  20  35
BRANCH   1  37
ATOM     37  C   UNL     1       0.249   6.271  -6.471  0.00  0.00    +0.146 C 
BRANCH  37  39
ATOM     38  C   UNL     1       1.117   5.981  -8.712  0.00  0.00    +0.243 C 
ATOM     39  N   UNL     1       1.070   6.739  -7.506  0.00  0.00    -0.203 NA
ATOM     40  O   UNL     1       1.442   4.783  -8.591  0.00  0.00    -0.273 OA
BRANCH  38  41
ATOM     41  C   UNL     1       1.058   6.581 -10.070  0.00  0.00    +0.106 C 
BRANCH  41  42
ATOM     42  C   UNL     1       1.903   5.522 -11.000  0.00  0.00    +0.101 C 
ATOM     43  N   UNL     1       1.479   6.255 -12.326  0.00  0.00    -0.132 NA
BRANCH  42  44
ATOM     44  C   UNL     1       3.286   6.401 -10.895  0.00  0.00    +0.021 C 
BRANCH  44  45
ATOM     45  C   UNL     1       4.346   5.342 -10.978  0.00  0.00    +0.022 C 
BRANCH  45  47
ATOM     46  N   UNL     1       5.016   4.842 -13.105  0.00  0.00    -0.131 NA
ATOM     47  C   UNL     1       5.177   5.509 -12.234  0.00  0.00    +0.109 C 
ENDBRANCH  45  47
ENDBRANCH  44  45
ENDBRANCH  42  44
ENDBRANCH  41  42
ENDBRANCH  38  41
ENDBRANCH  37  39
ENDBRANCH   1  37
TORSDOF 10
ENDMDL
MODEL 2
REMARK VINA RESULT:      -2.7      2.710      4.520
REMARK  Name = 
REMARK  10 active torsions:
REMARK  status: ('A' for Active; 'I' for Inactive)
REMARK    1  A    between atoms: C_2  and  C_3
REMARK    2  A    between atoms: C_3  and  C_4
REMARK    3  A    between atoms: C_4  and  C_5
REMARK    4  A    between atoms: C_5  and  C_7
REMARK    5  A    between atoms: C_7  and  C_8
REMARK    6  A    between atoms: N_10  and  C_11
REMARK    7  A    between atoms: C_11  and  C_12
REMARK    8  A    between atoms: CA_16  and  C_17
REMARK    9  A    between atoms: C_28  and  C_29
REMARK   10  A    between atoms: C_40  and  N_41
REMARK                            x       y       z     vdW  Elec       q    Type
REMARK                         _______ _______ _______ _____ _____    ______ ____
ROOT
ATOM      1  C   UNL     1       0.214   6.994  -1.364  0.00  0.00    +0.195 C 
ATOM      2  C   UNL     1       1.127   6.166  -0.340  0.00  0.00    +0.267 C 
ATOM      3  O   UNL     1       1.154   4.897  -0.429  0.00  0.00    -0.271 OA
ATOM      4  N   UNL     1       1.172   6.378   1.023  0.00  0.00    -0.172 NA
ATOM      5  C   UNL     1       0.381   7.357   1.601  0.00  0.00    +0.145 C 
ATOM      6  C   UNL     1      -0.348   7.272   2.715  0.00  0.00    +0.112 C 
ATOM      7  C   UNL     1       0.511   8.529   0.739  0.00  0.00    +0.282 C 
ATOM      8  O   UNL     1      -0.242   9.515   1.025  0.00  0.00    -0.267 OA
ATOM      9  N   UNL     1       1.801   8.641   0.782  0.00  0.00    -0.189 NA
ATOM     10  C   UNL     1       3.155   8.074   0.443  0.00  0.00    +0.210 C 
ATOM     11  C   UNL     1       3.773   7.563   1.842  0.00  0.00    +0.265 C 
ATOM     12  O   UNL     1       3.591   8.198   2.848  0.00  0.00    -0.271 OA
ATOM     13  N   UNL     1       4.967   6.881   1.416  0.00  0.00    -0.202 NA
ATOM     14  C   UNL     1       5.534   6.872   0.068  0.00  0.00    +0.144 C 
ATOM     15  CA  UNL     1       4.233   6.614  -0.906  0.00  0.00    +0.191 C 
ATOM     16  N   UNL     1       4.137   5.130  -0.351  0.00  0.00    -0.121 NA
ATOM     17  C   UNL     1       4.991   6.187  -2.259  0.00  0.00    +0.261 C 
ATOM     18  O   UNL     1       6.228   6.216  -2.283  0.00  0.00    -0.272 OA
ATOM     19  N   UNL     1       4.280   6.976  -3.166  0.00  0.00    -0.194 NA
ATOM     20  CA  UNL     1       2.790   6.669  -3.602  0.00  0.00    +0.205 C 
ATOM     21  C   UNL     1       2.153   7.541  -2.449  0.00  0.00    +0.264 C 
ATOM     22  O   UNL     1       2.409   8.740  -2.823  0.00  0.00    -0.271 OA
ATOM     23  N   UNL     1       0.983   6.832  -2.696  0.00  0.00    -0.194 NA
ENDROOT
BRANCH  10  24
ATOM     24  C   UNL     1       4.047   9.543   0.664  0.00  0.00    +0.202 C 
ATOM     25  N   UNL     1       3.152  10.195   1.760  0.00  0.00    -0.062 NA
ATOM     26  C   UNL     1       3.327  11.592   1.849  0.00  0.00    +0.473 C 
ATOM     27  N   UNL     1       3.051  12.328   3.035  0.00  0.00    +0.147 NA
ATOM     28  N   UNL     1       4.117  12.123   0.979  0.00  0.00    -0.094 NA
ATOM     29  C   UNL     1       3.981  11.714  -0.407  0.00  0.00    +0.223 C 
ATOM     30  C   UNL     1       3.310  10.355  -0.542  0.00  0.00    +0.090 C 
ENDBRANCH  10  24
BRANCH   6  31
ATOM     31  N   UNL     1      -1.295   8.302   2.938  0.00  0.00    -0.157 NA
ATOM     32  C   UNL     1      -2.615   7.855   3.185  0.00  0.00    +0.363 C 
ATOM     33  O   UNL     1      -2.993   6.821   2.560  0.00  0.00    -0.247 OA
ATOM     34  N   UNL     1      -3.493   8.804   3.750  0.00  0.00    -0.068 NA
ENDBRANCH   6  31
BRANCH  20  35
ATOM     35  C   UNL     1       2.790   5.143  -2.993  0.00  0.00    +0.213 C 
ATOM     36  O   UNL     1       2.999   4.407  -4.127  0.00  0.00    -0.218 OA
ENDBRANCH  20  35
BRANCH   1  37
ATOM     37  C   UNL     1      -0.763   5.695  -1.688  0.00  0.00    +0.146 C 
BRANCH  37  39
ATOM     38  C   UNL     1      -1.796   5.496  -3.868  0.00  0.00    +0.243 C 
ATOM     39  N   UNL     1      -0.646   5.346  -3.041  0.00  0.00    -0.203 NA
ATOM     40  O   UNL     1      -2.821   4.893  -3.492  0.00  0.00    -0.273 OA
BRANCH  38  41
ATOM     41  C   UNL     1      -1.766   6.090  -5.230  0.00  0.00    +0.106 C 
BRANCH  41  42
ATOM     42  C   UNL     1      -0.537   5.294  -5.975  0.00  0.00    +0.101 C 
ATOM     43  N   UNL     1      -1.231   5.416  -7.382  0.00  0.00    -0.132 NA
BRANCH  42  44
ATOM     44  C   UNL     1       0.321   6.673  -6.221  0.00  0.00    +0.021 C 
BRANCH  44  45
ATOM     45  C   UNL     1       1.478   6.188  -7.043  0.00  0.00    +0.022 C 
BRANCH  45  47
ATOM     46  N   UNL     1       2.141   8.191  -7.924  0.00  0.00    -0.131 NA
ATOM     47  C   UNL     1       2.453   7.315  -7.319  0.00  0.00    +0.109 C 
ENDBRANCH  45  47
ENDBRANCH  44  45
ENDBRANCH  42  44
ENDBRANCH  41  42
ENDBRANCH  38  41
ENDBRANCH  37  39
ENDBRANCH   1  37
TORSDOF 10
ENDMDL
MODEL 3
REMARK VINA RESULT:      -2.5      2.197      2.814
REMARK  Name = 
REMARK  10 active torsions:
REMARK  status: ('A' for Active; 'I' for Inactive)
REMARK    1  A    between atoms: C_2  and  C_3
REMARK    2  A    between atoms: C_3  and  C_4
REMARK    3  A    between atoms: C_4  and  C_5
REMARK    4  A    between atoms: C_5  and  C_7
REMARK    5  A    between atoms: C_7  and  C_8
REMARK    6  A    between atoms: N_10  and  C_11
REMARK    7  A    between atoms: C_11  and  C_12
REMARK    8  A    between atoms: CA_16  and  C_17
REMARK    9  A    between atoms: C_28  and  C_29
REMARK   10  A    between atoms: C_40  and  N_41
REMARK                            x       y       z     vdW  Elec       q    Type
REMARK                         _______ _______ _______ _____ _____    ______ ____
ROOT
ATOM      1  C   UNL     1       2.434   7.462  -4.848  0.00  0.00    +0.195 C 
ATOM      2  C   UNL     1       2.548   5.913  -4.454  0.00  0.00    +0.267 C 
ATOM      3  O   UNL     1       3.412   5.191  -5.044  0.00  0.00    -0.271 OA
ATOM      4  N   UNL     1       1.475   5.057  -4.315  0.00  0.00    -0.172 NA
ATOM      5  C   UNL     1       0.187   5.514  -4.534  0.00  0.00    +0.145 C 
ATOM      6  C   UNL     1      -0.792   4.916  -5.215  0.00  0.00    +0.112 C 
ATOM      7  C   UNL     1       0.103   6.802  -3.850  0.00  0.00    +0.282 C 
ATOM      8  O   UNL     1      -0.972   7.459  -4.031  0.00  0.00    -0.267 OA
ATOM      9  N   UNL     1       0.447   6.400  -2.668  0.00  0.00    -0.189 NA
ATOM     10  C   UNL     1       1.505   5.832  -1.757  0.00  0.00    +0.210 C 
ATOM     11  C   UNL     1       1.055   4.311  -1.467  0.00  0.00    +0.265 C 
ATOM     12  O   UNL     1      -0.109   4.045  -1.321  0.00  0.00    -0.271 OA
ATOM     13  N   UNL     1       2.191   3.790  -0.752  0.00  0.00    -0.202 NA
ATOM     14  C   UNL     1       3.337   4.551  -0.257  0.00  0.00    +0.144 C 
ATOM     15  CA  UNL     1       3.734   5.532  -1.518  0.00  0.00    +0.191 C 
ATOM     16  N   UNL     1       4.238   4.260  -2.323  0.00  0.00    -0.121 NA
ATOM     17  C   UNL     1       5.210   5.976  -1.059  0.00  0.00    +0.261 C 
ATOM     18  O   UNL     1       5.634   5.589   0.037  0.00  0.00    -0.272 OA
ATOM     19  N   UNL     1       5.109   7.349  -1.297  0.00  0.00    -0.194 NA
ATOM     20  CA  UNL     1       5.093   7.980  -2.748  0.00  0.00    +0.205 C 
ATOM     21  C   UNL     1       3.521   7.910  -2.885  0.00  0.00    +0.264 C 
ATOM     22  O   UNL     1       3.123   8.823  -2.079  0.00  0.00    -0.271 OA
ATOM     23  N   UNL     1       3.734   8.050  -4.252  0.00  0.00    -0.194 NA
ENDROOT
BRANCH  10  24
ATOM     24  C   UNL     1       0.740   6.270  -0.266  0.00  0.00    +0.202 C 
ATOM     25  N   UNL     1      -0.290   7.297  -0.826  0.00  0.00    -0.062 NA
ATOM     26  C   UNL     1      -0.770   8.183   0.160  0.00  0.00    +0.473 C 
ATOM     27  N   UNL     1      -2.029   8.840   0.058  0.00  0.00    +0.147 NA
ATOM     28  N   UNL     1      -0.242   8.073   1.331  0.00  0.00    -0.094 NA
ATOM     29  C   UNL     1       1.202   7.947   1.420  0.00  0.00    +0.223 C 
ATOM     30  C   UNL     1       1.814   7.432   0.124  0.00  0.00    +0.090 C 
ENDBRANCH  10  24
BRANCH   6  31
ATOM     31  N   UNL     1      -1.918   5.712  -5.545  0.00  0.00    -0.157 NA
ATOM     32  C   UNL     1      -2.319   5.644  -6.900  0.00  0.00    +0.363 C 
ATOM     33  O   UNL     1      -1.398   5.525  -7.761  0.00  0.00    -0.247 OA
ATOM     34  N   UNL     1      -3.614   6.127  -7.186  0.00  0.00    -0.068 NA
ENDBRANCH   6  31
BRANCH  20  35
ATOM     35  C   UNL     1       5.619   6.611  -3.489  0.00  0.00    +0.213 C 
ATOM     36  O   UNL     1       6.508   7.125  -4.392  0.00  0.00    -0.218 OA
ENDBRANCH  20  35
BRANCH   1  37
ATOM     37  C   UNL     1       3.137   7.231  -6.332  0.00  0.00    +0.146 C 
BRANCH  37  39
ATOM     38  C   UNL     1       2.439   7.100  -8.646  0.00  0.00    +0.243 C 
ATOM     39  N   UNL     1       2.251   7.637  -7.340  0.00  0.00    -0.203 NA
ATOM     40  O   UNL     1       3.566   7.277  -9.151  0.00  0.00    -0.273 OA
BRANCH  38  41
ATOM     41  C   UNL     1       1.333   6.597  -9.503  0.00  0.00    +0.106 C 
BRANCH  41  42
ATOM     42  C   UNL     1       1.952   5.231 -10.174  0.00  0.00    +0.101 C 
ATOM     43  N   UNL     1       1.853   4.446  -8.815  0.00  0.00    -0.132 NA
BRANCH  42  44
ATOM     44  C   UNL     1       0.476   4.694 -10.652  0.00  0.00    +0.021 C 
BRANCH  44  45
ATOM     45  C   UNL     1       0.219   5.514 -11.882  0.00  0.00    +0.022 C 
BRANCH  45  47
ATOM     46  N   UNL     1       0.762   4.804 -13.986  0.00  0.00    -0.131 NA
ATOM     47  C   UNL     1       1.162   5.118 -13.000  0.00  0.00    +0.109 C 
ENDBRANCH  45  47
ENDBRANCH  44  45
ENDBRANCH  42  44
ENDBRANCH  41  42
ENDBRANCH  38  41
ENDBRANCH  37  39
ENDBRANCH   1  37
TORSDOF 10
ENDMDL
MODEL 4
REMARK VINA RESULT:      -1.7      2.051      2.896
REMARK  Name = 
REMARK  10 active torsions:
REMARK  status: ('A' for Active; 'I' for Inactive)
REMARK    1  A    between atoms: C_2  and  C_3
REMARK    2  A    between atoms: C_3  and  C_4
REMARK    3  A    between atoms: C_4  and  C_5
REMARK    4  A    between atoms: C_5  and  C_7
REMARK    5  A    between atoms: C_7  and  C_8
REMARK    6  A    between atoms: N_10  and  C_11
REMARK    7  A    between atoms: C_11  and  C_12
REMARK    8  A    between atoms: CA_16  and  C_17
REMARK    9  A    between atoms: C_28  and  C_29
REMARK   10  A    between atoms: C_40  and  N_41
REMARK                            x       y       z     vdW  Elec       q    Type
REMARK                         _______ _______ _______ _____ _____    ______ ____
ROOT
ATOM      1  C   UNL     1       2.987   7.381  -5.014  0.00  0.00    +0.195 C 
ATOM      2  C   UNL     1       2.990   5.852  -4.533  0.00  0.00    +0.267 C 
ATOM      3  O   UNL     1       3.924   5.085  -4.930  0.00  0.00    -0.271 OA
ATOM      4  N   UNL     1       1.887   5.023  -4.544  0.00  0.00    -0.172 NA
ATOM      5  C   UNL     1       0.669   5.490  -5.006  0.00  0.00    +0.145 C 
ATOM      6  C   UNL     1      -0.192   4.876  -5.819  0.00  0.00    +0.112 C 
ATOM      7  C   UNL     1       0.502   6.813  -4.408  0.00  0.00    +0.282 C 
ATOM      8  O   UNL     1      -0.508   7.479  -4.805  0.00  0.00    -0.267 OA
ATOM      9  N   UNL     1       0.625   6.465  -3.167  0.00  0.00    -0.189 NA
ATOM     10  C   UNL     1       1.493   5.926  -2.060  0.00  0.00    +0.210 C 
ATOM     11  C   UNL     1       0.960   4.429  -1.782  0.00  0.00    +0.265 C 
ATOM     12  O   UNL     1      -0.218   4.192  -1.829  0.00  0.00    -0.271 OA
ATOM     13  N   UNL     1       1.940   3.925  -0.856  0.00  0.00    -0.202 NA
ATOM     14  C   UNL     1       3.003   4.690  -0.205  0.00  0.00    +0.144 C 
ATOM     15  CA  UNL     1       3.638   5.599  -1.421  0.00  0.00    +0.191 C 
ATOM     16  N   UNL     1       4.240   4.279  -2.065  0.00  0.00    -0.121 NA
ATOM     17  C   UNL     1       5.023   6.040  -0.733  0.00  0.00    +0.261 C 
ATOM     18  O   UNL     1       5.240   5.701   0.438  0.00  0.00    -0.272 OA
ATOM     19  N   UNL     1       5.000   7.400  -1.048  0.00  0.00    -0.194 NA
ATOM     20  CA  UNL     1       5.254   7.957  -2.508  0.00  0.00    +0.205 C 
ATOM     21  C   UNL     1       3.727   7.908  -2.914  0.00  0.00    +0.264 C 
ATOM     22  O   UNL     1       3.220   8.867  -2.234  0.00  0.00    -0.271 OA
ATOM     23  N   UNL     1       4.178   7.975  -4.228  0.00  0.00    -0.194 NA
ENDROOT
BRANCH  10  24
ATOM     24  C   UNL     1       0.492   6.452  -0.747  0.00  0.00    +0.202 C 
ATOM     25  N   UNL     1      -0.767   6.866  -1.567  0.00  0.00    -0.062 NA
ATOM     26  C   UNL     1      -1.605   7.759  -0.867  0.00  0.00    +0.473 C 
ATOM     27  N   UNL     1      -2.996   7.883  -1.141  0.00  0.00    +0.147 NA
ATOM     28  N   UNL     1      -1.179   8.157   0.283  0.00  0.00    -0.094 NA
ATOM     29  C   UNL     1       0.208   8.571   0.392  0.00  0.00    +0.223 C 
ATOM     30  C   UNL     1       1.073   7.974  -0.710  0.00  0.00    +0.090 C 
ENDBRANCH  10  24
BRANCH   6  31
ATOM     31  N   UNL     1      -1.222   5.674  -6.377  0.00  0.00    -0.157 NA
ATOM     32  C   UNL     1      -2.429   5.691  -5.638  0.00  0.00    +0.363 C 
ATOM     33  O   UNL     1      -2.756   4.616  -5.056  0.00  0.00    -0.247 OA
ATOM     34  N   UNL     1      -3.335   6.726  -5.958  0.00  0.00    -0.068 NA
ENDBRANCH   6  31
BRANCH  20  35
ATOM     35  C   UNL     1       5.864   6.544  -3.081  0.00  0.00    +0.213 C 
ATOM     36  O   UNL     1       7.079   6.955  -3.556  0.00  0.00    -0.218 OA
ENDBRANCH  20  35
BRANCH   1  37
ATOM     37  C   UNL     1       3.930   7.062  -6.339  0.00  0.00    +0.146 C 
BRANCH  37  39
ATOM     38  C   UNL     1       2.683   7.382  -8.389  0.00  0.00    +0.243 C 
ATOM     39  N   UNL     1       3.139   6.512  -7.358  0.00  0.00    -0.203 NA
ATOM     40  O   UNL     1       2.034   8.379  -8.014  0.00  0.00    -0.273 OA
BRANCH  38  41
ATOM     41  C   UNL     1       2.710   7.040  -9.835  0.00  0.00    +0.106 C 
BRANCH  41  42
ATOM     42  C   UNL     1       2.856   5.404  -9.846  0.00  0.00    +0.101 C 
ATOM     43  N   UNL     1       1.728   5.250 -10.931  0.00  0.00    -0.132 NA
BRANCH  42  44
ATOM     44  C   UNL     1       4.030   5.430 -10.994  0.00  0.00    +0.021 C 
BRANCH  44  45
ATOM     45  C   UNL     1       5.281   5.523 -10.172  0.00  0.00    +0.022 C 
BRANCH  45  47
ATOM     46  N   UNL     1       6.854   5.357 -11.822  0.00  0.00    -0.131 NA
ATOM     47  C   UNL     1       6.446   6.000 -11.015  0.00  0.00    +0.109 C 
ENDBRANCH  45  47
ENDBRANCH  44  45
ENDBRANCH  42  44
ENDBRANCH  41  42
ENDBRANCH  38  41
ENDBRANCH  37  39
ENDBRANCH   1  37
TORSDOF 10
ENDMDL
MODEL 5
REMARK VINA RESULT:      -1.6      2.761      4.090
REMARK  Name = 
REMARK  10 active torsions:
REMARK  status: ('A' for Active; 'I' for Inactive)
REMARK    1  A    between atoms: C_2  and  C_3
REMARK    2  A    between atoms: C_3  and  C_4
REMARK    3  A    between atoms: C_4  and  C_5
REMARK    4  A    between atoms: C_5  and  C_7
REMARK    5  A    between atoms: C_7  and  C_8
REMARK    6  A    between atoms: N_10  and  C_11
REMARK    7  A    between atoms: C_11  and  C_12
REMARK    8  A    between atoms: CA_16  and  C_17
REMARK    9  A    between atoms: C_28  and  C_29
REMARK   10  A    between atoms: C_40  and  N_41
REMARK                            x       y       z     vdW  Elec       q    Type
REMARK                         _______ _______ _______ _____ _____    ______ ____
ROOT
ATOM      1  C   UNL     1       0.600   7.110  -8.384  0.00  0.00    +0.195 C 
ATOM      2  C   UNL     1       0.837   5.562  -8.045  0.00  0.00    +0.267 C 
ATOM      3  O   UNL     1       0.655   4.698  -8.960  0.00  0.00    -0.271 OA
ATOM      4  N   UNL     1       0.359   4.922  -6.919  0.00  0.00    -0.172 NA
ATOM      5  C   UNL     1      -0.396   5.618  -5.991  0.00  0.00    +0.145 C 
ATOM      6  C   UNL     1      -1.519   5.227  -5.386  0.00  0.00    +0.112 C 
ATOM      7  C   UNL     1       0.298   6.888  -5.791  0.00  0.00    +0.282 C 
ATOM      8  O   UNL     1      -0.303   7.740  -5.059  0.00  0.00    -0.267 OA
ATOM      9  N   UNL     1       1.452   6.411  -5.449  0.00  0.00    -0.189 NA
ATOM     10  C   UNL     1       2.690   5.639  -5.826  0.00  0.00    +0.210 C 
ATOM     11  C   UNL     1       2.570   4.226  -5.057  0.00  0.00    +0.265 C 
ATOM     12  O   UNL     1       2.117   4.184  -3.944  0.00  0.00    -0.271 OA
ATOM     13  N   UNL     1       3.679   3.489  -5.604  0.00  0.00    -0.202 NA
ATOM     14  C   UNL     1       4.735   4.012  -6.469  0.00  0.00    +0.144 C 
ATOM     15  CA  UNL     1       3.925   4.919  -7.578  0.00  0.00    +0.191 C 
ATOM     16  N   UNL     1       3.327   3.587  -8.200  0.00  0.00    -0.121 NA
ATOM     17  C   UNL     1       5.073   5.068  -8.694  0.00  0.00    +0.261 C 
ATOM     18  O   UNL     1       6.192   4.591  -8.465  0.00  0.00    -0.272 OA
ATOM     19  N   UNL     1       4.962   6.439  -8.940  0.00  0.00    -0.194 NA
ATOM     20  CA  UNL     1       3.752   7.083  -9.731  0.00  0.00    +0.205 C 
ATOM     21  C   UNL     1       2.879   7.314  -8.435  0.00  0.00    +0.264 C 
ATOM     22  O   UNL     1       3.490   8.274  -7.846  0.00  0.00    -0.271 OA
ATOM     23  N   UNL     1       1.800   7.433  -9.305  0.00  0.00    -0.194 NA
ENDROOT
BRANCH  10  24
ATOM     24  C   UNL     1       3.676   6.192  -4.513  0.00  0.00    +0.202 C 
ATOM     25  N   UNL     1       2.566   6.880  -3.662  0.00  0.00    -0.062 NA
ATOM     26  C   UNL     1       3.083   7.825  -2.752  0.00  0.00    +0.473 C 
ATOM     27  N   UNL     1       2.400   8.198  -1.560  0.00  0.00    +0.147 NA
ATOM     28  N   UNL     1       4.353   8.037  -2.810  0.00  0.00    -0.094 NA
ATOM     29  C   UNL     1       4.957   8.209  -4.119  0.00  0.00    +0.223 C 
ATOM     30  C   UNL     1       4.115   7.589  -5.226  0.00  0.00    +0.090 C 
ENDBRANCH  10  24
BRANCH   6  31
ATOM     31  N   UNL     1      -2.257   6.226  -4.704  0.00  0.00    -0.157 NA
ATOM     32  C   UNL     1      -2.614   5.901  -3.374  0.00  0.00    +0.363 C 
ATOM     33  O   UNL     1      -2.892   4.688  -3.139  0.00  0.00    -0.247 OA
ATOM     34  N   UNL     1      -3.028   6.980  -2.564  0.00  0.00    -0.068 NA
ENDBRANCH   6  31
BRANCH  20  35
ATOM     35  C   UNL     1       3.211   5.652 -10.327  0.00  0.00    +0.213 C 
ATOM     36  O   UNL     1       3.460   5.810 -11.662  0.00  0.00    -0.218 OA
ENDBRANCH  20  35
BRANCH   1  37
ATOM     37  C   UNL     1      -0.387   6.773  -9.672  0.00  0.00    +0.146 C 
BRANCH  37  39
ATOM     38  C   UNL     1      -0.015   6.379 -12.032  0.00  0.00    +0.243 C 
ATOM     39  N   UNL     1       0.249   7.150 -10.863  0.00  0.00    -0.203 NA
ATOM     40  O   UNL     1       0.219   5.157 -11.943  0.00  0.00    -0.273 OA
BRANCH  38  41
ATOM     41  C   UNL     1      -0.291   6.967 -13.369  0.00  0.00    +0.106 C 
BRANCH  41  42
ATOM     42  C   UNL     1       1.165   6.908 -14.128  0.00  0.00    +0.101 C 
ATOM     43  N   UNL     1       0.714   5.699 -15.028  0.00  0.00    -0.132 NA
BRANCH  42  44
ATOM     44  C   UNL     1       0.709   7.997 -15.270  0.00  0.00    +0.021 C 
BRANCH  44  45
ATOM     45  C   UNL     1      -0.268   7.209 -16.092  0.00  0.00    +0.022 C 
BRANCH  45  47
ATOM     46  N   UNL     1       0.785   7.316 -18.117  0.00  0.00    -0.131 NA
ATOM     47  C   UNL     1      -0.143   7.559 -17.561  0.00  0.00    +0.109 C 
ENDBRANCH  45  47
ENDBRANCH  44  45
ENDBRANCH  42  44
ENDBRANCH  41  42
ENDBRANCH  38  41
ENDBRANCH  37  39
ENDBRANCH   1  37
TORSDOF 10
ENDMDL
MODEL 6
REMARK VINA RESULT:      -1.4      2.277      8.236
REMARK  Name = 
REMARK  10 active torsions:
REMARK  status: ('A' for Active; 'I' for Inactive)
REMARK    1  A    between atoms: C_2  and  C_3
REMARK    2  A    between atoms: C_3  and  C_4
REMARK    3  A    between atoms: C_4  and  C_5
REMARK    4  A    between atoms: C_5  and  C_7
REMARK    5  A    between atoms: C_7  and  C_8
REMARK    6  A    between atoms: N_10  and  C_11
REMARK    7  A    between atoms: C_11  and  C_12
REMARK    8  A    between atoms: CA_16  and  C_17
REMARK    9  A    between atoms: C_28  and  C_29
REMARK   10  A    between atoms: C_40  and  N_41
REMARK                            x       y       z     vdW  Elec       q    Type
REMARK                         _______ _______ _______ _____ _____    ______ ____
ROOT
ATOM      1  C   UNL     1       0.233   7.187  -2.146  0.00  0.00    +0.195 C 
ATOM      2  C   UNL     1       0.729   5.717  -2.546  0.00  0.00    +0.267 C 
ATOM      3  O   UNL     1       0.094   4.710  -2.098  0.00  0.00    -0.271 OA
ATOM      4  N   UNL     1       2.042   5.293  -2.508  0.00  0.00    -0.172 NA
ATOM      5  C   UNL     1       3.040   6.155  -2.087  0.00  0.00    +0.145 C 
ATOM      6  C   UNL     1       4.051   5.899  -1.256  0.00  0.00    +0.112 C 
ATOM      7  C   UNL     1       2.770   7.426  -2.756  0.00  0.00    +0.282 C 
ATOM      8  O   UNL     1       3.507   8.405  -2.407  0.00  0.00    -0.267 OA
ATOM      9  N   UNL     1       2.772   6.992  -3.976  0.00  0.00    -0.189 NA
ATOM     10  C   UNL     1       2.130   6.140  -5.041  0.00  0.00    +0.210 C 
ATOM     11  C   UNL     1       3.123   4.886  -5.248  0.00  0.00    +0.265 C 
ATOM     12  O   UNL     1       4.314   5.047  -5.204  0.00  0.00    -0.271 OA
ATOM     13  N   UNL     1       2.363   4.041  -6.132  0.00  0.00    -0.202 NA
ATOM     14  C   UNL     1       1.112   4.384  -6.808  0.00  0.00    +0.144 C 
ATOM     15  CA  UNL     1       0.212   5.100  -5.632  0.00  0.00    +0.191 C 
ATOM     16  N   UNL     1       0.069   3.693  -4.912  0.00  0.00    -0.121 NA
ATOM     17  C   UNL     1      -1.239   5.029  -6.323  0.00  0.00    +0.261 C 
ATOM     18  O   UNL     1      -1.330   4.576  -7.472  0.00  0.00    -0.272 OA
ATOM     19  N   UNL     1      -1.662   6.338  -6.079  0.00  0.00    -0.194 NA
ATOM     20  CA  UNL     1      -2.088   6.860  -4.647  0.00  0.00    +0.205 C 
ATOM     21  C   UNL     1      -0.630   7.331  -4.260  0.00  0.00    +0.264 C 
ATOM     22  O   UNL     1      -0.460   8.366  -4.996  0.00  0.00    -0.271 OA
ATOM     23  N   UNL     1      -1.084   7.319  -2.946  0.00  0.00    -0.194 NA
ENDROOT
BRANCH  10  24
ATOM     24  C   UNL     1       2.911   6.892  -6.393  0.00  0.00    +0.202 C 
ATOM     25  N   UNL     1       1.705   6.901  -7.381  0.00  0.00    -0.062 NA
ATOM     26  C   UNL     1       2.104   7.028  -8.728  0.00  0.00    +0.473 C 
ATOM     27  N   UNL     1       1.251   7.560  -9.736  0.00  0.00    +0.147 NA
ATOM     28  N   UNL     1       3.374   7.035  -8.948  0.00  0.00    -0.094 NA
ATOM     29  C   UNL     1       4.191   6.046  -8.267  0.00  0.00    +0.223 C 
ATOM     30  C   UNL     1       3.516   5.512  -7.011  0.00  0.00    +0.090 C 
ENDBRANCH  10  24
BRANCH   6  31
ATOM     31  N   UNL     1       4.763   7.017  -0.754  0.00  0.00    -0.157 NA
ATOM     32  C   UNL     1       4.722   7.167   0.653  0.00  0.00    +0.363 C 
ATOM     33  O   UNL     1       3.644   6.837   1.230  0.00  0.00    -0.247 OA
ATOM     34  N   UNL     1       5.685   8.035   1.210  0.00  0.00    -0.068 NA
ENDBRANCH   6  31
BRANCH  20  35
ATOM     35  C   UNL     1      -2.208   5.358  -3.994  0.00  0.00    +0.213 C 
ATOM     36  O   UNL     1      -3.521   5.341  -3.611  0.00  0.00    -0.218 OA
ENDBRANCH  20  35
BRANCH   1  37
ATOM     37  C   UNL     1      -0.561   6.651  -0.793  0.00  0.00    +0.146 C 
BRANCH  37  39
ATOM     38  C   UNL     1      -0.797   7.492   1.465  0.00  0.00    +0.243 C 
ATOM     39  N   UNL     1      -0.817   7.733   0.061  0.00  0.00    -0.203 NA
ATOM     40  O   UNL     1      -1.565   6.599   1.876  0.00  0.00    -0.273 OA
BRANCH  38  41
ATOM     41  C   UNL     1      -0.134   8.385   2.450  0.00  0.00    +0.106 C 
BRANCH  41  42
ATOM     42  C   UNL     1      -0.193   9.864   1.737  0.00  0.00    +0.101 C 
ATOM     43  N   UNL     1      -0.536  10.574   3.098  0.00  0.00    -0.132 NA
BRANCH  42  44
ATOM     44  C   UNL     1       1.415  10.124   1.946  0.00  0.00    +0.021 C 
BRANCH  44  45
ATOM     45  C   UNL     1       1.963   9.867   0.573  0.00  0.00    +0.022 C 
BRANCH  45  47
ATOM     46  N   UNL     1       3.335  11.318  -0.539  0.00  0.00    -0.131 NA
ATOM     47  C   UNL     1       3.237  10.655   0.345  0.00  0.00    +0.109 C 
ENDBRANCH  45  47
ENDBRANCH  44  45
ENDBRANCH  42  44
ENDBRANCH  41  42
ENDBRANCH  38  41
ENDBRANCH  37  39
ENDBRANCH   1  37
TORSDOF 10
ENDMDL
MODEL 7
REMARK VINA RESULT:      -1.2      2.500      6.237
REMARK  Name = 
REMARK  10 active torsions:
REMARK  status: ('A' for Active; 'I' for Inactive)
REMARK    1  A    between atoms: C_2  and  C_3
REMARK    2  A    between atoms: C_3  and  C_4
REMARK    3  A    between atoms: C_4  and  C_5
REMARK    4  A    between atoms: C_5  and  C_7
REMARK    5  A    between atoms: C_7  and  C_8
REMARK    6  A    between atoms: N_10  and  C_11
REMARK    7  A    between atoms: C_11  and  C_12
REMARK    8  A    between atoms: CA_16  and  C_17
REMARK    9  A    between atoms: C_28  and  C_29
REMARK   10  A    between atoms: C_40  and  N_41
REMARK                            x       y       z     vdW  Elec       q    Type
REMARK                         _______ _______ _______ _____ _____    ______ ____
ROOT
ATOM      1  C   UNL     1       1.463   4.922  -8.503  0.00  0.00    +0.195 C 
ATOM      2  C   UNL     1       1.758   6.408  -7.980  0.00  0.00    +0.267 C 
ATOM      3  O   UNL     1       0.976   7.348  -8.328  0.00  0.00    -0.271 OA
ATOM      4  N   UNL     1       2.997   7.016  -7.998  0.00  0.00    -0.172 NA
ATOM      5  C   UNL     1       4.095   6.344  -8.506  0.00  0.00    +0.145 C 
ATOM      6  C   UNL     1       5.038   6.812  -9.325  0.00  0.00    +0.112 C 
ATOM      7  C   UNL     1       4.024   4.995  -7.950  0.00  0.00    +0.282 C 
ATOM      8  O   UNL     1       4.881   4.165  -8.394  0.00  0.00    -0.267 OA
ATOM      9  N   UNL     1       3.995   5.318  -6.697  0.00  0.00    -0.189 NA
ATOM     10  C   UNL     1       3.268   5.974  -5.551  0.00  0.00    +0.210 C 
ATOM     11  C   UNL     1       4.079   7.334  -5.246  0.00  0.00    +0.265 C 
ATOM     12  O   UNL     1       5.280   7.348  -5.320  0.00  0.00    -0.271 OA
ATOM     13  N   UNL     1       3.231   7.982  -4.280  0.00  0.00    -0.202 NA
ATOM     14  C   UNL     1       2.059   7.408  -3.621  0.00  0.00    +0.144 C 
ATOM     15  CA  UNL     1       1.238   6.675  -4.845  0.00  0.00    +0.191 C 
ATOM     16  N   UNL     1       0.880   8.105  -5.434  0.00  0.00    -0.121 NA
ATOM     17  C   UNL     1      -0.190   6.479  -4.131  0.00  0.00    +0.261 C 
ATOM     18  O   UNL     1      -0.314   6.813  -2.946  0.00  0.00    -0.272 OA
ATOM     19  N   UNL     1      -0.430   5.149  -4.485  0.00  0.00    -0.194 NA
ATOM     20  CA  UNL     1      -0.816   4.698  -5.952  0.00  0.00    +0.205 C 
ATOM     21  C   UNL     1       0.683   4.474  -6.399  0.00  0.00    +0.264 C 
ATOM     22  O   UNL     1       1.016   3.415  -5.760  0.00  0.00    -0.271 OA
ATOM     23  N   UNL     1       0.199   4.536  -7.701  0.00  0.00    -0.194 NA
ENDROOT
BRANCH  10  24
ATOM     24  C   UNL     1       4.181   5.226  -4.282  0.00  0.00    +0.202 C 
ATOM     25  N   UNL     1       2.993   4.750  -3.392  0.00  0.00    -0.062 NA
ATOM     26  C   UNL     1       3.376   4.503  -2.057  0.00  0.00    +0.473 C 
ATOM     27  N   UNL     1       2.664   3.613  -1.205  0.00  0.00    +0.147 NA
ATOM     28  N   UNL     1       4.598   4.779  -1.755  0.00  0.00    -0.094 NA
ATOM     29  C   UNL     1       5.148   6.041  -2.216  0.00  0.00    +0.223 C 
ATOM     30  C   UNL     1       4.392   6.591  -3.418  0.00  0.00    +0.090 C 
ENDBRANCH  10  24
BRANCH   6  31
ATOM     31  N   UNL     1       5.887   5.855  -9.934  0.00  0.00    -0.157 NA
ATOM     32  C   UNL     1       7.188   6.321 -10.239  0.00  0.00    +0.363 C 
ATOM     33  O   UNL     1       7.289   7.528 -10.607  0.00  0.00    -0.247 OA
ATOM     34  N   UNL     1       8.152   5.327 -10.511  0.00  0.00    -0.068 NA
ENDBRANCH   6  31
BRANCH  20  35
ATOM     35  C   UNL     1      -1.162   6.219  -6.468  0.00  0.00    +0.213 C 
ATOM     36  O   UNL     1      -2.510   6.125  -6.678  0.00  0.00    -0.218 OA
ENDBRANCH  20  35
BRANCH   1  37
ATOM     37  C   UNL     1       0.568   5.455  -9.792  0.00  0.00    +0.146 C 
BRANCH  37  39
ATOM     38  C   UNL     1       1.691   6.198 -11.804  0.00  0.00    +0.243 C 
ATOM     39  N   UNL     1       1.224   5.128 -10.987  0.00  0.00    -0.203 NA
ATOM     40  O   UNL     1       0.831   7.031 -12.155  0.00  0.00    -0.273 OA
BRANCH  38  41
ATOM     41  C   UNL     1       3.030   6.226 -12.448  0.00  0.00    +0.106 C 
BRANCH  41  42
ATOM     42  C   UNL     1       2.899   5.135 -13.668  0.00  0.00    +0.101 C 
ATOM     43  N   UNL     1       3.164   6.235 -14.761  0.00  0.00    -0.132 NA
BRANCH  42  44
ATOM     44  C   UNL     1       4.493   4.742 -13.603  0.00  0.00    +0.021 C 
BRANCH  44  45
ATOM     45  C   UNL     1       5.154   6.088 -13.560  0.00  0.00    +0.022 C 
BRANCH  45  47
ATOM     46  N   UNL     1       7.158   5.009 -13.763  0.00  0.00    -0.131 NA
ATOM     47  C   UNL     1       6.629   5.975 -13.887  0.00  0.00    +0.109 C 
ENDBRANCH  45  47
ENDBRANCH  44  45
ENDBRANCH  42  44
ENDBRANCH  41  42
ENDBRANCH  38  41
ENDBRANCH  37  39
ENDBRANCH   1  37
TORSDOF 10
ENDMDL
MODEL 8
REMARK VINA RESULT:      -0.9      3.010      6.483
REMARK  Name = 
REMARK  10 active torsions:
REMARK  status: ('A' for Active; 'I' for Inactive)
REMARK    1  A    between atoms: C_2  and  C_3
REMARK    2  A    between atoms: C_3  and  C_4
REMARK    3  A    between atoms: C_4  and  C_5
REMARK    4  A    between atoms: C_5  and  C_7
REMARK    5  A    between atoms: C_7  and  C_8
REMARK    6  A    between atoms: N_10  and  C_11
REMARK    7  A    between atoms: C_11  and  C_12
REMARK    8  A    between atoms: CA_16  and  C_17
REMARK    9  A    between atoms: C_28  and  C_29
REMARK   10  A    between atoms: C_40  and  N_41
REMARK                            x       y       z     vdW  Elec       q    Type
REMARK                         _______ _______ _______ _____ _____    ______ ____
ROOT
ATOM      1  C   UNL     1       3.325   6.515  -9.034  0.00  0.00    +0.195 C 
ATOM      2  C   UNL     1       2.777   5.088  -8.554  0.00  0.00    +0.267 C 
ATOM      3  O   UNL     1       3.612   4.159  -8.315  0.00  0.00    -0.271 OA
ATOM      4  N   UNL     1       1.726   4.413  -9.139  0.00  0.00    -0.172 NA
ATOM      5  C   UNL     1       1.070   4.956 -10.230  0.00  0.00    +0.145 C 
ATOM      6  C   UNL     1       0.693   4.342 -11.352  0.00  0.00    +0.112 C 
ATOM      7  C   UNL     1       0.857   6.364  -9.901  0.00  0.00    +0.282 C 
ATOM      8  O   UNL     1       0.373   7.085 -10.832  0.00  0.00    -0.267 OA
ATOM      9  N   UNL     1       0.216   6.193  -8.789  0.00  0.00    -0.189 NA
ATOM     10  C   UNL     1       0.221   5.720  -7.358  0.00  0.00    +0.210 C 
ATOM     11  C   UNL     1      -0.648   4.361  -7.349  0.00  0.00    +0.265 C 
ATOM     12  O   UNL     1      -1.630   4.270  -8.038  0.00  0.00    -0.271 OA
ATOM     13  N   UNL     1      -0.446   3.881  -6.007  0.00  0.00    -0.202 NA
ATOM     14  C   UNL     1       0.211   4.595  -4.913  0.00  0.00    +0.144 C 
ATOM     15  CA  UNL     1       1.564   5.223  -5.608  0.00  0.00    +0.191 C 
ATOM     16  N   UNL     1       2.158   3.757  -5.731  0.00  0.00    -0.121 NA
ATOM     17  C   UNL     1       2.404   5.583  -4.285  0.00  0.00    +0.261 C 
ATOM     18  O   UNL     1       1.880   5.399  -3.178  0.00  0.00    -0.272 OA
ATOM     19  N   UNL     1       2.814   6.873  -4.630  0.00  0.00    -0.194 NA
ATOM     20  CA  UNL     1       3.921   7.169  -5.722  0.00  0.00    +0.205 C 
ATOM     21  C   UNL     1       2.885   7.253  -6.913  0.00  0.00    +0.264 C 
ATOM     22  O   UNL     1       2.281   8.360  -6.688  0.00  0.00    -0.271 OA
ATOM     23  N   UNL     1       3.982   7.065  -7.747  0.00  0.00    -0.194 NA
ENDROOT
BRANCH  10  24
ATOM     24  C   UNL     1      -1.213   6.559  -6.866  0.00  0.00    +0.202 C 
ATOM     25  N   UNL     1      -0.599   7.410  -5.713  0.00  0.00    -0.062 NA
ATOM     26  C   UNL     1      -1.569   7.871  -4.799  0.00  0.00    +0.473 C 
ATOM     27  N   UNL     1      -1.379   9.032  -3.997  0.00  0.00    +0.147 NA
ATOM     28  N   UNL     1      -2.776   7.465  -4.996  0.00  0.00    -0.094 NA
ATOM     29  C   UNL     1      -2.985   6.059  -5.292  0.00  0.00    +0.223 C 
ATOM     30  C   UNL     1      -1.731   5.398  -5.847  0.00  0.00    +0.090 C 
ENDBRANCH  10  24
BRANCH   6  31
ATOM     31  N   UNL     1       0.306   5.171 -12.435  0.00  0.00    -0.157 NA
ATOM     32  C   UNL     1       1.218   5.204 -13.516  0.00  0.00    +0.363 C 
ATOM     33  O   UNL     1       2.449   5.137 -13.225  0.00  0.00    -0.247 OA
ATOM     34  N   UNL     1       0.718   5.720 -14.731  0.00  0.00    -0.068 NA
ENDBRANCH   6  31
BRANCH  20  35
ATOM     35  C   UNL     1       4.465   5.620  -5.776  0.00  0.00    +0.213 C 
ATOM     36  O   UNL     1       5.352   5.616  -4.735  0.00  0.00    -0.218 OA
ENDBRANCH  20  35
BRANCH   1  37
ATOM     37  C   UNL     1       4.758   5.886  -9.580  0.00  0.00    +0.146 C 
BRANCH  37  39
ATOM     38  C   UNL     1       6.611   6.454 -11.030  0.00  0.00    +0.243 C 
ATOM     39  N   UNL     1       5.453   6.862 -10.308  0.00  0.00    -0.203 NA
ATOM     40  O   UNL     1       7.501   5.892 -10.360  0.00  0.00    -0.273 OA
BRANCH  38  41
ATOM     41  C   UNL     1       6.914   6.880 -12.422  0.00  0.00    +0.106 C 
BRANCH  41  42
ATOM     42  C   UNL     1       7.340   5.483 -13.172  0.00  0.00    +0.101 C 
ATOM     43  N   UNL     1       5.851   4.974 -13.202  0.00  0.00    -0.132 NA
BRANCH  42  44
ATOM     44  C   UNL     1       7.199   6.144 -14.669  0.00  0.00    +0.021 C 
BRANCH  44  45
ATOM     45  C   UNL     1       5.745   6.510 -14.722  0.00  0.00    +0.022 C 
BRANCH  45  47
ATOM     46  N   UNL     1       6.010   8.406 -15.971  0.00  0.00    -0.131 NA
ATOM     47  C   UNL     1       5.467   7.443 -15.883  0.00  0.00    +0.109 C 
ENDBRANCH  45  47
ENDBRANCH  44  45
ENDBRANCH  42  44
ENDBRANCH  41  42
ENDBRANCH  38  41
ENDBRANCH  37  39
ENDBRANCH   1  37
TORSDOF 10
ENDMDL
