MODEL 1
REMARK VINA RESULT:      -6.1      0.000      0.000
REMARK  Name = 
REMARK  5 active torsions:
REMARK  status: ('A' for Active; 'I' for Inactive)
REMARK    1  A    between atoms: C_2  and  C_3
REMARK    2  A    between atoms: C_3  and  N_4
REMARK    3  A    between atoms: N_4  and  C_6
REMARK    4  A    between atoms: C_6  and  C_8
REMARK    5  A    between atoms: C_8  and  C_9
REMARK                            x       y       z     vdW  Elec       q    Type
REMARK                         _______ _______ _______ _____ _____    ______ ____
ROOT
ATOM      1  C   UNL     1       2.854   6.349  -8.928  0.00  0.00    +0.063 C 
ATOM      2  C   UNL     1       2.841   7.213  -7.495  0.00  0.00    +0.018 C 
ENDROOT
BRANCH   1   3
ATOM      3  N   UNL     1       1.917   5.208  -8.309  0.00  0.00    -0.261 NA
ATOM      4  C   UNL     1       2.492   3.967  -8.682  0.00  0.00    +0.090 C 
BRANCH   3   5
ATOM      5  C   UNL     1       0.607   5.474  -8.832  0.00  0.00    +0.151 C 
BRANCH   5   7
ATOM      6  C   UNL     1      -1.229   5.356  -6.895  0.00  0.00    -0.013 C 
ATOM      7  C   UNL     1      -0.353   5.373  -7.718  0.00  0.00    -0.060 C 
ENDBRANCH   5   7
ENDBRANCH   3   5
ENDBRANCH   1   3
BRANCH   1   8
ATOM      8  C   UNL     1       4.250   5.542  -8.484  0.00  0.00    +0.042 C 
BRANCH   8   9
ATOM      9  C   UNL     1       5.241   5.926  -9.509  0.00  0.00    -0.021 A 
ATOM     10  C   UNL     1       6.580   5.672  -9.331  0.00  0.00    -0.004 A 
ATOM     11  C   UNL     1       7.504   6.381 -10.084  0.00  0.00    -0.000 A 
ATOM     12  C   UNL     1       7.113   7.457 -10.835  0.00  0.00    -0.000 A 
ATOM     13  C   UNL     1       5.782   7.617 -11.110  0.00  0.00    -0.000 A 
ATOM     14  C   UNL     1       4.854   6.806 -10.501  0.00  0.00    -0.004 A 
ENDBRANCH   8   9
ENDBRANCH   1   8
TORSDOF 5
ENDMDL
MODEL 2
REMARK VINA RESULT:      -6.0      1.441      1.567
REMARK  Name = 
REMARK  5 active torsions:
REMARK  status: ('A' for Active; 'I' for Inactive)
REMARK    1  A    between atoms: C_2  and  C_3
REMARK    2  A    between atoms: C_3  and  N_4
REMARK    3  A    between atoms: N_4  and  C_6
REMARK    4  A    between atoms: C_6  and  C_8
REMARK    5  A    between atoms: C_8  and  C_9
REMARK                            x       y       z     vdW  Elec       q    Type
REMARK                         _______ _______ _______ _____ _____    ______ ____
ROOT
ATOM      1  C   UNL     1       3.111   6.519  -8.672  0.00  0.00    +0.063 C 
ATOM      2  C   UNL     1       3.174   6.779  -7.020  0.00  0.00    +0.018 C 
ENDROOT
BRANCH   1   3
ATOM      3  N   UNL     1       1.998   5.380  -8.502  0.00  0.00    -0.261 NA
ATOM      4  C   UNL     1       2.584   4.358  -7.713  0.00  0.00    +0.090 C 
BRANCH   3   5
ATOM      5  C   UNL     1       1.635   5.008  -9.839  0.00  0.00    +0.151 C 
BRANCH   5   7
ATOM      6  C   UNL     1       0.135   6.908 -10.969  0.00  0.00    -0.013 C 
ATOM      7  C   UNL     1       0.840   6.108 -10.414  0.00  0.00    -0.060 C 
ENDBRANCH   5   7
ENDBRANCH   3   5
ENDBRANCH   1   3
BRANCH   1   8
ATOM      8  C   UNL     1       4.359   5.410  -8.593  0.00  0.00    +0.042 C 
BRANCH   8   9
ATOM      9  C   UNL     1       5.337   5.882  -9.595  0.00  0.00    -0.021 A 
ATOM     10  C   UNL     1       6.687   5.698  -9.410  0.00  0.00    -0.004 A 
ATOM     11  C   UNL     1       7.576   6.481 -10.130  0.00  0.00    -0.000 A 
ATOM     12  C   UNL     1       7.131   7.558 -10.851  0.00  0.00    -0.000 A 
ATOM     13  C   UNL     1       5.797   7.652 -11.135  0.00  0.00    -0.000 A 
ATOM     14  C   UNL     1       4.909   6.770 -10.562  0.00  0.00    -0.004 A 
ENDBRANCH   8   9
ENDBRANCH   1   8
TORSDOF 5
ENDMDL
MODEL 3
REMARK VINA RESULT:      -6.0      3.175      6.688
REMARK  Name = 
REMARK  5 active torsions:
REMARK  status: ('A' for Active; 'I' for Inactive)
REMARK    1  A    between atoms: C_2  and  C_3
REMARK    2  A    between atoms: C_3  and  N_4
REMARK    3  A    between atoms: N_4  and  C_6
REMARK    4  A    between atoms: C_6  and  C_8
REMARK    5  A    between atoms: C_8  and  C_9
REMARK                            x       y       z     vdW  Elec       q    Type
REMARK                         _______ _______ _______ _____ _____    ______ ____
ROOT
ATOM      1  C   UNL     1       2.187   6.939  -6.404  0.00  0.00    +0.063 C 
ATOM      2  C   UNL     1       2.140   7.632  -7.926  0.00  0.00    +0.018 C 
ENDROOT
BRANCH   1   3
ATOM      3  N   UNL     1       3.519   6.124  -6.759  0.00  0.00    -0.261 NA
ATOM      4  C   UNL     1       3.129   5.075  -7.630  0.00  0.00    +0.090 C 
BRANCH   3   5
ATOM      5  C   UNL     1       4.059   5.719  -5.493  0.00  0.00    +0.151 C 
BRANCH   5   7
ATOM      6  C   UNL     1       5.062   7.815  -4.173  0.00  0.00    -0.013 C 
ATOM      7  C   UNL     1       4.588   6.921  -4.823  0.00  0.00    -0.060 C 
ENDBRANCH   5   7
ENDBRANCH   3   5
ENDBRANCH   1   3
BRANCH   1   8
ATOM      8  C   UNL     1       1.201   5.680  -6.894  0.00  0.00    +0.042 C 
BRANCH   8   9
ATOM      9  C   UNL     1      -0.057   5.884  -6.147  0.00  0.00    -0.021 A 
ATOM     10  C   UNL     1      -1.256   5.428  -6.641  0.00  0.00    -0.004 A 
ATOM     11  C   UNL     1      -2.434   5.968  -6.147  0.00  0.00    -0.000 A 
ATOM     12  C   UNL     1      -2.410   7.076  -5.342  0.00  0.00    -0.000 A 
ATOM     13  C   UNL     1      -1.228   7.436  -4.755  0.00  0.00    -0.000 A 
ATOM     14  C   UNL     1      -0.064   6.792  -5.106  0.00  0.00    -0.004 A 
ENDBRANCH   8   9
ENDBRANCH   1   8
TORSDOF 5
ENDMDL
MODEL 4
REMARK VINA RESULT:      -5.9      1.820      2.881
REMARK  Name = 
REMARK  5 active torsions:
REMARK  status: ('A' for Active; 'I' for Inactive)
REMARK    1  A    between atoms: C_2  and  C_3
REMARK    2  A    between atoms: C_3  and  N_4
REMARK    3  A    between atoms: N_4  and  C_6
REMARK    4  A    between atoms: C_6  and  C_8
REMARK    5  A    between atoms: C_8  and  C_9
REMARK                            x       y       z     vdW  Elec       q    Type
REMARK                         _______ _______ _______ _____ _____    ______ ____
ROOT
ATOM      1  C   UNL     1       3.924   5.040  -7.875  0.00  0.00    +0.063 C 
ATOM      2  C   UNL     1       2.879   3.987  -8.649  0.00  0.00    +0.018 C 
ENDROOT
BRANCH   1   3
ATOM      3  N   UNL     1       2.742   5.625  -6.966  0.00  0.00    -0.261 NA
ATOM      4  C   UNL     1       3.107   6.956  -6.638  0.00  0.00    +0.090 C 
BRANCH   3   5
ATOM      5  C   UNL     1       2.633   4.715  -5.862  0.00  0.00    +0.151 C 
BRANCH   5   7
ATOM      6  C   UNL     1       4.765   4.910  -4.263  0.00  0.00    -0.013 C 
ATOM      7  C   UNL     1       3.824   4.892  -5.012  0.00  0.00    -0.060 C 
ENDBRANCH   5   7
ENDBRANCH   3   5
ENDBRANCH   1   3
BRANCH   1   8
ATOM      8  C   UNL     1       3.693   6.208  -9.050  0.00  0.00    +0.042 C 
BRANCH   8   9
ATOM      9  C   UNL     1       4.976   6.253  -9.781  0.00  0.00    -0.021 A 
ATOM     10  C   UNL     1       6.099   5.638  -9.281  0.00  0.00    -0.004 A 
ATOM     11  C   UNL     1       7.344   6.024  -9.756  0.00  0.00    -0.000 A 
ATOM     12  C   UNL     1       7.475   7.135 -10.546  0.00  0.00    -0.000 A 
ATOM     13  C   UNL     1       6.357   7.654 -11.140  0.00  0.00    -0.000 A 
ATOM     14  C   UNL     1       5.114   7.165 -10.810  0.00  0.00    -0.004 A 
ENDBRANCH   8   9
ENDBRANCH   1   8
TORSDOF 5
ENDMDL
MODEL 5
REMARK VINA RESULT:      -5.8      4.050      7.020
REMARK  Name = 
REMARK  5 active torsions:
REMARK  status: ('A' for Active; 'I' for Inactive)
REMARK    1  A    between atoms: C_2  and  C_3
REMARK    2  A    between atoms: C_3  and  N_4
REMARK    3  A    between atoms: N_4  and  C_6
REMARK    4  A    between atoms: C_6  and  C_8
REMARK    5  A    between atoms: C_8  and  C_9
REMARK                            x       y       z     vdW  Elec       q    Type
REMARK                         _______ _______ _______ _____ _____    ______ ____
ROOT
ATOM      1  C   UNL     1       1.928   5.352  -6.647  0.00  0.00    +0.063 C 
ATOM      2  C   UNL     1       2.175   3.697  -6.609  0.00  0.00    +0.018 C 
ENDROOT
BRANCH   1   3
ATOM      3  N   UNL     1       3.296   5.626  -5.861  0.00  0.00    -0.261 NA
ATOM      4  C   UNL     1       3.272   4.798  -4.710  0.00  0.00    +0.090 C 
BRANCH   3   5
ATOM      5  C   UNL     1       3.310   7.040  -5.615  0.00  0.00    +0.151 C 
BRANCH   5   7
ATOM      6  C   UNL     1       5.482   7.457  -4.116  0.00  0.00    -0.013 C 
ATOM      7  C   UNL     1       4.477   7.338  -4.766  0.00  0.00    -0.060 C 
ENDBRANCH   5   7
ENDBRANCH   3   5
ENDBRANCH   1   3
BRANCH   1   8
ATOM      8  C   UNL     1       1.041   5.301  -5.231  0.00  0.00    +0.042 C 
BRANCH   8   9
ATOM      9  C   UNL     1      -0.154   6.121  -5.514  0.00  0.00    -0.021 A 
ATOM     10  C   UNL     1      -0.435   7.243  -4.771  0.00  0.00    -0.004 A 
ATOM     11  C   UNL     1      -1.727   7.748  -4.780  0.00  0.00    -0.000 A 
ATOM     12  C   UNL     1      -2.751   7.033  -5.341  0.00  0.00    -0.000 A 
ATOM     13  C   UNL     1      -2.446   5.999  -6.183  0.00  0.00    -0.000 A 
ATOM     14  C   UNL     1      -1.140   5.590  -6.322  0.00  0.00    -0.004 A 
ENDBRANCH   8   9
ENDBRANCH   1   8
TORSDOF 5
ENDMDL
MODEL 6
REMARK VINA RESULT:      -5.6      2.042      3.045
REMARK  Name = 
REMARK  5 active torsions:
REMARK  status: ('A' for Active; 'I' for Inactive)
REMARK    1  A    between atoms: C_2  and  C_3
REMARK    2  A    between atoms: C_3  and  N_4
REMARK    3  A    between atoms: N_4  and  C_6
REMARK    4  A    between atoms: C_6  and  C_8
REMARK    5  A    between atoms: C_8  and  C_9
REMARK                            x       y       z     vdW  Elec       q    Type
REMARK                         _______ _______ _______ _____ _____    ______ ____
ROOT
ATOM      1  C   UNL     1       4.282   5.490 -10.771  0.00  0.00    +0.063 C 
ATOM      2  C   UNL     1       2.758   6.075 -11.136  0.00  0.00    +0.018 C 
ENDROOT
BRANCH   1   3
ATOM      3  N   UNL     1       3.977   5.531  -9.199  0.00  0.00    -0.261 NA
ATOM      4  C   UNL     1       3.408   4.275  -8.866  0.00  0.00    +0.090 C 
BRANCH   3   5
ATOM      5  C   UNL     1       3.128   6.672  -9.011  0.00  0.00    +0.151 C 
BRANCH   5   7
ATOM      6  C   UNL     1       2.999   7.086  -6.375  0.00  0.00    -0.013 C 
ATOM      7  C   UNL     1       2.979   6.891  -7.561  0.00  0.00    -0.060 C 
ENDBRANCH   5   7
ENDBRANCH   3   5
ENDBRANCH   1   3
BRANCH   1   8
ATOM      8  C   UNL     1       4.923   7.034 -10.758  0.00  0.00    +0.042 C 
BRANCH   8   9
ATOM      9  C   UNL     1       6.260   6.884 -11.368  0.00  0.00    -0.021 A 
ATOM     10  C   UNL     1       6.421   6.891 -12.733  0.00  0.00    -0.004 A 
ATOM     11  C   UNL     1       7.580   6.357 -13.276  0.00  0.00    -0.000 A 
ATOM     12  C   UNL     1       8.452   5.645 -12.495  0.00  0.00    -0.000 A 
ATOM     13  C   UNL     1       8.356   5.756 -11.135  0.00  0.00    -0.000 A 
ATOM     14  C   UNL     1       7.298   6.435 -10.575  0.00  0.00    -0.004 A 
ENDBRANCH   8   9
ENDBRANCH   1   8
TORSDOF 5
ENDMDL
MODEL 7
REMARK VINA RESULT:      -5.5      1.628      6.689
REMARK  Name = 
REMARK  5 active torsions:
REMARK  status: ('A' for Active; 'I' for Inactive)
REMARK    1  A    between atoms: C_2  and  C_3
REMARK    2  A    between atoms: C_3  and  N_4
REMARK    3  A    between atoms: N_4  and  C_6
REMARK    4  A    between atoms: C_6  and  C_8
REMARK    5  A    between atoms: C_8  and  C_9
REMARK                            x       y       z     vdW  Elec       q    Type
REMARK                         _______ _______ _______ _____ _____    ______ ____
ROOT
ATOM      1  C   UNL     1       1.462   6.742  -7.720  0.00  0.00    +0.063 C 
ATOM      2  C   UNL     1       1.001   6.623  -9.324  0.00  0.00    +0.018 C 
ENDROOT
BRANCH   1   3
ATOM      3  N   UNL     1       2.839   5.976  -8.006  0.00  0.00    -0.261 NA
ATOM      4  C   UNL     1       3.584   6.023  -6.800  0.00  0.00    +0.090 C 
BRANCH   3   5
ATOM      5  C   UNL     1       3.420   6.655  -9.128  0.00  0.00    +0.151 C 
BRANCH   5   7
ATOM      6  C   UNL     1       5.891   5.729  -9.546  0.00  0.00    -0.013 C 
ATOM      7  C   UNL     1       4.753   6.073  -9.368  0.00  0.00    -0.060 C 
ENDBRANCH   5   7
ENDBRANCH   3   5
ENDBRANCH   1   3
BRANCH   1   8
ATOM      8  C   UNL     1       0.669   5.321  -7.337  0.00  0.00    +0.042 C 
BRANCH   8   9
ATOM      9  C   UNL     1      -0.376   5.729  -6.376  0.00  0.00    -0.021 A 
ATOM     10  C   UNL     1      -1.701   5.446  -6.607  0.00  0.00    -0.004 A 
ATOM     11  C   UNL     1      -2.670   6.168  -5.926  0.00  0.00    -0.000 A 
ATOM     12  C   UNL     1      -2.331   7.280  -5.201  0.00  0.00    -0.000 A 
ATOM     13  C   UNL     1      -1.017   7.472  -4.870  0.00  0.00    -0.000 A 
ATOM     14  C   UNL     1      -0.049   6.652  -5.402  0.00  0.00    -0.004 A 
ENDBRANCH   8   9
ENDBRANCH   1   8
TORSDOF 5
ENDMDL
MODEL 8
REMARK VINA RESULT:      -5.4      3.143      6.641
REMARK  Name = 
REMARK  5 active torsions:
REMARK  status: ('A' for Active; 'I' for Inactive)
REMARK    1  A    between atoms: C_2  and  C_3
REMARK    2  A    between atoms: C_3  and  N_4
REMARK    3  A    between atoms: N_4  and  C_6
REMARK    4  A    between atoms: C_6  and  C_8
REMARK    5  A    between atoms: C_8  and  C_9
REMARK                            x       y       z     vdW  Elec       q    Type
REMARK                         _______ _______ _______ _____ _____    ______ ____
ROOT
ATOM      1  C   UNL     1       2.215   5.303  -5.327  0.00  0.00    +0.063 C 
ATOM      2  C   UNL     1       2.809   5.721  -3.820  0.00  0.00    +0.018 C 
ENDROOT
BRANCH   1   3
ATOM      3  N   UNL     1       3.499   5.917  -6.060  0.00  0.00    -0.261 NA
ATOM      4  C   UNL     1       3.900   7.042  -5.297  0.00  0.00    +0.090 C 
BRANCH   3   5
ATOM      5  C   UNL     1       3.070   6.190  -7.402  0.00  0.00    +0.151 C 
BRANCH   5   7
ATOM      6  C   UNL     1       2.800   3.815  -8.597  0.00  0.00    -0.013 C 
ATOM      7  C   UNL     1       2.972   4.903  -8.116  0.00  0.00    -0.060 C 
ENDBRANCH   5   7
ENDBRANCH   3   5
ENDBRANCH   1   3
BRANCH   1   8
ATOM      8  C   UNL     1       1.372   6.743  -5.445  0.00  0.00    +0.042 C 
BRANCH   8   9
ATOM      9  C   UNL     1      -0.049   6.340  -5.435  0.00  0.00    -0.021 A 
ATOM     10  C   UNL     1      -0.535   5.431  -6.345  0.00  0.00    -0.004 A 
ATOM     11  C   UNL     1      -1.902   5.378  -6.576  0.00  0.00    -0.000 A 
ATOM     12  C   UNL     1      -2.732   6.345  -6.074  0.00  0.00    -0.000 A 
ATOM     13  C   UNL     1      -2.268   7.155  -5.075  0.00  0.00    -0.000 A 
ATOM     14  C   UNL     1      -0.943   7.102  -4.708  0.00  0.00    -0.004 A 
ENDBRANCH   8   9
ENDBRANCH   1   8
TORSDOF 5
ENDMDL
MODEL 9
REMARK VINA RESULT:      -5.2      4.303      5.424
REMARK  Name = 
REMARK  5 active torsions:
REMARK  status: ('A' for Active; 'I' for Inactive)
REMARK    1  A    between atoms: C_2  and  C_3
REMARK    2  A    between atoms: C_3  and  N_4
REMARK    3  A    between atoms: N_4  and  C_6
REMARK    4  A    between atoms: C_6  and  C_8
REMARK    5  A    between atoms: C_8  and  C_9
REMARK                            x       y       z     vdW  Elec       q    Type
REMARK                         _______ _______ _______ _____ _____    ______ ____
ROOT
ATOM      1  C   UNL     1       0.232   5.133  -5.469  0.00  0.00    +0.063 C 
ATOM      2  C   UNL     1      -0.897   5.448  -6.663  0.00  0.00    +0.018 C 
ENDROOT
BRANCH   1   3
ATOM      3  N   UNL     1      -0.623   5.934  -4.377  0.00  0.00    -0.261 NA
ATOM      4  C   UNL     1      -0.222   5.440  -3.110  0.00  0.00    +0.090 C 
BRANCH   3   5
ATOM      5  C   UNL     1      -1.994   5.705  -4.733  0.00  0.00    +0.151 C 
BRANCH   5   7
ATOM      6  C   UNL     1      -3.522   6.403  -2.655  0.00  0.00    -0.013 C 
ATOM      7  C   UNL     1      -2.834   6.164  -3.612  0.00  0.00    -0.060 C 
ENDBRANCH   5   7
ENDBRANCH   3   5
ENDBRANCH   1   3
BRANCH   1   8
ATOM      8  C   UNL     1       1.114   6.493  -5.879  0.00  0.00    +0.042 C 
BRANCH   8   9
ATOM      9  C   UNL     1       2.517   6.120  -5.602  0.00  0.00    -0.021 A 
ATOM     10  C   UNL     1       2.836   4.877  -5.111  0.00  0.00    -0.004 A 
ATOM     11  C   UNL     1       4.063   4.694  -4.491  0.00  0.00    -0.000 A 
ATOM     12  C   UNL     1       4.855   5.768  -4.183  0.00  0.00    -0.000 A 
ATOM     13  C   UNL     1       4.598   6.969  -4.786  0.00  0.00    -0.000 A 
ATOM     14  C   UNL     1       3.466   7.122  -5.553  0.00  0.00    -0.004 A 
ENDBRANCH   8   9
ENDBRANCH   1   8
TORSDOF 5
ENDMDL
