MODEL 1
REMARK VINA RESULT:      -9.0      0.000      0.000
REMARK  Name = 
REMARK  3 active torsions:
REMARK  status: ('A' for Active; 'I' for Inactive)
REMARK    1  A    between atoms: C_2  and  O_4
REMARK    2  A    between atoms: O_4  and  C_5
REMARK    3  A    between atoms: C_5  and  C_6
REMARK                            x       y       z     vdW  Elec       q    Type
REMARK                         _______ _______ _______ _____ _____    ______ ____
ROOT
ATOM      1  C   UNL     1       6.083   5.805 -10.943  0.00  0.00    +0.186 C 
ATOM      2  C   UNL     1       4.763   5.957 -10.327  0.00  0.00    +0.040 C 
ATOM      3  C   UNL     1       4.870   5.105  -8.948  0.00  0.00    +0.004 C 
ATOM      4  C   UNL     1       3.896   6.218  -8.139  0.00  0.00    +0.001 C 
ATOM      5  C   UNL     1       2.606   5.176  -8.460  0.00  0.00    +0.003 C 
ATOM      6  C   UNL     1       2.387   5.812  -9.940  0.00  0.00    +0.000 C 
ATOM      7  C   UNL     1       1.508   6.083  -7.698  0.00  0.00    +0.016 C 
ATOM      8  C   UNL     1       1.915   6.208  -6.287  0.00  0.00    -0.042 C 
ATOM      9  C   UNL     1       1.007   6.804  -5.508  0.00  0.00    +0.029 C 
ATOM     10  C   UNL     1      -0.364   6.296  -5.676  0.00  0.00    +0.173 C 
ATOM     11  C   UNL     1      -0.396   5.005  -6.436  0.00  0.00    +0.069 C 
ATOM     12  O   UNL     1      -1.222   6.408  -4.762  0.00  0.00    -0.291 OA
ATOM     13  C   UNL     1       3.335   6.907  -6.016  0.00  0.00    +0.018 C 
ATOM     14  C   UNL     1       3.445   6.309  -4.498  0.00  0.00    +0.004 C 
ATOM     15  C   UNL     1       1.185   7.306  -8.408  0.00  0.00    +0.004 C 
ATOM     16  C   UNL     1       0.330   5.152  -7.733  0.00  0.00    +0.012 C 
ATOM     17  C   UNL     1       4.139   5.629  -6.665  0.00  0.00    +0.004 C 
ATOM     18  C   UNL     1       6.322   5.766  -8.652  0.00  0.00    +0.004 C 
ATOM     19  C   UNL     1       4.587   7.401 -10.057  0.00  0.00    +0.004 C 
ATOM     20  C   UNL     1       3.543   5.343 -10.823  0.00  0.00    +0.004 C 
ATOM     21  C   UNL     1       6.837   4.993  -9.887  0.00  0.00    +0.047 C 
ENDROOT
BRANCH   1  22
ATOM     22  C   UNL     1       6.890   7.078 -10.939  0.00  0.00    +0.187 C 
ATOM     23  O   UNL     1       8.073   7.112 -10.599  0.00  0.00    -0.292 OA
ATOM     24  C   UNL     1       6.475   8.289 -11.728  0.00  0.00    +0.076 C 
ENDBRANCH   1  22
BRANCH   1  25
ATOM     25  O   UNL     1       6.004   5.202 -12.191  0.00  0.00    -0.449 OA
BRANCH  25  27
ATOM     26  C   UNL     1       6.862   6.013 -14.433  0.00  0.00    +0.121 C 
ATOM     27  C   UNL     1       7.030   5.384 -13.123  0.00  0.00    +0.318 C 
ATOM     28  O   UNL     1       8.040   4.665 -12.843  0.00  0.00    -0.250 OA
ENDBRANCH  25  27
ENDBRANCH   1  25
TORSDOF 3
ENDMDL
MODEL 2
REMARK VINA RESULT:      -8.9      2.032      8.463
REMARK  Name = 
REMARK  3 active torsions:
REMARK  status: ('A' for Active; 'I' for Inactive)
REMARK    1  A    between atoms: C_2  and  O_4
REMARK    2  A    between atoms: O_4  and  C_5
REMARK    3  A    between atoms: C_5  and  C_6
REMARK                            x       y       z     vdW  Elec       q    Type
REMARK                         _______ _______ _______ _____ _____    ______ ____
ROOT
ATOM      1  C   UNL     1      -1.320   5.915  -4.676  0.00  0.00    +0.186 C 
ATOM      2  C   UNL     1      -0.085   5.999  -5.461  0.00  0.00    +0.040 C 
ATOM      3  C   UNL     1      -0.364   5.037  -6.740  0.00  0.00    +0.004 C 
ATOM      4  C   UNL     1       0.505   6.067  -7.753  0.00  0.00    +0.001 C 
ATOM      5  C   UNL     1       1.823   5.039  -7.506  0.00  0.00    +0.003 C 
ATOM      6  C   UNL     1       2.225   5.794  -6.123  0.00  0.00    +0.000 C 
ATOM      7  C   UNL     1       2.819   5.866  -8.471  0.00  0.00    +0.016 C 
ATOM      8  C   UNL     1       2.241   5.879  -9.827  0.00  0.00    -0.042 C 
ATOM      9  C   UNL     1       3.048   6.396 -10.759  0.00  0.00    +0.029 C 
ATOM     10  C   UNL     1       4.428   5.887 -10.719  0.00  0.00    +0.173 C 
ATOM     11  C   UNL     1       4.551   4.664  -9.863  0.00  0.00    +0.069 C 
ATOM     12  O   UNL     1       5.166   5.912 -11.737  0.00  0.00    -0.291 OA
ATOM     13  C   UNL     1       0.800   6.571  -9.979  0.00  0.00    +0.018 C 
ATOM     14  C   UNL     1       0.503   5.850 -11.416  0.00  0.00    +0.004 C 
ATOM     15  C   UNL     1       3.231   7.140  -7.911  0.00  0.00    +0.004 C 
ATOM     16  C   UNL     1       3.992   4.927  -8.504  0.00  0.00    +0.012 C 
ATOM     17  C   UNL     1       0.080   5.361  -9.130  0.00  0.00    +0.004 C 
ATOM     18  C   UNL     1      -1.840   5.690  -6.909  0.00  0.00    +0.004 C 
ATOM     19  C   UNL     1       0.059   7.414  -5.870  0.00  0.00    +0.004 C 
ATOM     20  C   UNL     1       1.185   5.414  -5.068  0.00  0.00    +0.004 C 
ATOM     21  C   UNL     1      -2.200   5.028  -5.559  0.00  0.00    +0.047 C 
ENDROOT
BRANCH   1  22
ATOM     22  C   UNL     1      -2.118   7.194  -4.688  0.00  0.00    +0.187 C 
ATOM     23  O   UNL     1      -3.247   7.266  -5.174  0.00  0.00    -0.292 OA
ATOM     24  C   UNL     1      -1.808   8.337  -3.762  0.00  0.00    +0.076 C 
ENDBRANCH   1  22
BRANCH   1  25
ATOM     25  O   UNL     1      -1.088   5.418  -3.401  0.00  0.00    -0.449 OA
BRANCH  25  27
ATOM     26  C   UNL     1      -1.973   5.972  -1.092  0.00  0.00    +0.121 C 
ATOM     27  C   UNL     1      -2.109   5.435  -2.446  0.00  0.00    +0.318 C 
ATOM     28  O   UNL     1      -3.057   4.653  -2.771  0.00  0.00    -0.250 OA
ENDBRANCH  25  27
ENDBRANCH   1  25
TORSDOF 3
ENDMDL
MODEL 3
REMARK VINA RESULT:      -8.8      2.880      4.666
REMARK  Name = 
REMARK  3 active torsions:
REMARK  status: ('A' for Active; 'I' for Inactive)
REMARK    1  A    between atoms: C_2  and  O_4
REMARK    2  A    between atoms: O_4  and  C_5
REMARK    3  A    between atoms: C_5  and  C_6
REMARK                            x       y       z     vdW  Elec       q    Type
REMARK                         _______ _______ _______ _____ _____    ______ ____
ROOT
ATOM      1  C   UNL     1       1.912   5.234  -8.906  0.00  0.00    +0.186 C 
ATOM      2  C   UNL     1       0.936   5.646  -7.894  0.00  0.00    +0.040 C 
ATOM      3  C   UNL     1       1.185   4.617  -6.663  0.00  0.00    +0.004 C 
ATOM      4  C   UNL     1       0.864   5.827  -5.535  0.00  0.00    +0.001 C 
ATOM      5  C   UNL     1      -0.712   5.220  -5.476  0.00  0.00    +0.003 C 
ATOM      6  C   UNL     1      -1.156   6.087  -6.777  0.00  0.00    +0.000 C 
ATOM      7  C   UNL     1      -1.219   6.273  -4.362  0.00  0.00    +0.016 C 
ATOM      8  C   UNL     1      -0.400   6.092  -3.151  0.00  0.00    -0.042 C 
ATOM      9  C   UNL     1      -0.823   6.796  -2.096  0.00  0.00    +0.029 C 
ATOM     10  C   UNL     1      -2.269   6.698  -1.841  0.00  0.00    +0.173 C 
ATOM     11  C   UNL     1      -2.901   5.578  -2.610  0.00  0.00    +0.069 C 
ATOM     12  O   UNL     1      -2.750   6.908  -0.697  0.00  0.00    -0.291 OA
ATOM     13  C   UNL     1       1.177   6.345  -3.314  0.00  0.00    +0.018 C 
ATOM     14  C   UNL     1       1.544   5.538  -1.940  0.00  0.00    +0.004 C 
ATOM     15  C   UNL     1      -1.361   7.623  -4.875  0.00  0.00    +0.004 C 
ATOM     16  C   UNL     1      -2.577   5.702  -4.062  0.00  0.00    +0.012 C 
ATOM     17  C   UNL     1       1.341   5.000  -4.245  0.00  0.00    +0.004 C 
ATOM     18  C   UNL     1       2.787   4.822  -6.815  0.00  0.00    +0.004 C 
ATOM     19  C   UNL     1       1.281   7.034  -7.516  0.00  0.00    +0.004 C 
ATOM     20  C   UNL     1      -0.500   5.452  -8.004  0.00  0.00    +0.004 C 
ATOM     21  C   UNL     1       2.668   4.115  -8.184  0.00  0.00    +0.047 C 
ENDROOT
BRANCH   1  22
ATOM     22  C   UNL     1       3.023   6.234  -9.100  0.00  0.00    +0.187 C 
ATOM     23  O   UNL     1       2.934   7.405  -8.727  0.00  0.00    -0.292 OA
ATOM     24  C   UNL     1       4.443   5.810  -9.358  0.00  0.00    +0.076 C 
ENDBRANCH   1  22
BRANCH   1  25
ATOM     25  O   UNL     1       1.298   4.850 -10.090  0.00  0.00    -0.449 OA
BRANCH  25  27
ATOM     26  C   UNL     1       0.171   6.784 -11.277  0.00  0.00    +0.121 C 
ATOM     27  C   UNL     1       1.201   5.752 -11.154  0.00  0.00    +0.318 C 
ATOM     28  O   UNL     1       1.903   5.375 -12.144  0.00  0.00    -0.250 OA
ENDBRANCH  25  27
ENDBRANCH   1  25
TORSDOF 3
ENDMDL
MODEL 4
REMARK VINA RESULT:      -8.7      2.954      6.893
REMARK  Name = 
REMARK  3 active torsions:
REMARK  status: ('A' for Active; 'I' for Inactive)
REMARK    1  A    between atoms: C_2  and  O_4
REMARK    2  A    between atoms: O_4  and  C_5
REMARK    3  A    between atoms: C_5  and  C_6
REMARK                            x       y       z     vdW  Elec       q    Type
REMARK                         _______ _______ _______ _____ _____    ______ ____
ROOT
ATOM      1  C   UNL     1       2.698   6.264  -4.964  0.00  0.00    +0.186 C 
ATOM      2  C   UNL     1       2.049   6.114  -6.269  0.00  0.00    +0.040 C 
ATOM      3  C   UNL     1       2.905   7.084  -7.251  0.00  0.00    +0.004 C 
ATOM      4  C   UNL     1       2.725   6.008  -8.535  0.00  0.00    +0.001 C 
ATOM      5  C   UNL     1       1.426   6.968  -9.031  0.00  0.00    +0.003 C 
ATOM      6  C   UNL     1       0.402   6.199  -8.029  0.00  0.00    +0.000 C 
ATOM      7  C   UNL     1       1.104   6.087 -10.346  0.00  0.00    +0.016 C 
ATOM      8  C   UNL     1       2.297   6.099 -11.211  0.00  0.00    -0.042 C 
ATOM      9  C   UNL     1       2.108   5.538 -12.410  0.00  0.00    +0.029 C 
ATOM     10  C   UNL     1       0.884   5.976 -13.099  0.00  0.00    +0.173 C 
ATOM     11  C   UNL     1       0.287   7.195 -12.465  0.00  0.00    +0.069 C 
ATOM     12  O   UNL     1       0.777   5.910 -14.351  0.00  0.00    -0.291 OA
ATOM     13  C   UNL     1       3.639   5.482 -10.581  0.00  0.00    +0.018 C 
ATOM     14  C   UNL     1       4.603   6.212 -11.682  0.00  0.00    +0.004 C 
ATOM     15  C   UNL     1       0.517   4.796 -10.040  0.00  0.00    +0.004 C 
ATOM     16  C   UNL     1       0.078   6.965 -11.004  0.00  0.00    +0.012 C 
ATOM     17  C   UNL     1       3.768   6.730  -9.519  0.00  0.00    +0.004 C 
ATOM     18  C   UNL     1       4.283   6.508  -6.618  0.00  0.00    +0.004 C 
ATOM     19  C   UNL     1       2.196   4.693  -6.652  0.00  0.00    +0.004 C 
ATOM     20  C   UNL     1       0.734   6.635  -6.602  0.00  0.00    +0.004 C 
ATOM     21  C   UNL     1       3.870   7.192  -5.296  0.00  0.00    +0.047 C 
ENDROOT
BRANCH   1  22
ATOM     22  C   UNL     1       3.442   5.028  -4.527  0.00  0.00    +0.187 C 
ATOM     23  O   UNL     1       3.240   3.920  -5.026  0.00  0.00    -0.292 OA
ATOM     24  C   UNL     1       4.748   5.103  -3.785  0.00  0.00    +0.076 C 
ENDBRANCH   1  22
BRANCH   1  25
ATOM     25  O   UNL     1       1.823   6.753  -4.005  0.00  0.00    -0.449 OA
BRANCH  25  27
ATOM     26  C   UNL     1       0.023   5.154  -3.217  0.00  0.00    +0.121 C 
ATOM     27  C   UNL     1       1.276   5.891  -3.050  0.00  0.00    +0.318 C 
ATOM     28  O   UNL     1       1.812   6.063  -1.911  0.00  0.00    -0.250 OA
ENDBRANCH  25  27
ENDBRANCH   1  25
TORSDOF 3
ENDMDL
MODEL 5
REMARK VINA RESULT:      -8.6      2.390      6.898
REMARK  Name = 
REMARK  3 active torsions:
REMARK  status: ('A' for Active; 'I' for Inactive)
REMARK    1  A    between atoms: C_2  and  O_4
REMARK    2  A    between atoms: O_4  and  C_5
REMARK    3  A    between atoms: C_5  and  C_6
REMARK                            x       y       z     vdW  Elec       q    Type
REMARK                         _______ _______ _______ _____ _____    ______ ____
ROOT
ATOM      1  C   UNL     1       2.987   5.203  -5.539  0.00  0.00    +0.186 C 
ATOM      2  C   UNL     1       3.443   5.507  -6.898  0.00  0.00    +0.040 C 
ATOM      3  C   UNL     1       2.675   4.416  -7.825  0.00  0.00    +0.004 C 
ATOM      4  C   UNL     1       2.501   5.540  -9.070  0.00  0.00    +0.001 C 
ATOM      5  C   UNL     1       3.890   4.858  -9.748  0.00  0.00    +0.003 C 
ATOM      6  C   UNL     1       4.861   5.783  -8.829  0.00  0.00    +0.000 C 
ATOM      7  C   UNL     1       3.888   5.817 -11.048  0.00  0.00    +0.016 C 
ATOM      8  C   UNL     1       2.626   5.600 -11.778  0.00  0.00    -0.042 C 
ATOM      9  C   UNL     1       2.568   6.217 -12.962  0.00  0.00    +0.029 C 
ATOM     10  C   UNL     1       3.764   6.039 -13.800  0.00  0.00    +0.173 C 
ATOM     11  C   UNL     1       4.647   4.941 -13.292  0.00  0.00    +0.069 C 
ATOM     12  O   UNL     1       3.711   6.156 -15.052  0.00  0.00    -0.291 OA
ATOM     13  C   UNL     1       1.275   5.934 -10.977  0.00  0.00    +0.018 C 
ATOM     14  C   UNL     1       0.343   5.061 -12.000  0.00  0.00    +0.004 C 
ATOM     15  C   UNL     1       4.255   7.189 -10.747  0.00  0.00    +0.004 C 
ATOM     16  C   UNL     1       4.978   5.168 -11.854  0.00  0.00    +0.012 C 
ATOM     17  C   UNL     1       1.505   4.657  -9.967  0.00  0.00    +0.004 C 
ATOM     18  C   UNL     1       1.296   4.703  -7.021  0.00  0.00    +0.004 C 
ATOM     19  C   UNL     1       2.990   6.884  -7.196  0.00  0.00    +0.004 C 
ATOM     20  C   UNL     1       4.784   5.255  -7.396  0.00  0.00    +0.004 C 
ATOM     21  C   UNL     1       1.979   4.077  -5.784  0.00  0.00    +0.047 C 
ENDROOT
BRANCH   1  22
ATOM     22  C   UNL     1       2.081   6.263  -4.966  0.00  0.00    +0.187 C 
ATOM     23  O   UNL     1       1.947   7.372  -5.484  0.00  0.00    -0.292 OA
ATOM     24  C   UNL     1       0.975   5.931  -4.003  0.00  0.00    +0.076 C 
ENDBRANCH   1  22
BRANCH   1  25
ATOM     25  O   UNL     1       4.043   4.865  -4.704  0.00  0.00    -0.449 OA
BRANCH  25  27
ATOM     26  C   UNL     1       5.391   6.916  -4.073  0.00  0.00    +0.121 C 
ATOM     27  C   UNL     1       4.516   5.785  -3.763  0.00  0.00    +0.318 C 
ATOM     28  O   UNL     1       4.364   5.352  -2.578  0.00  0.00    -0.250 OA
ENDBRANCH  25  27
ENDBRANCH   1  25
TORSDOF 3
ENDMDL
MODEL 6
REMARK VINA RESULT:      -8.4      2.520      5.019
REMARK  Name = 
REMARK  3 active torsions:
REMARK  status: ('A' for Active; 'I' for Inactive)
REMARK    1  A    between atoms: C_2  and  O_4
REMARK    2  A    between atoms: O_4  and  C_5
REMARK    3  A    between atoms: C_5  and  C_6
REMARK                            x       y       z     vdW  Elec       q    Type
REMARK                         _______ _______ _______ _____ _____    ______ ____
ROOT
ATOM      1  C   UNL     1       2.196   6.026  -9.323  0.00  0.00    +0.186 C 
ATOM      2  C   UNL     1       2.865   5.934  -8.023  0.00  0.00    +0.040 C 
ATOM      3  C   UNL     1       1.942   6.838  -7.039  0.00  0.00    +0.004 C 
ATOM      4  C   UNL     1       2.215   5.785  -5.751  0.00  0.00    +0.001 C 
ATOM      5  C   UNL     1       3.438   6.848  -5.269  0.00  0.00    +0.003 C 
ATOM      6  C   UNL     1       4.512   6.157  -6.275  0.00  0.00    +0.000 C 
ATOM      7  C   UNL     1       3.838   6.001  -3.953  0.00  0.00    +0.016 C 
ATOM      8  C   UNL     1       2.654   5.923  -3.079  0.00  0.00    -0.042 C 
ATOM      9  C   UNL     1       2.896   5.384  -1.880  0.00  0.00    +0.029 C 
ATOM     10  C   UNL     1       4.086   5.921  -1.201  0.00  0.00    +0.173 C 
ATOM     11  C   UNL     1       4.580   7.180  -1.845  0.00  0.00    +0.069 C 
ATOM     12  O   UNL     1       4.207   5.869   0.050  0.00  0.00    -0.291 OA
ATOM     13  C   UNL     1       1.361   5.198  -3.697  0.00  0.00    +0.018 C 
ATOM     14  C   UNL     1       0.350   5.855  -2.592  0.00  0.00    +0.004 C 
ATOM     15  C   UNL     1       4.523   4.760  -4.258  0.00  0.00    +0.004 C 
ATOM     16  C   UNL     1       4.796   6.961  -3.306  0.00  0.00    +0.012 C 
ATOM     17  C   UNL     1       1.126   6.427  -4.763  0.00  0.00    +0.004 C 
ATOM     18  C   UNL     1       0.609   6.151  -7.658  0.00  0.00    +0.004 C 
ATOM     19  C   UNL     1       2.834   4.508  -7.633  0.00  0.00    +0.004 C 
ATOM     20  C   UNL     1       4.137   6.559  -7.702  0.00  0.00    +0.004 C 
ATOM     21  C   UNL     1       0.957   6.860  -8.987  0.00  0.00    +0.047 C 
ENDROOT
BRANCH   1  22
ATOM     22  C   UNL     1       1.550   4.733  -9.750  0.00  0.00    +0.187 C 
ATOM     23  O   UNL     1       1.847   3.647  -9.252  0.00  0.00    -0.292 OA
ATOM     24  C   UNL     1       0.233   4.701 -10.476  0.00  0.00    +0.076 C 
ENDBRANCH   1  22
BRANCH   1  25
ATOM     25  O   UNL     1       3.023   6.579 -10.291  0.00  0.00    -0.449 OA
BRANCH  25  27
ATOM     26  C   UNL     1       5.022   5.222 -11.055  0.00  0.00    +0.121 C 
ATOM     27  C   UNL     1       3.668   5.754 -11.217  0.00  0.00    +0.318 C 
ATOM     28  O   UNL     1       3.081   5.778 -12.344  0.00  0.00    -0.250 OA
ENDBRANCH  25  27
ENDBRANCH   1  25
TORSDOF 3
ENDMDL
MODEL 7
REMARK VINA RESULT:      -8.3      2.948      4.652
REMARK  Name = 
REMARK  3 active torsions:
REMARK  status: ('A' for Active; 'I' for Inactive)
REMARK    1  A    between atoms: C_2  and  O_4
REMARK    2  A    between atoms: O_4  and  C_5
REMARK    3  A    between atoms: C_5  and  C_6
REMARK                            x       y       z     vdW  Elec       q    Type
REMARK                         _______ _______ _______ _____ _____    ______ ____
ROOT
ATOM      1  C   UNL     1       1.753   5.068  -9.291  0.00  0.00    +0.186 C 
ATOM      2  C   UNL     1       1.286   5.422  -7.948  0.00  0.00    +0.040 C 
ATOM      3  C   UNL     1       2.033   4.354  -6.977  0.00  0.00    +0.004 C 
ATOM      4  C   UNL     1       2.206   5.517  -5.768  0.00  0.00    +0.001 C 
ATOM      5  C   UNL     1       0.803   4.872  -5.083  0.00  0.00    +0.003 C 
ATOM      6  C   UNL     1      -0.149   5.775  -6.042  0.00  0.00    +0.000 C 
ATOM      7  C   UNL     1       0.801   5.873  -3.815  0.00  0.00    +0.016 C 
ATOM      8  C   UNL     1       2.053   5.668  -3.065  0.00  0.00    -0.042 C 
ATOM      9  C   UNL     1       2.105   6.323  -1.901  0.00  0.00    +0.029 C 
ATOM     10  C   UNL     1       0.899   6.184  -1.071  0.00  0.00    +0.173 C 
ATOM     11  C   UNL     1       0.010   5.079  -1.552  0.00  0.00    +0.069 C 
ATOM     12  O   UNL     1       0.939   6.343   0.177  0.00  0.00    -0.291 OA
ATOM     13  C   UNL     1       3.416   5.961  -3.862  0.00  0.00    +0.018 C 
ATOM     14  C   UNL     1       4.327   5.113  -2.801  0.00  0.00    +0.004 C 
ATOM     15  C   UNL     1       0.452   7.237  -4.165  0.00  0.00    +0.004 C 
ATOM     16  C   UNL     1      -0.303   5.262  -3.000  0.00  0.00    +0.012 C 
ATOM     17  C   UNL     1       3.183   4.654  -4.831  0.00  0.00    +0.004 C 
ATOM     18  C   UNL     1       3.423   4.600  -7.776  0.00  0.00    +0.004 C 
ATOM     19  C   UNL     1       1.751   6.803  -7.690  0.00  0.00    +0.004 C 
ATOM     20  C   UNL     1      -0.063   5.200  -7.456  0.00  0.00    +0.004 C 
ATOM     21  C   UNL     1       2.746   3.941  -8.998  0.00  0.00    +0.047 C 
ENDROOT
BRANCH   1  22
ATOM     22  C   UNL     1       2.675   6.099  -9.889  0.00  0.00    +0.187 C 
ATOM     23  O   UNL     1       2.798   7.231  -9.420  0.00  0.00    -0.292 OA
ATOM     24  C   UNL     1       3.807   5.722 -10.805  0.00  0.00    +0.076 C 
ENDBRANCH   1  22
BRANCH   1  25
ATOM     25  O   UNL     1       0.702   4.713 -10.126  0.00  0.00    -0.449 OA
BRANCH  25  27
ATOM     26  C   UNL     1      -0.435   6.767 -11.080  0.00  0.00    +0.121 C 
ATOM     27  C   UNL     1       0.350   5.538 -11.199  0.00  0.00    +0.318 C 
ATOM     28  O   UNL     1       0.510   4.942 -12.310  0.00  0.00    -0.250 OA
ENDBRANCH  25  27
ENDBRANCH   1  25
TORSDOF 3
ENDMDL
MODEL 8
REMARK VINA RESULT:      -8.0      2.608      7.612
REMARK  Name = 
REMARK  3 active torsions:
REMARK  status: ('A' for Active; 'I' for Inactive)
REMARK    1  A    between atoms: C_2  and  O_4
REMARK    2  A    between atoms: O_4  and  C_5
REMARK    3  A    between atoms: C_5  and  C_6
REMARK                            x       y       z     vdW  Elec       q    Type
REMARK                         _______ _______ _______ _____ _____    ______ ____
ROOT
ATOM      1  C   UNL     1       0.202   6.000  -5.123  0.00  0.00    +0.186 C 
ATOM      2  C   UNL     1       0.282   5.710  -6.557  0.00  0.00    +0.040 C 
ATOM      3  C   UNL     1       1.038   7.005  -7.181  0.00  0.00    +0.004 C 
ATOM      4  C   UNL     1       1.845   6.041  -8.304  0.00  0.00    +0.001 C 
ATOM      5  C   UNL     1       0.627   6.461  -9.396  0.00  0.00    +0.003 C 
ATOM      6  C   UNL     1      -0.351   5.285  -8.845  0.00  0.00    +0.000 C 
ATOM      7  C   UNL     1       1.257   5.625 -10.627  0.00  0.00    +0.016 C 
ATOM      8  C   UNL     1       2.602   6.160 -10.905  0.00  0.00    -0.042 C 
ATOM      9  C   UNL     1       3.170   5.660 -12.007  0.00  0.00    +0.029 C 
ATOM     10  C   UNL     1       2.293   5.643 -13.189  0.00  0.00    +0.173 C 
ATOM     11  C   UNL     1       1.071   6.488 -12.994  0.00  0.00    +0.069 C 
ATOM     12  O   UNL     1       2.765   5.634 -14.355  0.00  0.00    -0.291 OA
ATOM     13  C   UNL     1       3.668   6.061  -9.709  0.00  0.00    +0.018 C 
ATOM     14  C   UNL     1       4.654   7.186 -10.370  0.00  0.00    +0.004 C 
ATOM     15  C   UNL     1       1.132   4.189 -10.464  0.00  0.00    +0.004 C 
ATOM     16  C   UNL     1       0.362   6.087 -11.742  0.00  0.00    +0.012 C 
ATOM     17  C   UNL     1       2.849   7.180  -8.826  0.00  0.00    +0.004 C 
ATOM     18  C   UNL     1       2.118   6.958  -5.972  0.00  0.00    +0.004 C 
ATOM     19  C   UNL     1       1.104   4.487  -6.694  0.00  0.00    +0.004 C 
ATOM     20  C   UNL     1      -0.853   5.708  -7.465  0.00  0.00    +0.004 C 
ATOM     21  C   UNL     1       0.955   7.330  -5.024  0.00  0.00    +0.047 C 
ENDROOT
BRANCH   1  22
ATOM     22  C   UNL     1       1.094   5.117  -4.289  0.00  0.00    +0.187 C 
ATOM     23  O   UNL     1       2.215   4.767  -4.659  0.00  0.00    -0.292 OA
ATOM     24  C   UNL     1       0.889   4.948  -2.809  0.00  0.00    +0.076 C 
ENDBRANCH   1  22
BRANCH   1  25
ATOM     25  O   UNL     1      -1.111   6.043  -4.677  0.00  0.00    -0.449 OA
BRANCH  25  27
ATOM     26  C   UNL     1      -1.954   7.427  -2.729  0.00  0.00    +0.121 C 
ATOM     27  C   UNL     1      -1.632   7.225  -4.142  0.00  0.00    +0.318 C 
ATOM     28  O   UNL     1      -2.089   7.982  -5.055  0.00  0.00    -0.250 OA
ENDBRANCH  25  27
ENDBRANCH   1  25
TORSDOF 3
ENDMDL
MODEL 9
REMARK VINA RESULT:      -7.9      2.054      7.296
REMARK  Name = 
REMARK  3 active torsions:
REMARK  status: ('A' for Active; 'I' for Inactive)
REMARK    1  A    between atoms: C_2  and  O_4
REMARK    2  A    between atoms: O_4  and  C_5
REMARK    3  A    between atoms: C_5  and  C_6
REMARK                            x       y       z     vdW  Elec       q    Type
REMARK                         _______ _______ _______ _____ _____    ______ ____
ROOT
ATOM      1  C   UNL     1       2.947   5.410  -7.075  0.00  0.00    +0.186 C 
ATOM      2  C   UNL     1       3.877   5.760  -8.152  0.00  0.00    +0.040 C 
ATOM      3  C   UNL     1       3.549   4.682  -9.322  0.00  0.00    +0.004 C 
ATOM      4  C   UNL     1       3.832   5.837 -10.518  0.00  0.00    +0.001 C 
ATOM      5  C   UNL     1       5.392   5.198 -10.628  0.00  0.00    +0.003 C 
ATOM      6  C   UNL     1       5.916   6.113  -9.391  0.00  0.00    +0.000 C 
ATOM      7  C   UNL     1       5.860   6.192 -11.812  0.00  0.00    +0.016 C 
ATOM      8  C   UNL     1       4.977   5.974 -12.972  0.00  0.00    -0.042 C 
ATOM      9  C   UNL     1       5.358   6.623 -14.077  0.00  0.00    +0.029 C 
ATOM     10  C   UNL     1       6.787   6.488 -14.399  0.00  0.00    +0.173 C 
ATOM     11  C   UNL     1       7.439   5.391 -13.614  0.00  0.00    +0.069 C 
ATOM     12  O   UNL     1       7.212   6.639 -15.574  0.00  0.00    -0.291 OA
ATOM     13  C   UNL     1       3.415   6.263 -12.741  0.00  0.00    +0.018 C 
ATOM     14  C   UNL     1       2.966   5.403 -14.058  0.00  0.00    +0.004 C 
ATOM     15  C   UNL     1       6.049   7.561 -11.368  0.00  0.00    +0.004 C 
ATOM     16  C   UNL     1       7.191   5.585 -12.154  0.00  0.00    +0.012 C 
ATOM     17  C   UNL     1       3.276   4.963 -11.744  0.00  0.00    +0.004 C 
ATOM     18  C   UNL     1       1.960   4.924  -9.099  0.00  0.00    +0.004 C 
ATOM     19  C   UNL     1       3.535   7.136  -8.574  0.00  0.00    +0.004 C 
ATOM     20  C   UNL     1       5.313   5.545  -8.106  0.00  0.00    +0.004 C 
ATOM     21  C   UNL     1       2.138   4.275  -7.708  0.00  0.00    +0.047 C 
ENDROOT
BRANCH   1  22
ATOM     22  C   UNL     1       1.863   6.438  -6.870  0.00  0.00    +0.187 C 
ATOM     23  O   UNL     1       2.020   7.630  -7.141  0.00  0.00    -0.292 OA
ATOM     24  C   UNL     1       0.415   6.056  -6.738  0.00  0.00    +0.076 C 
ENDBRANCH   1  22
BRANCH   1  25
ATOM     25  O   UNL     1       3.614   5.067  -5.907  0.00  0.00    -0.449 OA
BRANCH  25  27
ATOM     26  C   UNL     1       4.622   7.071  -4.729  0.00  0.00    +0.121 C 
ATOM     27  C   UNL     1       3.667   5.969  -4.840  0.00  0.00    +0.318 C 
ATOM     28  O   UNL     1       3.014   5.536  -3.839  0.00  0.00    -0.250 OA
ENDBRANCH  25  27
ENDBRANCH   1  25
TORSDOF 3
ENDMDL
