MODEL 1
REMARK VINA RESULT:      -5.9      0.000      0.000
REMARK  Name = 
REMARK  2 active torsions:
REMARK  status: ('A' for Active; 'I' for Inactive)
REMARK    1  A    between atoms: C_7  and  C_8
REMARK    2  A    between atoms: C_9  and  C_10
REMARK                            x       y       z     vdW  Elec       q    Type
REMARK                         _______ _______ _______ _____ _____    ______ ____
ROOT
ATOM      1  C   UNL     1       0.173   5.786  -9.095  0.00  0.00    +0.254 C 
ATOM      2  N   UNL     1       0.746   5.406  -7.807  0.00  0.00    -0.187 N 
ATOM      3  C   UNL     1      -0.158   5.338  -6.697  0.00  0.00    +0.319 C 
ATOM      4  N   UNL     1       0.319   4.706  -5.663  0.00  0.00    -0.065 NA
ATOM      5  C   UNL     1       1.731   4.771  -5.342  0.00  0.00    +0.267 C 
ATOM      6  C   UNL     1       2.484   4.221  -6.522  0.00  0.00    +0.109 C 
ATOM      7  C   UNL     1       2.042   4.795  -7.832  0.00  0.00    +0.207 C 
ENDROOT
BRANCH   3   8
ATOM      8  C   UNL     1      -1.596   5.130  -6.910  0.00  0.00    +0.089 C 
ATOM      9  C   UNL     1      -2.410   5.896  -6.236  0.00  0.00    +0.014 C 
BRANCH   9  10
ATOM     10  C   UNL     1      -2.158   6.041  -4.795  0.00  0.00    +0.030 A 
ATOM     11  S   UNL     1      -1.943   7.573  -4.046  0.00  0.00    -0.086 S 
ATOM     12  C   UNL     1      -2.419   7.166  -2.446  0.00  0.00    +0.035 A 
ATOM     13  C   UNL     1      -2.420   5.778  -2.547  0.00  0.00    +0.007 A 
ATOM     14  C   UNL     1      -2.880   5.392  -3.798  0.00  0.00    +0.007 A 
ENDBRANCH   9  10
ENDBRANCH   3   8
TORSDOF 2
ENDMDL
MODEL 2
REMARK VINA RESULT:      -5.6      2.845      4.964
REMARK  Name = 
REMARK  2 active torsions:
REMARK  status: ('A' for Active; 'I' for Inactive)
REMARK    1  A    between atoms: C_7  and  C_8
REMARK    2  A    between atoms: C_9  and  C_10
REMARK                            x       y       z     vdW  Elec       q    Type
REMARK                         _______ _______ _______ _____ _____    ______ ____
ROOT
ATOM      1  C   UNL     1       0.139   5.447  -8.476  0.00  0.00    +0.254 C 
ATOM      2  N   UNL     1      -0.260   5.709  -7.097  0.00  0.00    -0.187 N 
ATOM      3  C   UNL     1       0.650   6.476  -6.300  0.00  0.00    +0.319 C 
ATOM      4  N   UNL     1       0.129   6.944  -5.202  0.00  0.00    -0.065 NA
ATOM      5  C   UNL     1      -0.883   6.193  -4.484  0.00  0.00    +0.267 C 
ATOM      6  C   UNL     1      -2.043   5.998  -5.420  0.00  0.00    +0.109 C 
ATOM      7  C   UNL     1      -1.641   5.502  -6.774  0.00  0.00    +0.207 C 
ENDROOT
BRANCH   3   8
ATOM      8  C   UNL     1       1.622   7.379  -6.928  0.00  0.00    +0.089 C 
ATOM      9  C   UNL     1       2.881   7.044  -6.844  0.00  0.00    +0.014 C 
BRANCH   9  10
ATOM     10  C   UNL     1       3.384   6.649  -5.520  0.00  0.00    +0.030 A 
ATOM     11  S   UNL     1       3.732   5.015  -5.116  0.00  0.00    -0.086 S 
ATOM     12  C   UNL     1       4.883   5.281  -3.867  0.00  0.00    +0.035 A 
ATOM     13  C   UNL     1       4.682   6.640  -3.648  0.00  0.00    +0.007 A 
ATOM     14  C   UNL     1       4.425   7.284  -4.850  0.00  0.00    +0.007 A 
ENDBRANCH   9  10
ENDBRANCH   3   8
TORSDOF 2
ENDMDL
MODEL 3
REMARK VINA RESULT:      -5.5      5.147      6.462
REMARK  Name = 
REMARK  2 active torsions:
REMARK  status: ('A' for Active; 'I' for Inactive)
REMARK    1  A    between atoms: C_7  and  C_8
REMARK    2  A    between atoms: C_9  and  C_10
REMARK                            x       y       z     vdW  Elec       q    Type
REMARK                         _______ _______ _______ _____ _____    ______ ____
ROOT
ATOM      1  C   UNL     1       3.551   6.148 -11.347  0.00  0.00    +0.254 C 
ATOM      2  N   UNL     1       4.922   6.306 -10.872  0.00  0.00    -0.187 N 
ATOM      3  C   UNL     1       5.230   5.731  -9.596  0.00  0.00    +0.319 C 
ATOM      4  N   UNL     1       6.505   5.621  -9.357  0.00  0.00    -0.065 NA
ATOM      5  C   UNL     1       7.441   6.606  -9.864  0.00  0.00    +0.267 C 
ATOM      6  C   UNL     1       7.319   6.610 -11.362  0.00  0.00    +0.109 C 
ATOM      7  C   UNL     1       5.903   6.683 -11.846  0.00  0.00    +0.207 C 
ENDROOT
BRANCH   3   8
ATOM      8  C   UNL     1       4.426   4.627  -9.055  0.00  0.00    +0.089 C 
ATOM      9  C   UNL     1       3.477   4.943  -8.216  0.00  0.00    +0.014 C 
BRANCH   9  10
ATOM     10  C   UNL     1       3.826   5.860  -7.121  0.00  0.00    +0.030 A 
ATOM     11  S   UNL     1       2.680   6.924  -6.409  0.00  0.00    -0.086 S 
ATOM     12  C   UNL     1       3.411   7.123  -4.867  0.00  0.00    +0.035 A 
ATOM     13  C   UNL     1       4.665   6.581  -5.130  0.00  0.00    +0.007 A 
ATOM     14  C   UNL     1       4.545   5.496  -5.987  0.00  0.00    +0.007 A 
ENDBRANCH   9  10
ENDBRANCH   3   8
TORSDOF 2
ENDMDL
MODEL 4
REMARK VINA RESULT:      -5.4      2.741      5.189
REMARK  Name = 
REMARK  2 active torsions:
REMARK  status: ('A' for Active; 'I' for Inactive)
REMARK    1  A    between atoms: C_7  and  C_8
REMARK    2  A    between atoms: C_9  and  C_10
REMARK                            x       y       z     vdW  Elec       q    Type
REMARK                         _______ _______ _______ _____ _____    ______ ____
ROOT
ATOM      1  C   UNL     1      -1.731   7.061  -3.166  0.00  0.00    +0.254 C 
ATOM      2  N   UNL     1      -1.216   6.447  -4.386  0.00  0.00    -0.187 N 
ATOM      3  C   UNL     1       0.043   5.773  -4.284  0.00  0.00    +0.319 C 
ATOM      4  N   UNL     1       0.309   4.990  -5.291  0.00  0.00    -0.065 NA
ATOM      5  C   UNL     1      -0.137   5.327  -6.629  0.00  0.00    +0.267 C 
ATOM      6  C   UNL     1      -1.636   5.426  -6.590  0.00  0.00    +0.109 C 
ATOM      7  C   UNL     1      -2.151   6.257  -5.456  0.00  0.00    +0.207 C 
ENDROOT
BRANCH   3   8
ATOM      8  C   UNL     1       0.522   5.264  -2.993  0.00  0.00    +0.089 C 
ATOM      9  C   UNL     1       1.556   5.863  -2.468  0.00  0.00    +0.014 C 
BRANCH   9  10
ATOM     10  C   UNL     1       2.712   6.100  -3.344  0.00  0.00    +0.030 A 
ATOM     11  S   UNL     1       3.669   7.523  -3.243  0.00  0.00    -0.086 S 
ATOM     12  C   UNL     1       5.137   6.915  -3.898  0.00  0.00    +0.035 A 
ATOM     13  C   UNL     1       4.676   5.716  -4.433  0.00  0.00    +0.007 A 
ATOM     14  C   UNL     1       3.709   5.165  -3.605  0.00  0.00    +0.007 A 
ENDBRANCH   9  10
ENDBRANCH   3   8
TORSDOF 2
ENDMDL
MODEL 5
REMARK VINA RESULT:      -5.4      2.634      5.123
REMARK  Name = 
REMARK  2 active torsions:
REMARK  status: ('A' for Active; 'I' for Inactive)
REMARK    1  A    between atoms: C_7  and  C_8
REMARK    2  A    between atoms: C_9  and  C_10
REMARK                            x       y       z     vdW  Elec       q    Type
REMARK                         _______ _______ _______ _____ _____    ______ ____
ROOT
ATOM      1  C   UNL     1      -2.389   5.546  -6.046  0.00  0.00    +0.254 C 
ATOM      2  N   UNL     1      -1.984   5.566  -4.644  0.00  0.00    -0.187 N 
ATOM      3  C   UNL     1      -0.720   6.173  -4.349  0.00  0.00    +0.319 C 
ATOM      4  N   UNL     1      -0.544   6.447  -3.088  0.00  0.00    -0.065 NA
ATOM      5  C   UNL     1      -1.106   5.593  -2.060  0.00  0.00    +0.267 C 
ATOM      6  C   UNL     1      -2.597   5.577  -2.256  0.00  0.00    +0.109 C 
ATOM      7  C   UNL     1      -3.009   5.322  -3.673  0.00  0.00    +0.207 C 
ENDROOT
BRANCH   3   8
ATOM      8  C   UNL     1      -0.129   7.161  -5.260  0.00  0.00    +0.089 C 
ATOM      9  C   UNL     1       0.969   6.815  -5.876  0.00  0.00    +0.014 C 
BRANCH   9  10
ATOM     10  C   UNL     1       2.038   6.220  -5.061  0.00  0.00    +0.030 A 
ATOM     11  S   UNL     1       2.773   4.719  -5.460  0.00  0.00    -0.086 S 
ATOM     12  C   UNL     1       4.286   4.938  -4.675  0.00  0.00    +0.035 A 
ATOM     13  C   UNL     1       3.988   6.051  -3.897  0.00  0.00    +0.007 A 
ATOM     14  C   UNL     1       3.151   6.911  -4.594  0.00  0.00    +0.007 A 
ENDBRANCH   9  10
ENDBRANCH   3   8
TORSDOF 2
ENDMDL
MODEL 6
REMARK VINA RESULT:      -5.3      3.801      5.126
REMARK  Name = 
REMARK  2 active torsions:
REMARK  status: ('A' for Active; 'I' for Inactive)
REMARK    1  A    between atoms: C_7  and  C_8
REMARK    2  A    between atoms: C_9  and  C_10
REMARK                            x       y       z     vdW  Elec       q    Type
REMARK                         _______ _______ _______ _____ _____    ______ ____
ROOT
ATOM      1  C   UNL     1       2.127   3.690  -6.393  0.00  0.00    +0.254 C 
ATOM      2  N   UNL     1       2.088   5.062  -6.890  0.00  0.00    -0.187 N 
ATOM      3  C   UNL     1       3.079   5.959  -6.375  0.00  0.00    +0.319 C 
ATOM      4  N   UNL     1       3.205   7.059  -7.061  0.00  0.00    -0.065 NA
ATOM      5  C   UNL     1       2.057   7.666  -7.705  0.00  0.00    +0.267 C 
ATOM      6  C   UNL     1       1.503   6.659  -8.674  0.00  0.00    +0.109 C 
ATOM      7  C   UNL     1       1.327   5.295  -8.081  0.00  0.00    +0.207 C 
ENDROOT
BRANCH   3   8
ATOM      8  C   UNL     1       4.344   5.451  -5.829  0.00  0.00    +0.089 C 
ATOM      9  C   UNL     1       4.404   5.283  -4.536  0.00  0.00    +0.014 C 
BRANCH   9  10
ATOM     10  C   UNL     1       3.932   6.391  -3.692  0.00  0.00    +0.030 A 
ATOM     11  S   UNL     1       2.870   6.149  -2.364  0.00  0.00    -0.086 S 
ATOM     12  C   UNL     1       3.279   7.532  -1.430  0.00  0.00    +0.035 A 
ATOM     13  C   UNL     1       4.003   8.249  -2.376  0.00  0.00    +0.007 A 
ATOM     14  C   UNL     1       4.751   7.382  -3.161  0.00  0.00    +0.007 A 
ENDBRANCH   9  10
ENDBRANCH   3   8
TORSDOF 2
ENDMDL
MODEL 7
REMARK VINA RESULT:      -5.3      4.612      7.191
REMARK  Name = 
REMARK  2 active torsions:
REMARK  status: ('A' for Active; 'I' for Inactive)
REMARK    1  A    between atoms: C_7  and  C_8
REMARK    2  A    between atoms: C_9  and  C_10
REMARK                            x       y       z     vdW  Elec       q    Type
REMARK                         _______ _______ _______ _____ _____    ______ ____
ROOT
ATOM      1  C   UNL     1       2.444   4.066  -7.804  0.00  0.00    +0.254 C 
ATOM      2  N   UNL     1       2.876   5.114  -6.884  0.00  0.00    -0.187 N 
ATOM      3  C   UNL     1       3.129   6.404  -7.453  0.00  0.00    +0.319 C 
ATOM      4  N   UNL     1       3.204   7.365  -6.577  0.00  0.00    -0.065 NA
ATOM      5  C   UNL     1       3.754   7.122  -5.257  0.00  0.00    +0.267 C 
ATOM      6  C   UNL     1       2.909   6.061  -4.608  0.00  0.00    +0.109 C 
ATOM      7  C   UNL     1       2.662   4.874  -5.487  0.00  0.00    +0.207 C 
ENDROOT
BRANCH   3   8
ATOM      8  C   UNL     1       2.504   6.803  -8.720  0.00  0.00    +0.089 C 
ATOM      9  C   UNL     1       3.122   6.460  -9.818  0.00  0.00    +0.014 C 
BRANCH   9  10
ATOM     10  C   UNL     1       4.564   6.734  -9.891  0.00  0.00    +0.030 A 
ATOM     11  S   UNL     1       5.749   5.544  -9.525  0.00  0.00    -0.086 S 
ATOM     12  C   UNL     1       7.058   6.167 -10.448  0.00  0.00    +0.035 A 
ATOM     13  C   UNL     1       6.561   7.434 -10.734  0.00  0.00    +0.007 A 
ATOM     14  C   UNL     1       5.192   7.372 -10.956  0.00  0.00    +0.007 A 
ENDBRANCH   9  10
ENDBRANCH   3   8
TORSDOF 2
ENDMDL
MODEL 8
REMARK VINA RESULT:      -5.3      4.494      5.432
REMARK  Name = 
REMARK  2 active torsions:
REMARK  status: ('A' for Active; 'I' for Inactive)
REMARK    1  A    between atoms: C_7  and  C_8
REMARK    2  A    between atoms: C_9  and  C_10
REMARK                            x       y       z     vdW  Elec       q    Type
REMARK                         _______ _______ _______ _____ _____    ______ ____
ROOT
ATOM      1  C   UNL     1       0.787   5.277 -10.163  0.00  0.00    +0.254 C 
ATOM      2  N   UNL     1       2.214   5.454 -10.416  0.00  0.00    -0.187 N 
ATOM      3  C   UNL     1       3.109   4.976  -9.405  0.00  0.00    +0.319 C 
ATOM      4  N   UNL     1       4.346   4.869  -9.799  0.00  0.00    -0.065 NA
ATOM      5  C   UNL     1       4.898   5.800 -10.764  0.00  0.00    +0.267 C 
ATOM      6  C   UNL     1       4.074   5.689 -12.016  0.00  0.00    +0.109 C 
ATOM      7  C   UNL     1       2.598   5.742 -11.766  0.00  0.00    +0.207 C 
ENDROOT
BRANCH   3   8
ATOM      8  C   UNL     1       2.692   3.928  -8.465  0.00  0.00    +0.089 C 
ATOM      9  C   UNL     1       2.342   4.313  -7.268  0.00  0.00    +0.014 C 
BRANCH   9  10
ATOM     10  C   UNL     1       3.241   5.246  -6.573  0.00  0.00    +0.030 A 
ATOM     11  S   UNL     1       2.841   6.899  -6.324  0.00  0.00    -0.086 S 
ATOM     12  C   UNL     1       3.814   7.212  -4.942  0.00  0.00    +0.035 A 
ATOM     13  C   UNL     1       4.619   6.078  -4.961  0.00  0.00    +0.007 A 
ATOM     14  C   UNL     1       3.881   4.975  -5.367  0.00  0.00    +0.007 A 
ENDBRANCH   9  10
ENDBRANCH   3   8
TORSDOF 2
ENDMDL
MODEL 9
REMARK VINA RESULT:      -5.2      5.088      6.539
REMARK  Name = 
REMARK  2 active torsions:
REMARK  status: ('A' for Active; 'I' for Inactive)
REMARK    1  A    between atoms: C_7  and  C_8
REMARK    2  A    between atoms: C_9  and  C_10
REMARK                            x       y       z     vdW  Elec       q    Type
REMARK                         _______ _______ _______ _____ _____    ______ ____
ROOT
ATOM      1  C   UNL     1       4.233   5.292  -7.061  0.00  0.00    +0.254 C 
ATOM      2  N   UNL     1       4.759   5.593  -8.389  0.00  0.00    -0.187 N 
ATOM      3  C   UNL     1       3.928   6.389  -9.243  0.00  0.00    +0.319 C 
ATOM      4  N   UNL     1       4.549   6.887 -10.273  0.00  0.00    -0.065 NA
ATOM      5  C   UNL     1       5.622   6.154 -10.917  0.00  0.00    +0.267 C 
ATOM      6  C   UNL     1       6.690   5.925  -9.884  0.00  0.00    +0.109 C 
ATOM      7  C   UNL     1       6.164   5.391  -8.588  0.00  0.00    +0.207 C 
ENDROOT
BRANCH   3   8
ATOM      8  C   UNL     1       2.903   7.276  -8.680  0.00  0.00    +0.089 C 
ATOM      9  C   UNL     1       1.665   6.867  -8.749  0.00  0.00    +0.014 C 
BRANCH   9  10
ATOM     10  C   UNL     1       1.195   6.359 -10.046  0.00  0.00    +0.030 A 
ATOM     11  S   UNL     1       0.784   4.710 -10.296  0.00  0.00    -0.086 S 
ATOM     12  C   UNL     1      -0.303   4.895 -11.614  0.00  0.00    +0.035 A 
ATOM     13  C   UNL     1      -0.027   6.213 -11.962  0.00  0.00    +0.007 A 
ATOM     14  C   UNL     1       0.214   6.967 -10.822  0.00  0.00    +0.007 A 
ENDBRANCH   9  10
ENDBRANCH   3   8
TORSDOF 2
ENDMDL
