MODEL 1
REMARK VINA RESULT:      -6.3      0.000      0.000
REMARK  Name = 
REMARK  11 active torsions:
REMARK  status: ('A' for Active; 'I' for Inactive)
REMARK    1  A    between atoms: N_4  and  C_5
REMARK    2  A    between atoms: N_4  and  C_10
REMARK    3  A    between atoms: C_5  and  C_6
REMARK    4  A    between atoms: C_6  and  C_8
REMARK    5  A    between atoms: C_13  and  C_14
REMARK    6  A    between atoms: N_16  and  C_17
REMARK    7  A    between atoms: C_17  and  C_18
REMARK    8  A    between atoms: C_22  and  C_23
REMARK    9  A    between atoms: N_25  and  C_26
REMARK   10  A    between atoms: C_26  and  C_27
REMARK   11  A    between atoms: C_27  and  C_29
REMARK                            x       y       z     vdW  Elec       q    Type
REMARK                         _______ _______ _______ _____ _____    ______ ____
ROOT
ATOM      1  C   UNL     1       2.918   5.677 -10.792  0.00  0.00    +0.065 A 
ATOM      2  C   UNL     1       1.990   5.947 -11.789  0.00  0.00    +0.049 A 
ATOM      3  I   UNL     1       0.015   6.428 -11.324  0.00  0.00    -0.041 I 
ATOM      4  C   UNL     1       2.367   6.132 -13.114  0.00  0.00    +0.067 A 
ATOM      5  C   UNL     1       3.689   6.171 -13.460  0.00  0.00    +0.040 A 
ATOM      6  I   UNL     1       4.218   6.721 -15.431  0.00  0.00    -0.042 I 
ATOM      7  C   UNL     1       4.646   5.962 -12.475  0.00  0.00    +0.067 A 
ATOM      8  C   UNL     1       4.241   5.887 -11.146  0.00  0.00    +0.049 A 
ATOM      9  I   UNL     1       5.647   6.458  -9.696  0.00  0.00    -0.041 I 
ENDROOT
BRANCH   1  12
ATOM     10  C   UNL     1       2.946   4.176  -8.710  0.00  0.00    +0.095 C 
ATOM     11  C   UNL     1       2.755   4.096  -8.992  0.00  0.00    +0.230 C 
ATOM     12  N   UNL     1       2.522   5.401  -9.433  0.00  0.00    -0.255 N 
ATOM     13  O   UNL     1       2.350   3.370  -8.113  0.00  0.00    -0.275 OA
BRANCH  12  14
ATOM     14  C   UNL     1       2.939   6.334  -8.368  0.00  0.00    +0.134 C 
BRANCH  14  15
ATOM     15  C   UNL     1       1.537   7.010  -7.820  0.00  0.00    +0.205 C 
ATOM     16  O   UNL     1       2.128   8.409  -7.939  0.00  0.00    -0.218 OA
BRANCH  15  17
ATOM     17  C   UNL     1       1.983   6.889  -6.234  0.00  0.00    +0.217 C 
ATOM     18  O   UNL     1       3.291   7.395  -6.354  0.00  0.00    -0.218 OA
ENDBRANCH  15  17
ENDBRANCH  14  15
ENDBRANCH  12  14
ENDBRANCH   1  12
BRANCH   4  19
ATOM     19  C   UNL     1       1.376   6.026 -14.196  0.00  0.00    +0.266 C 
ATOM     20  N   UNL     1       0.772   7.151 -14.800  0.00  0.00    -0.199 NA
ATOM     21  O   UNL     1       0.772   4.912 -14.254  0.00  0.00    -0.268 OA
BRANCH  20  22
ATOM     22  C   UNL     1      -0.500   7.075 -15.507  0.00  0.00    +0.151 C 
BRANCH  22  23
ATOM     23  C   UNL     1      -0.263   8.061 -16.814  0.00  0.00    +0.206 C 
ATOM     24  O   UNL     1       0.662   7.045 -17.471  0.00  0.00    -0.218 OA
BRANCH  23  25
ATOM     25  C   UNL     1      -1.583   7.434 -17.589  0.00  0.00    +0.217 C 
ATOM     26  O   UNL     1      -1.517   6.071 -17.366  0.00  0.00    -0.218 OA
ENDBRANCH  23  25
ENDBRANCH  22  23
ENDBRANCH  20  22
ENDBRANCH   4  19
BRANCH   7  27
ATOM     27  C   UNL     1       6.035   6.310 -12.805  0.00  0.00    +0.266 C 
ATOM     28  N   UNL     1       7.066   5.314 -12.824  0.00  0.00    -0.199 NA
ATOM     29  O   UNL     1       6.445   7.481 -12.539  0.00  0.00    -0.268 OA
BRANCH  28  30
ATOM     30  C   UNL     1       8.378   5.666 -13.309  0.00  0.00    +0.151 C 
BRANCH  30  31
ATOM     31  C   UNL     1       9.344   5.799 -12.142  0.00  0.00    +0.205 C 
ATOM     32  O   UNL     1       8.688   5.277 -11.027  0.00  0.00    -0.218 OA
ENDBRANCH  30  31
ENDBRANCH  28  30
ENDBRANCH   7  27
TORSDOF 11
ENDMDL
MODEL 2
REMARK VINA RESULT:      -6.2      1.906      6.617
REMARK  Name = 
REMARK  11 active torsions:
REMARK  status: ('A' for Active; 'I' for Inactive)
REMARK    1  A    between atoms: N_4  and  C_5
REMARK    2  A    between atoms: N_4  and  C_10
REMARK    3  A    between atoms: C_5  and  C_6
REMARK    4  A    between atoms: C_6  and  C_8
REMARK    5  A    between atoms: C_13  and  C_14
REMARK    6  A    between atoms: N_16  and  C_17
REMARK    7  A    between atoms: C_17  and  C_18
REMARK    8  A    between atoms: C_22  and  C_23
REMARK    9  A    between atoms: N_25  and  C_26
REMARK   10  A    between atoms: C_26  and  C_27
REMARK   11  A    between atoms: C_27  and  C_29
REMARK                            x       y       z     vdW  Elec       q    Type
REMARK                         _______ _______ _______ _____ _____    ______ ____
ROOT
ATOM      1  C   UNL     1       2.413   5.933 -12.249  0.00  0.00    +0.065 A 
ATOM      2  C   UNL     1       1.867   5.471 -11.058  0.00  0.00    +0.049 A 
ATOM      3  I   UNL     1       0.116   4.339 -11.041  0.00  0.00    -0.041 I 
ATOM      4  C   UNL     1       2.560   5.542  -9.855  0.00  0.00    +0.067 A 
ATOM      5  C   UNL     1       3.860   5.963  -9.827  0.00  0.00    +0.040 A 
ATOM      6  I   UNL     1       4.954   5.799  -8.027  0.00  0.00    -0.042 I 
ATOM      7  C   UNL     1       4.456   6.378 -11.012  0.00  0.00    +0.067 A 
ATOM      8  C   UNL     1       3.773   6.195 -12.210  0.00  0.00    +0.049 A 
ATOM      9  I   UNL     1       4.942   5.975 -13.940  0.00  0.00    -0.041 I 
ENDROOT
BRANCH   1  12
ATOM     10  C   UNL     1       0.817   4.798 -13.909  0.00  0.00    +0.095 C 
ATOM     11  C   UNL     1       1.153   4.703 -13.881  0.00  0.00    +0.230 C 
ATOM     12  N   UNL     1       1.664   5.939 -13.481  0.00  0.00    -0.255 N 
ATOM     13  O   UNL     1       0.756   4.195 -14.906  0.00  0.00    -0.275 OA
BRANCH  12  14
ATOM     14  C   UNL     1       0.614   6.961 -13.668  0.00  0.00    +0.134 C 
BRANCH  14  15
ATOM     15  C   UNL     1       1.184   7.943 -14.866  0.00  0.00    +0.205 C 
ATOM     16  O   UNL     1       0.568   9.166 -14.198  0.00  0.00    -0.218 OA
BRANCH  15  17
ATOM     17  C   UNL     1      -0.147   7.717 -15.819  0.00  0.00    +0.217 C 
ATOM     18  O   UNL     1       0.446   6.904 -16.803  0.00  0.00    -0.218 OA
ENDBRANCH  15  17
ENDBRANCH  14  15
ENDBRANCH  12  14
ENDBRANCH   1  12
BRANCH   4  19
ATOM     19  C   UNL     1       1.848   5.423  -8.573  0.00  0.00    +0.266 C 
ATOM     20  N   UNL     1       1.426   6.540  -7.819  0.00  0.00    -0.199 NA
ATOM     21  O   UNL     1       2.020   4.319  -7.973  0.00  0.00    -0.268 OA
BRANCH  20  22
ATOM     22  C   UNL     1       1.157   6.466  -6.389  0.00  0.00    +0.151 C 
BRANCH  22  23
ATOM     23  C   UNL     1      -0.495   6.493  -6.316  0.00  0.00    +0.206 C 
ATOM     24  O   UNL     1      -0.555   4.989  -6.081  0.00  0.00    -0.218 OA
BRANCH  23  25
ATOM     25  C   UNL     1      -0.468   6.795  -4.690  0.00  0.00    +0.217 C 
ATOM     26  O   UNL     1       0.872   6.892  -4.364  0.00  0.00    -0.218 OA
ENDBRANCH  23  25
ENDBRANCH  22  23
ENDBRANCH  20  22
ENDBRANCH   4  19
BRANCH   7  27
ATOM     27  C   UNL     1       5.918   6.528 -11.011  0.00  0.00    +0.266 C 
ATOM     28  N   UNL     1       6.776   5.426 -10.689  0.00  0.00    -0.199 NA
ATOM     29  O   UNL     1       6.409   7.667 -10.748  0.00  0.00    -0.268 OA
BRANCH  28  30
ATOM     30  C   UNL     1       8.201   5.570 -10.857  0.00  0.00    +0.151 C 
BRANCH  30  31
ATOM     31  C   UNL     1       8.539   5.714 -12.333  0.00  0.00    +0.205 C 
ATOM     32  O   UNL     1       7.956   4.623 -12.977  0.00  0.00    -0.218 OA
ENDBRANCH  30  31
ENDBRANCH  28  30
ENDBRANCH   7  27
TORSDOF 11
ENDMDL
MODEL 3
REMARK VINA RESULT:      -6.1      5.644     10.999
REMARK  Name = 
REMARK  11 active torsions:
REMARK  status: ('A' for Active; 'I' for Inactive)
REMARK    1  A    between atoms: N_4  and  C_5
REMARK    2  A    between atoms: N_4  and  C_10
REMARK    3  A    between atoms: C_5  and  C_6
REMARK    4  A    between atoms: C_6  and  C_8
REMARK    5  A    between atoms: C_13  and  C_14
REMARK    6  A    between atoms: N_16  and  C_17
REMARK    7  A    between atoms: C_17  and  C_18
REMARK    8  A    between atoms: C_22  and  C_23
REMARK    9  A    between atoms: N_25  and  C_26
REMARK   10  A    between atoms: C_26  and  C_27
REMARK   11  A    between atoms: C_27  and  C_29
REMARK                            x       y       z     vdW  Elec       q    Type
REMARK                         _______ _______ _______ _____ _____    ______ ____
ROOT
ATOM      1  C   UNL     1       0.173   6.443  -3.963  0.00  0.00    +0.065 A 
ATOM      2  C   UNL     1       0.889   6.202  -2.797  0.00  0.00    +0.049 A 
ATOM      3  I   UNL     1      -0.065   6.111  -0.945  0.00  0.00    -0.041 I 
ATOM      4  C   UNL     1       2.217   5.793  -2.821  0.00  0.00    +0.067 A 
ATOM      5  C   UNL     1       2.831   5.497  -4.006  0.00  0.00    +0.040 A 
ATOM      6  I   UNL     1       4.754   4.623  -3.975  0.00  0.00    -0.042 I 
ATOM      7  C   UNL     1       2.123   5.672  -5.189  0.00  0.00    +0.067 A 
ATOM      8  C   UNL     1       0.768   5.979  -5.125  0.00  0.00    +0.049 A 
ATOM      9  I   UNL     1      -0.415   5.376  -6.751  0.00  0.00    -0.041 I 
ENDROOT
BRANCH   1  12
ATOM     10  C   UNL     1      -1.582   8.175  -4.673  0.00  0.00    +0.095 C 
ATOM     11  C   UNL     1      -1.340   8.247  -4.431  0.00  0.00    +0.230 C 
ATOM     12  N   UNL     1      -1.176   6.950  -3.940  0.00  0.00    -0.255 N 
ATOM     13  O   UNL     1      -2.158   9.135  -4.342  0.00  0.00    -0.275 OA
BRANCH  12  14
ATOM     14  C   UNL     1      -2.261   6.107  -4.482  0.00  0.00    +0.134 C 
BRANCH  14  15
ATOM     15  C   UNL     1      -2.768   5.192  -3.205  0.00  0.00    +0.205 C 
ATOM     16  O   UNL     1      -3.646   4.347  -4.119  0.00  0.00    -0.218 OA
BRANCH  15  17
ATOM     17  C   UNL     1      -4.017   6.212  -2.845  0.00  0.00    +0.217 C 
ATOM     18  O   UNL     1      -3.433   6.864  -1.743  0.00  0.00    -0.218 OA
ENDBRANCH  15  17
ENDBRANCH  14  15
ENDBRANCH  12  14
ENDBRANCH   1  12
BRANCH   4  19
ATOM     19  C   UNL     1       3.061   5.919  -1.622  0.00  0.00    +0.266 C 
ATOM     20  N   UNL     1       3.718   7.118  -1.265  0.00  0.00    -0.199 NA
ATOM     21  O   UNL     1       3.522   4.823  -1.182  0.00  0.00    -0.268 OA
BRANCH  20  22
ATOM     22  C   UNL     1       4.884   7.144  -0.393  0.00  0.00    +0.151 C 
BRANCH  22  23
ATOM     23  C   UNL     1       4.428   8.183   0.812  0.00  0.00    +0.206 C 
ATOM     24  O   UNL     1       3.265   7.283   1.210  0.00  0.00    -0.218 OA
BRANCH  23  25
ATOM     25  C   UNL     1       5.434   7.444   1.897  0.00  0.00    +0.217 C 
ATOM     26  O   UNL     1       4.598   6.933   2.872  0.00  0.00    -0.218 OA
ENDBRANCH  23  25
ENDBRANCH  22  23
ENDBRANCH  20  22
ENDBRANCH   4  19
BRANCH   7  27
ATOM     27  C   UNL     1       2.686   5.064  -6.403  0.00  0.00    +0.266 C 
ATOM     28  N   UNL     1       3.036   5.865  -7.539  0.00  0.00    -0.199 NA
ATOM     29  O   UNL     1       2.370   3.868  -6.683  0.00  0.00    -0.268 OA
BRANCH  28  30
ATOM     30  C   UNL     1       3.733   5.253  -8.644  0.00  0.00    +0.151 C 
BRANCH  30  31
ATOM     31  C   UNL     1       3.001   5.545  -9.945  0.00  0.00    +0.205 C 
ATOM     32  O   UNL     1       1.812   4.817  -9.899  0.00  0.00    -0.218 OA
ENDBRANCH  30  31
ENDBRANCH  28  30
ENDBRANCH   7  27
TORSDOF 11
ENDMDL
MODEL 4
REMARK VINA RESULT:      -5.9      5.707     10.388
REMARK  Name = 
REMARK  11 active torsions:
REMARK  status: ('A' for Active; 'I' for Inactive)
REMARK    1  A    between atoms: N_4  and  C_5
REMARK    2  A    between atoms: N_4  and  C_10
REMARK    3  A    between atoms: C_5  and  C_6
REMARK    4  A    between atoms: C_6  and  C_8
REMARK    5  A    between atoms: C_13  and  C_14
REMARK    6  A    between atoms: N_16  and  C_17
REMARK    7  A    between atoms: C_17  and  C_18
REMARK    8  A    between atoms: C_22  and  C_23
REMARK    9  A    between atoms: N_25  and  C_26
REMARK   10  A    between atoms: C_26  and  C_27
REMARK   11  A    between atoms: C_27  and  C_29
REMARK                            x       y       z     vdW  Elec       q    Type
REMARK                         _______ _______ _______ _____ _____    ______ ____
ROOT
ATOM      1  C   UNL     1       2.941   7.639  -2.281  0.00  0.00    +0.065 A 
ATOM      2  C   UNL     1       3.451   7.261  -3.517  0.00  0.00    +0.049 A 
ATOM      3  I   UNL     1       5.499   7.319  -3.902  0.00  0.00    -0.041 I 
ATOM      4  C   UNL     1       2.667   6.623  -4.472  0.00  0.00    +0.067 A 
ATOM      5  C   UNL     1       1.390   6.236  -4.175  0.00  0.00    +0.040 A 
ATOM      6  I   UNL     1       0.336   5.034  -5.557  0.00  0.00    -0.042 I 
ATOM      7  C   UNL     1       0.868   6.548  -2.926  0.00  0.00    +0.067 A 
ATOM      8  C   UNL     1       1.709   7.089  -1.960  0.00  0.00    +0.049 A 
ATOM      9  I   UNL     1       1.205   6.725   0.045  0.00  0.00    -0.041 I 
ENDROOT
BRANCH   1  12
ATOM     10  C   UNL     1       3.372   9.751  -0.889  0.00  0.00    +0.095 C 
ATOM     11  C   UNL     1       3.438   9.741  -1.233  0.00  0.00    +0.230 C 
ATOM     12  N   UNL     1       3.726   8.377  -1.323  0.00  0.00    -0.255 N 
ATOM     13  O   UNL     1       3.989  10.740  -0.830  0.00  0.00    -0.275 OA
BRANCH  12  14
ATOM     14  C   UNL     1       3.867   7.838   0.045  0.00  0.00    +0.134 C 
BRANCH  14  15
ATOM     15  C   UNL     1       5.387   7.197   0.096  0.00  0.00    +0.205 C 
ATOM     16  O   UNL     1       4.823   5.799   0.313  0.00  0.00    -0.218 OA
BRANCH  15  17
ATOM     17  C   UNL     1       5.546   7.453   1.720  0.00  0.00    +0.217 C 
ATOM     18  O   UNL     1       4.299   6.941   2.128  0.00  0.00    -0.218 OA
ENDBRANCH  15  17
ENDBRANCH  14  15
ENDBRANCH  12  14
ENDBRANCH   1  12
BRANCH   4  19
ATOM     19  C   UNL     1       3.089   6.584  -5.880  0.00  0.00    +0.266 C 
ATOM     20  N   UNL     1       3.868   5.538  -6.423  0.00  0.00    -0.199 NA
ATOM     21  O   UNL     1       3.105   7.712  -6.459  0.00  0.00    -0.268 OA
BRANCH  20  22
ATOM     22  C   UNL     1       4.664   5.698  -7.633  0.00  0.00    +0.151 C 
BRANCH  22  23
ATOM     23  C   UNL     1       3.990   4.603  -8.674  0.00  0.00    +0.206 C 
ATOM     24  O   UNL     1       2.818   5.532  -8.964  0.00  0.00    -0.218 OA
BRANCH  23  25
ATOM     25  C   UNL     1       4.851   5.211  -9.948  0.00  0.00    +0.217 C 
ATOM     26  O   UNL     1       3.929   5.358 -10.968  0.00  0.00    -0.218 OA
ENDBRANCH  23  25
ENDBRANCH  22  23
ENDBRANCH  20  22
ENDBRANCH   4  19
BRANCH   7  27
ATOM     27  C   UNL     1      -0.370   5.863  -2.527  0.00  0.00    +0.266 C 
ATOM     28  N   UNL     1      -1.533   6.604  -2.134  0.00  0.00    -0.199 NA
ATOM     29  O   UNL     1      -0.283   4.710  -2.005  0.00  0.00    -0.268 OA
BRANCH  28  30
ATOM     30  C   UNL     1      -2.772   5.901  -1.907  0.00  0.00    +0.151 C 
BRANCH  30  31
ATOM     31  C   UNL     1      -3.658   6.000  -3.140  0.00  0.00    +0.205 C 
ATOM     32  O   UNL     1      -3.298   4.937  -3.969  0.00  0.00    -0.218 OA
ENDBRANCH  30  31
ENDBRANCH  28  30
ENDBRANCH   7  27
TORSDOF 11
ENDMDL
MODEL 5
REMARK VINA RESULT:      -5.9      8.882     13.322
REMARK  Name = 
REMARK  11 active torsions:
REMARK  status: ('A' for Active; 'I' for Inactive)
REMARK    1  A    between atoms: N_4  and  C_5
REMARK    2  A    between atoms: N_4  and  C_10
REMARK    3  A    between atoms: C_5  and  C_6
REMARK    4  A    between atoms: C_6  and  C_8
REMARK    5  A    between atoms: C_13  and  C_14
REMARK    6  A    between atoms: N_16  and  C_17
REMARK    7  A    between atoms: C_17  and  C_18
REMARK    8  A    between atoms: C_22  and  C_23
REMARK    9  A    between atoms: N_25  and  C_26
REMARK   10  A    between atoms: C_26  and  C_27
REMARK   11  A    between atoms: C_27  and  C_29
REMARK                            x       y       z     vdW  Elec       q    Type
REMARK                         _______ _______ _______ _____ _____    ______ ____
ROOT
ATOM      1  C   UNL     1       2.154   6.110  -1.025  0.00  0.00    +0.065 A 
ATOM      2  C   UNL     1       1.785   6.914   0.046  0.00  0.00    +0.049 A 
ATOM      3  I   UNL     1       3.170   8.147   0.998  0.00  0.00    -0.041 I 
ATOM      4  C   UNL     1       0.453   7.110   0.393  0.00  0.00    +0.067 A 
ATOM      5  C   UNL     1      -0.550   6.609  -0.390  0.00  0.00    +0.040 A 
ATOM      6  I   UNL     1      -2.547   7.159   0.024  0.00  0.00    -0.042 I 
ATOM      7  C   UNL     1      -0.214   5.848  -1.503  0.00  0.00    +0.067 A 
ATOM      8  C   UNL     1       1.122   5.760  -1.882  0.00  0.00    +0.049 A 
ATOM      9  I   UNL     1       1.507   5.417  -3.916  0.00  0.00    -0.041 I 
ENDROOT
BRANCH   1  12
ATOM     10  C   UNL     1       4.116   4.473  -1.257  0.00  0.00    +0.095 C 
ATOM     11  C   UNL     1       4.001   4.579  -0.944  0.00  0.00    +0.230 C 
ATOM     12  N   UNL     1       3.535   5.836  -1.335  0.00  0.00    -0.255 N 
ATOM     13  O   UNL     1       5.070   4.054  -0.732  0.00  0.00    -0.275 OA
BRANCH  12  14
ATOM     14  C   UNL     1       4.025   6.111  -2.700  0.00  0.00    +0.134 C 
BRANCH  14  15
ATOM     15  C   UNL     1       5.011   7.425  -2.543  0.00  0.00    +0.205 C 
ATOM     16  O   UNL     1       3.864   8.366  -2.888  0.00  0.00    -0.218 OA
BRANCH  15  17
ATOM     17  C   UNL     1       5.512   7.359  -4.117  0.00  0.00    +0.217 C 
ATOM     18  O   UNL     1       4.301   7.732  -4.729  0.00  0.00    -0.218 OA
ENDBRANCH  15  17
ENDBRANCH  14  15
ENDBRANCH  12  14
ENDBRANCH   1  12
BRANCH   4  19
ATOM     19  C   UNL     1       0.094   7.623   1.724  0.00  0.00    +0.266 C 
ATOM     20  N   UNL     1      -0.160   8.989   1.981  0.00  0.00    -0.199 NA
ATOM     21  O   UNL     1       0.451   6.883   2.690  0.00  0.00    -0.268 OA
BRANCH  20  22
ATOM     22  C   UNL     1      -0.054   9.571   3.313  0.00  0.00    +0.151 C 
BRANCH  22  23
ATOM     23  C   UNL     1      -1.099  10.851   3.247  0.00  0.00    +0.206 C 
ATOM     24  O   UNL     1      -1.417  10.576   1.783  0.00  0.00    -0.218 OA
BRANCH  23  25
ATOM     25  C   UNL     1      -2.362   9.909   3.748  0.00  0.00    +0.217 C 
ATOM     26  O   UNL     1      -3.202   9.820   2.654  0.00  0.00    -0.218 OA
ENDBRANCH  23  25
ENDBRANCH  22  23
ENDBRANCH  20  22
ENDBRANCH   4  19
BRANCH   7  27
ATOM     27  C   UNL     1      -1.277   5.587  -2.483  0.00  0.00    +0.266 C 
ATOM     28  N   UNL     1      -1.720   6.608  -3.386  0.00  0.00    -0.199 NA
ATOM     29  O   UNL     1      -2.158   4.718  -2.203  0.00  0.00    -0.268 OA
BRANCH  28  30
ATOM     30  C   UNL     1      -2.649   6.267  -4.436  0.00  0.00    +0.151 C 
BRANCH  30  31
ATOM     31  C   UNL     1      -2.722   7.396  -5.452  0.00  0.00    +0.205 C 
ATOM     32  O   UNL     1      -2.147   8.511  -4.843  0.00  0.00    -0.218 OA
ENDBRANCH  30  31
ENDBRANCH  28  30
ENDBRANCH   7  27
TORSDOF 11
ENDMDL
MODEL 6
REMARK VINA RESULT:      -5.9      5.887     12.198
REMARK  Name = 
REMARK  11 active torsions:
REMARK  status: ('A' for Active; 'I' for Inactive)
REMARK    1  A    between atoms: N_4  and  C_5
REMARK    2  A    between atoms: N_4  and  C_10
REMARK    3  A    between atoms: C_5  and  C_6
REMARK    4  A    between atoms: C_6  and  C_8
REMARK    5  A    between atoms: C_13  and  C_14
REMARK    6  A    between atoms: N_16  and  C_17
REMARK    7  A    between atoms: C_17  and  C_18
REMARK    8  A    between atoms: C_22  and  C_23
REMARK    9  A    between atoms: N_25  and  C_26
REMARK   10  A    between atoms: C_26  and  C_27
REMARK   11  A    between atoms: C_27  and  C_29
REMARK                            x       y       z     vdW  Elec       q    Type
REMARK                         _______ _______ _______ _____ _____    ______ ____
ROOT
ATOM      1  C   UNL     1       1.886   5.623  -4.630  0.00  0.00    +0.065 A 
ATOM      2  C   UNL     1       2.811   6.039  -3.681  0.00  0.00    +0.049 A 
ATOM      3  I   UNL     1       4.651   6.840  -4.245  0.00  0.00    -0.041 I 
ATOM      4  C   UNL     1       2.482   6.154  -2.335  0.00  0.00    +0.067 A 
ATOM      5  C   UNL     1       1.192   5.974  -1.918  0.00  0.00    +0.040 A 
ATOM      6  I   UNL     1       0.689   6.422   0.085  0.00  0.00    -0.042 I 
ATOM      7  C   UNL     1       0.230   5.612  -2.853  0.00  0.00    +0.067 A 
ATOM      8  C   UNL     1       0.568   5.610  -4.202  0.00  0.00    +0.049 A 
ATOM      9  I   UNL     1      -0.990   5.947  -5.567  0.00  0.00    -0.041 I 
ENDROOT
BRANCH   1  12
ATOM     10  C   UNL     1       1.944   4.164  -6.740  0.00  0.00    +0.095 C 
ATOM     11  C   UNL     1       2.157   4.104  -6.469  0.00  0.00    +0.230 C 
ATOM     12  N   UNL     1       2.247   5.420  -6.011  0.00  0.00    -0.255 N 
ATOM     13  O   UNL     1       2.605   3.448  -7.383  0.00  0.00    -0.275 OA
BRANCH  12  14
ATOM     14  C   UNL     1       1.666   6.311  -7.035  0.00  0.00    +0.134 C 
BRANCH  14  15
ATOM     15  C   UNL     1       2.948   7.152  -7.645  0.00  0.00    +0.205 C 
ATOM     16  O   UNL     1       2.095   8.406  -7.794  0.00  0.00    -0.218 OA
BRANCH  15  17
ATOM     17  C   UNL     1       2.640   6.684  -9.200  0.00  0.00    +0.217 C 
ATOM     18  O   UNL     1       1.329   7.183  -9.304  0.00  0.00    -0.218 OA
ENDBRANCH  15  17
ENDBRANCH  14  15
ENDBRANCH  12  14
ENDBRANCH   1  12
BRANCH   4  19
ATOM     19  C   UNL     1       3.535   6.210  -1.309  0.00  0.00    +0.266 C 
ATOM     20  N   UNL     1       3.933   7.409  -0.677  0.00  0.00    -0.199 NA
ATOM     21  O   UNL     1       4.354   5.242  -1.339  0.00  0.00    -0.268 OA
BRANCH  20  22
ATOM     22  C   UNL     1       5.233   7.566  -0.038  0.00  0.00    +0.151 C 
BRANCH  22  23
ATOM     23  C   UNL     1       4.856   8.271   1.410  0.00  0.00    +0.206 C 
ATOM     24  O   UNL     1       4.101   7.030   1.870  0.00  0.00    -0.218 OA
BRANCH  23  25
ATOM     25  C   UNL     1       6.260   7.729   2.096  0.00  0.00    +0.217 C 
ATOM     26  O   UNL     1       5.869   6.758   2.998  0.00  0.00    -0.218 OA
ENDBRANCH  23  25
ENDBRANCH  22  23
ENDBRANCH  20  22
ENDBRANCH   4  19
BRANCH   7  27
ATOM     27  C   UNL     1      -1.177   5.726  -2.445  0.00  0.00    +0.266 C 
ATOM     28  N   UNL     1      -1.756   6.998  -2.125  0.00  0.00    -0.199 NA
ATOM     29  O   UNL     1      -1.718   4.742  -1.854  0.00  0.00    -0.268 OA
BRANCH  28  30
ATOM     30  C   UNL     1      -3.176   7.086  -1.887  0.00  0.00    +0.151 C 
BRANCH  30  31
ATOM     31  C   UNL     1      -3.936   6.811  -3.175  0.00  0.00    +0.205 C 
ATOM     32  O   UNL     1      -4.153   5.434  -3.217  0.00  0.00    -0.218 OA
ENDBRANCH  30  31
ENDBRANCH  28  30
ENDBRANCH   7  27
TORSDOF 11
ENDMDL
MODEL 7
REMARK VINA RESULT:      -5.8      2.071      7.123
REMARK  Name = 
REMARK  11 active torsions:
REMARK  status: ('A' for Active; 'I' for Inactive)
REMARK    1  A    between atoms: N_4  and  C_5
REMARK    2  A    between atoms: N_4  and  C_10
REMARK    3  A    between atoms: C_5  and  C_6
REMARK    4  A    between atoms: C_6  and  C_8
REMARK    5  A    between atoms: C_13  and  C_14
REMARK    6  A    between atoms: N_16  and  C_17
REMARK    7  A    between atoms: C_17  and  C_18
REMARK    8  A    between atoms: C_22  and  C_23
REMARK    9  A    between atoms: N_25  and  C_26
REMARK   10  A    between atoms: C_26  and  C_27
REMARK   11  A    between atoms: C_27  and  C_29
REMARK                            x       y       z     vdW  Elec       q    Type
REMARK                         _______ _______ _______ _____ _____    ______ ____
ROOT
ATOM      1  C   UNL     1       2.239   6.008 -11.588  0.00  0.00    +0.065 A 
ATOM      2  C   UNL     1       1.932   5.379 -10.389  0.00  0.00    +0.049 A 
ATOM      3  I   UNL     1       0.202   4.232 -10.183  0.00  0.00    -0.041 I 
ATOM      4  C   UNL     1       2.850   5.291  -9.348  0.00  0.00    +0.067 A 
ATOM      5  C   UNL     1       4.136   5.720  -9.520  0.00  0.00    +0.040 A 
ATOM      6  I   UNL     1       5.561   5.321  -8.012  0.00  0.00    -0.042 I 
ATOM      7  C   UNL     1       4.492   6.304 -10.730  0.00  0.00    +0.067 A 
ATOM      8  C   UNL     1       3.584   6.280 -11.783  0.00  0.00    +0.049 A 
ATOM      9  I   UNL     1       4.384   6.317 -13.723  0.00  0.00    -0.041 I 
ENDROOT
BRANCH   1  12
ATOM     10  C   UNL     1       0.932   7.502 -13.215  0.00  0.00    +0.095 C 
ATOM     11  C   UNL     1       0.856   7.491 -12.873  0.00  0.00    +0.230 C 
ATOM     12  N   UNL     1       1.262   6.176 -12.635  0.00  0.00    -0.255 N 
ATOM     13  O   UNL     1      -0.082   8.051 -13.394  0.00  0.00    -0.275 OA
BRANCH  12  14
ATOM     14  C   UNL     1       1.494   5.517 -13.936  0.00  0.00    +0.134 C 
BRANCH  14  15
ATOM     15  C   UNL     1       1.180   3.920 -13.666  0.00  0.00    +0.205 C 
ATOM     16  O   UNL     1       2.162   3.510 -14.757  0.00  0.00    -0.218 OA
BRANCH  15  17
ATOM     17  C   UNL     1      -0.095   3.893 -14.718  0.00  0.00    +0.217 C 
ATOM     18  O   UNL     1       0.183   5.091 -15.401  0.00  0.00    -0.218 OA
ENDBRANCH  15  17
ENDBRANCH  14  15
ENDBRANCH  12  14
ENDBRANCH   1  12
BRANCH   4  19
ATOM     19  C   UNL     1       2.403   4.985  -7.980  0.00  0.00    +0.266 C 
ATOM     20  N   UNL     1       2.331   5.957  -6.958  0.00  0.00    -0.199 NA
ATOM     21  O   UNL     1       2.512   3.765  -7.648  0.00  0.00    -0.268 OA
BRANCH  20  22
ATOM     22  C   UNL     1       2.349   5.611  -5.543  0.00  0.00    +0.151 C 
BRANCH  22  23
ATOM     23  C   UNL     1       3.786   6.244  -5.021  0.00  0.00    +0.206 C 
ATOM     24  O   UNL     1       3.488   7.583  -5.682  0.00  0.00    -0.218 OA
BRANCH  23  25
ATOM     25  C   UNL     1       3.106   6.741  -3.598  0.00  0.00    +0.217 C 
ATOM     26  O   UNL     1       3.662   7.982  -3.347  0.00  0.00    -0.218 OA
ENDBRANCH  23  25
ENDBRANCH  22  23
ENDBRANCH  20  22
ENDBRANCH   4  19
BRANCH   7  27
ATOM     27  C   UNL     1       5.928   6.470 -10.997  0.00  0.00    +0.266 C 
ATOM     28  N   UNL     1       6.830   5.359 -10.923  0.00  0.00    -0.199 NA
ATOM     29  O   UNL     1       6.462   7.595 -10.754  0.00  0.00    -0.268 OA
BRANCH  28  30
ATOM     30  C   UNL     1       8.197   5.532 -11.348  0.00  0.00    +0.151 C 
BRANCH  30  31
ATOM     31  C   UNL     1       8.247   5.778 -12.848  0.00  0.00    +0.205 C 
ATOM     32  O   UNL     1       7.641   4.675 -13.448  0.00  0.00    -0.218 OA
ENDBRANCH  30  31
ENDBRANCH  28  30
ENDBRANCH   7  27
TORSDOF 11
ENDMDL
MODEL 8
REMARK VINA RESULT:      -5.7      5.273      9.287
REMARK  Name = 
REMARK  11 active torsions:
REMARK  status: ('A' for Active; 'I' for Inactive)
REMARK    1  A    between atoms: N_4  and  C_5
REMARK    2  A    between atoms: N_4  and  C_10
REMARK    3  A    between atoms: C_5  and  C_6
REMARK    4  A    between atoms: C_6  and  C_8
REMARK    5  A    between atoms: C_13  and  C_14
REMARK    6  A    between atoms: N_16  and  C_17
REMARK    7  A    between atoms: C_17  and  C_18
REMARK    8  A    between atoms: C_22  and  C_23
REMARK    9  A    between atoms: N_25  and  C_26
REMARK   10  A    between atoms: C_26  and  C_27
REMARK   11  A    between atoms: C_27  and  C_29
REMARK                            x       y       z     vdW  Elec       q    Type
REMARK                         _______ _______ _______ _____ _____    ______ ____
ROOT
ATOM      1  C   UNL     1       0.223   5.673  -3.635  0.00  0.00    +0.065 A 
ATOM      2  C   UNL     1       0.928   5.522  -4.822  0.00  0.00    +0.049 A 
ATOM      3  I   UNL     1       0.114   6.121  -6.645  0.00  0.00    -0.041 I 
ATOM      4  C   UNL     1       2.275   5.178  -4.838  0.00  0.00    +0.067 A 
ATOM      5  C   UNL     1       2.984   5.096  -3.672  0.00  0.00    +0.040 A 
ATOM      6  I   UNL     1       5.080   4.839  -3.762  0.00  0.00    -0.042 I 
ATOM      7  C   UNL     1       2.321   5.299  -2.468  0.00  0.00    +0.067 A 
ATOM      8  C   UNL     1       1.003   5.744  -2.491  0.00  0.00    +0.049 A 
ATOM      9  I   UNL     1       0.351   6.854  -0.833  0.00  0.00    -0.041 I 
ENDROOT
BRANCH   1  12
ATOM     10  C   UNL     1      -2.128   5.247  -2.699  0.00  0.00    +0.095 C 
ATOM     11  C   UNL     1      -1.973   5.021  -2.916  0.00  0.00    +0.230 C 
ATOM     12  N   UNL     1      -1.193   5.944  -3.616  0.00  0.00    -0.255 N 
ATOM     13  O   UNL     1      -3.136   4.686  -2.880  0.00  0.00    -0.275 OA
BRANCH  12  14
ATOM     14  C   UNL     1      -1.651   7.303  -3.264  0.00  0.00    +0.134 C 
BRANCH  14  15
ATOM     15  C   UNL     1      -1.582   8.156  -4.675  0.00  0.00    +0.205 C 
ATOM     16  O   UNL     1      -1.906   9.453  -3.945  0.00  0.00    -0.218 OA
BRANCH  15  17
ATOM     17  C   UNL     1      -3.173   7.886  -5.031  0.00  0.00    +0.217 C 
ATOM     18  O   UNL     1      -2.994   6.883  -6.003  0.00  0.00    -0.218 OA
ENDBRANCH  15  17
ENDBRANCH  14  15
ENDBRANCH  12  14
ENDBRANCH   1  12
BRANCH   4  19
ATOM     19  C   UNL     1       2.897   4.646  -6.061  0.00  0.00    +0.266 C 
ATOM     20  N   UNL     1       3.623   5.450  -6.968  0.00  0.00    -0.199 NA
ATOM     21  O   UNL     1       2.390   3.563  -6.484  0.00  0.00    -0.268 OA
BRANCH  20  22
ATOM     22  C   UNL     1       3.834   5.069  -8.358  0.00  0.00    +0.151 C 
BRANCH  22  23
ATOM     23  C   UNL     1       3.326   6.404  -9.193  0.00  0.00    +0.206 C 
ATOM     24  O   UNL     1       4.666   6.525  -9.907  0.00  0.00    -0.218 OA
BRANCH  23  25
ATOM     25  C   UNL     1       2.707   5.470 -10.409  0.00  0.00    +0.217 C 
ATOM     26  O   UNL     1       1.738   4.690  -9.807  0.00  0.00    -0.218 OA
ENDBRANCH  23  25
ENDBRANCH  22  23
ENDBRANCH  20  22
ENDBRANCH   4  19
BRANCH   7  27
ATOM     27  C   UNL     1       3.150   5.508  -1.273  0.00  0.00    +0.266 C 
ATOM     28  N   UNL     1       4.069   6.605  -1.191  0.00  0.00    -0.199 NA
ATOM     29  O   UNL     1       3.477   4.498  -0.579  0.00  0.00    -0.268 OA
BRANCH  28  30
ATOM     30  C   UNL     1       4.743   6.868   0.057  0.00  0.00    +0.151 C 
BRANCH  30  31
ATOM     31  C   UNL     1       3.812   7.612   1.003  0.00  0.00    +0.205 C 
ATOM     32  O   UNL     1       4.071   7.117   2.280  0.00  0.00    -0.218 OA
ENDBRANCH  30  31
ENDBRANCH  28  30
ENDBRANCH   7  27
TORSDOF 11
ENDMDL
MODEL 9
REMARK VINA RESULT:      -5.6      5.180      9.626
REMARK  Name = 
REMARK  11 active torsions:
REMARK  status: ('A' for Active; 'I' for Inactive)
REMARK    1  A    between atoms: N_4  and  C_5
REMARK    2  A    between atoms: N_4  and  C_10
REMARK    3  A    between atoms: C_5  and  C_6
REMARK    4  A    between atoms: C_6  and  C_8
REMARK    5  A    between atoms: C_13  and  C_14
REMARK    6  A    between atoms: N_16  and  C_17
REMARK    7  A    between atoms: C_17  and  C_18
REMARK    8  A    between atoms: C_22  and  C_23
REMARK    9  A    between atoms: N_25  and  C_26
REMARK   10  A    between atoms: C_26  and  C_27
REMARK   11  A    between atoms: C_27  and  C_29
REMARK                            x       y       z     vdW  Elec       q    Type
REMARK                         _______ _______ _______ _____ _____    ______ ____
ROOT
ATOM      1  C   UNL     1       2.462   6.194  -2.833  0.00  0.00    +0.065 A 
ATOM      2  C   UNL     1       3.070   5.969  -4.061  0.00  0.00    +0.049 A 
ATOM      3  I   UNL     1       4.937   5.050  -4.189  0.00  0.00    -0.041 I 
ATOM      4  C   UNL     1       2.387   6.134  -5.261  0.00  0.00    +0.067 A 
ATOM      5  C   UNL     1       1.048   6.410  -5.265  0.00  0.00    +0.040 A 
ATOM      6  I   UNL     1       0.001   6.384  -7.100  0.00  0.00    -0.042 I 
ATOM      7  C   UNL     1       0.396   6.584  -4.050  0.00  0.00    +0.067 A 
ATOM      8  C   UNL     1       1.081   6.308  -2.872  0.00  0.00    +0.049 A 
ATOM      9  I   UNL     1      -0.075   5.718  -1.223  0.00  0.00    -0.041 I 
ENDROOT
BRANCH   1  12
ATOM     10  C   UNL     1       4.124   4.994  -1.289  0.00  0.00    +0.095 C 
ATOM     11  C   UNL     1       3.798   4.876  -1.336  0.00  0.00    +0.230 C 
ATOM     12  N   UNL     1       3.190   6.107  -1.592  0.00  0.00    -0.255 N 
ATOM     13  O   UNL     1       4.223   4.278  -0.373  0.00  0.00    -0.275 OA
BRANCH  12  14
ATOM     14  C   UNL     1       4.149   7.179  -1.255  0.00  0.00    +0.134 C 
BRANCH  14  15
ATOM     15  C   UNL     1       3.357   8.131  -0.164  0.00  0.00    +0.205 C 
ATOM     16  O   UNL     1       3.877   9.393  -0.841  0.00  0.00    -0.218 OA
BRANCH  15  17
ATOM     17  C   UNL     1       4.614   8.115   0.909  0.00  0.00    +0.217 C 
ATOM     18  O   UNL     1       4.237   6.974   1.643  0.00  0.00    -0.218 OA
ENDBRANCH  15  17
ENDBRANCH  14  15
ENDBRANCH  12  14
ENDBRANCH   1  12
BRANCH   4  19
ATOM     19  C   UNL     1       3.123   6.277  -6.527  0.00  0.00    +0.266 C 
ATOM     20  N   UNL     1       3.598   5.174  -7.271  0.00  0.00    -0.199 NA
ATOM     21  O   UNL     1       3.686   7.402  -6.688  0.00  0.00    -0.268 OA
BRANCH  20  22
ATOM     22  C   UNL     1       4.688   5.285  -8.231  0.00  0.00    +0.151 C 
BRANCH  22  23
ATOM     23  C   UNL     1       4.093   4.510  -9.566  0.00  0.00    +0.206 C 
ATOM     24  O   UNL     1       3.010   3.825  -8.742  0.00  0.00    -0.218 OA
BRANCH  23  25
ATOM     25  C   UNL     1       3.091   5.778  -9.917  0.00  0.00    +0.217 C 
ATOM     26  O   UNL     1       1.937   5.200 -10.410  0.00  0.00    -0.218 OA
ENDBRANCH  23  25
ENDBRANCH  22  23
ENDBRANCH  20  22
ENDBRANCH   4  19
BRANCH   7  27
ATOM     27  C   UNL     1      -1.073   6.572  -4.071  0.00  0.00    +0.266 C 
ATOM     28  N   UNL     1      -1.800   5.385  -4.412  0.00  0.00    -0.199 NA
ATOM     29  O   UNL     1      -1.684   7.653  -4.331  0.00  0.00    -0.268 OA
BRANCH  28  30
ATOM     30  C   UNL     1      -3.235   5.369  -4.263  0.00  0.00    +0.151 C 
BRANCH  30  31
ATOM     31  C   UNL     1      -3.605   5.442  -2.790  0.00  0.00    +0.205 C 
ATOM     32  O   UNL     1      -4.258   6.661  -2.608  0.00  0.00    -0.218 OA
ENDBRANCH  30  31
ENDBRANCH  28  30
ENDBRANCH   7  27
TORSDOF 11
ENDMDL
