MODEL 1
REMARK VINA RESULT:      -7.1      0.000      0.000
REMARK  Name = 
REMARK  5 active torsions:
REMARK  status: ('A' for Active; 'I' for Inactive)
REMARK    1  A    between atoms: O_2  and  C_3
REMARK    2  A    between atoms: C_6  and  C_7
REMARK    3  A    between atoms: C_7  and  C_8
REMARK    4  A    between atoms: C_7  and  C_12
REMARK    5  A    between atoms: C_8  and  N_9
REMARK                            x       y       z     vdW  Elec       q    Type
REMARK                         _______ _______ _______ _____ _____    ______ ____
ROOT
ATOM      1  C   UNL     1       3.746   5.335  -9.472  0.00  0.00    +0.066 C 
ENDROOT
BRANCH   1   2
ATOM      2  C   UNL     1       3.398   5.811  -7.948  0.00  0.00    +0.132 C 
ATOM      3  C   UNL     1       2.718   7.118  -7.965  0.00  0.00    +0.031 C 
ATOM      4  C   UNL     1       2.114   7.255  -6.585  0.00  0.00    +0.003 C 
ATOM      5  C   UNL     1       3.018   6.890  -5.471  0.00  0.00    +0.000 C 
ATOM      6  C   UNL     1       3.889   5.702  -5.657  0.00  0.00    +0.003 C 
ATOM      7  C   UNL     1       4.519   5.624  -7.037  0.00  0.00    +0.031 C 
ATOM      8  O   UNL     1       2.422   4.857  -7.610  0.00  0.00    -0.225 OA
ENDBRANCH   1   2
BRANCH   1  12
ATOM      9  C   UNL     1       7.277   6.757 -11.274  0.00  0.00    +0.139 A 
ATOM     10  C   UNL     1       7.282   5.793 -10.272  0.00  0.00    +0.037 A 
ATOM     11  C   UNL     1       6.179   5.637  -9.440  0.00  0.00    -0.001 A 
ATOM     12  C   UNL     1       4.998   6.346  -9.660  0.00  0.00    -0.019 A 
ATOM     13  C   UNL     1       5.013   7.185 -10.712  0.00  0.00    -0.001 A 
ATOM     14  C   UNL     1       6.218   7.648 -11.229  0.00  0.00    +0.037 A 
BRANCH   9  16
ATOM     15  C   UNL     1       9.119   5.816 -12.334  0.00  0.00    +0.252 C 
ATOM     16  O   UNL     1       8.086   6.615 -12.406  0.00  0.00    -0.471 OA
ENDBRANCH   9  16
ENDBRANCH   1  12
BRANCH   1  17
ATOM     17  C   UNL     1       2.630   6.346 -10.161  0.00  0.00    +0.079 C 
BRANCH  17  18
ATOM     18  N   UNL     1       2.023   5.366 -11.052  0.00  0.00    -0.270 NA
ATOM     19  C   UNL     1       0.725   5.003 -10.572  0.00  0.00    +0.090 C 
ATOM     20  C   UNL     1       2.101   5.700 -12.432  0.00  0.00    +0.090 C 
ENDBRANCH  17  18
ENDBRANCH   1  17
TORSDOF 5
ENDMDL
MODEL 2
REMARK VINA RESULT:      -7.0      4.092      8.341
REMARK  Name = 
REMARK  5 active torsions:
REMARK  status: ('A' for Active; 'I' for Inactive)
REMARK    1  A    between atoms: O_2  and  C_3
REMARK    2  A    between atoms: C_6  and  C_7
REMARK    3  A    between atoms: C_7  and  C_8
REMARK    4  A    between atoms: C_7  and  C_12
REMARK    5  A    between atoms: C_8  and  N_9
REMARK                            x       y       z     vdW  Elec       q    Type
REMARK                         _______ _______ _______ _____ _____    ______ ____
ROOT
ATOM      1  C   UNL     1       0.555   5.160  -5.853  0.00  0.00    +0.066 C 
ENDROOT
BRANCH   1   2
ATOM      2  C   UNL     1       0.858   5.634  -7.387  0.00  0.00    +0.132 C 
ATOM      3  C   UNL     1       1.595   6.910  -7.390  0.00  0.00    +0.031 C 
ATOM      4  C   UNL     1       2.144   7.033  -8.794  0.00  0.00    +0.003 C 
ATOM      5  C   UNL     1       1.178   6.717  -9.870  0.00  0.00    +0.000 C 
ATOM      6  C   UNL     1       0.264   5.568  -9.655  0.00  0.00    +0.003 C 
ATOM      7  C   UNL     1      -0.309   5.505  -8.249  0.00  0.00    +0.031 C 
ATOM      8  O   UNL     1       1.775   4.641  -7.774  0.00  0.00    -0.225 OA
ENDBRANCH   1   2
BRANCH   1  12
ATOM      9  C   UNL     1      -2.592   6.937  -3.692  0.00  0.00    +0.139 A 
ATOM     10  C   UNL     1      -2.713   5.697  -4.309  0.00  0.00    +0.037 A 
ATOM     11  C   UNL     1      -1.832   5.325  -5.318  0.00  0.00    -0.001 A 
ATOM     12  C   UNL     1      -0.735   6.119  -5.653  0.00  0.00    -0.019 A 
ATOM     13  C   UNL     1      -0.605   7.257  -4.947  0.00  0.00    -0.001 A 
ATOM     14  C   UNL     1      -1.701   7.810  -4.292  0.00  0.00    +0.037 A 
BRANCH   9  16
ATOM     15  C   UNL     1      -2.259   6.983  -1.392  0.00  0.00    +0.252 C 
ATOM     16  O   UNL     1      -3.081   7.140  -2.397  0.00  0.00    -0.471 OA
ENDBRANCH   9  16
ENDBRANCH   1  12
BRANCH   1  17
ATOM     17  C   UNL     1       1.639   6.225  -5.193  0.00  0.00    +0.079 C 
BRANCH  17  18
ATOM     18  N   UNL     1       2.258   5.297  -4.255  0.00  0.00    -0.270 NA
ATOM     19  C   UNL     1       3.577   4.961  -4.695  0.00  0.00    +0.090 C 
ATOM     20  C   UNL     1       2.139   5.676  -2.889  0.00  0.00    +0.090 C 
ENDBRANCH  17  18
ENDBRANCH   1  17
TORSDOF 5
ENDMDL
MODEL 3
REMARK VINA RESULT:      -6.8      2.767      4.796
REMARK  Name = 
REMARK  5 active torsions:
REMARK  status: ('A' for Active; 'I' for Inactive)
REMARK    1  A    between atoms: O_2  and  C_3
REMARK    2  A    between atoms: C_6  and  C_7
REMARK    3  A    between atoms: C_7  and  C_8
REMARK    4  A    between atoms: C_7  and  C_12
REMARK    5  A    between atoms: C_8  and  N_9
REMARK                            x       y       z     vdW  Elec       q    Type
REMARK                         _______ _______ _______ _____ _____    ______ ____
ROOT
ATOM      1  C   UNL     1       2.126   6.503  -6.164  0.00  0.00    +0.066 C 
ENDROOT
BRANCH   1   2
ATOM      2  C   UNL     1       0.541   6.122  -6.052  0.00  0.00    +0.132 C 
ATOM      3  C   UNL     1       0.011   5.750  -7.375  0.00  0.00    +0.031 C 
ATOM      4  C   UNL     1      -1.303   5.060  -7.083  0.00  0.00    +0.003 C 
ATOM      5  C   UNL     1      -2.161   5.750  -6.094  0.00  0.00    +0.000 C 
ATOM      6  C   UNL     1      -1.496   6.353  -4.912  0.00  0.00    +0.003 C 
ATOM      7  C   UNL     1      -0.206   7.081  -5.250  0.00  0.00    +0.031 C 
ATOM      8  O   UNL     1       0.627   4.933  -5.307  0.00  0.00    -0.225 OA
ENDBRANCH   1   2
BRANCH   1  12
ATOM      9  C   UNL     1       4.294   5.488  -9.628  0.00  0.00    +0.139 A 
ATOM     10  C   UNL     1       3.697   6.731  -9.455  0.00  0.00    +0.037 A 
ATOM     11  C   UNL     1       2.683   6.900  -8.518  0.00  0.00    -0.001 A 
ATOM     12  C   UNL     1       2.325   5.874  -7.643  0.00  0.00    -0.019 A 
ATOM     13  C   UNL     1       3.014   4.726  -7.782  0.00  0.00    -0.001 A 
ATOM     14  C   UNL     1       3.672   4.438  -8.973  0.00  0.00    +0.037 A 
BRANCH   9  16
ATOM     15  C   UNL     1       6.591   5.750  -9.381  0.00  0.00    +0.252 C 
ATOM     16  O   UNL     1       5.592   5.385 -10.141  0.00  0.00    -0.471 OA
ENDBRANCH   9  16
ENDBRANCH   1  12
BRANCH   1  17
ATOM     17  C   UNL     1       2.623   5.146  -5.354  0.00  0.00    +0.079 C 
BRANCH  17  18
ATOM     18  N   UNL     1       3.563   5.804  -4.456  0.00  0.00    -0.270 NA
ATOM     19  C   UNL     1       4.735   5.000  -4.296  0.00  0.00    +0.090 C 
ATOM     20  C   UNL     1       3.791   7.177  -4.751  0.00  0.00    +0.090 C 
ENDBRANCH  17  18
ENDBRANCH   1  17
TORSDOF 5
ENDMDL
MODEL 4
REMARK VINA RESULT:      -6.7      1.667      5.535
REMARK  Name = 
REMARK  5 active torsions:
REMARK  status: ('A' for Active; 'I' for Inactive)
REMARK    1  A    between atoms: O_2  and  C_3
REMARK    2  A    between atoms: C_6  and  C_7
REMARK    3  A    between atoms: C_7  and  C_8
REMARK    4  A    between atoms: C_7  and  C_12
REMARK    5  A    between atoms: C_8  and  N_9
REMARK                            x       y       z     vdW  Elec       q    Type
REMARK                         _______ _______ _______ _____ _____    ______ ____
ROOT
ATOM      1  C   UNL     1       3.756   6.667 -10.084  0.00  0.00    +0.066 C 
ENDROOT
BRANCH   1   2
ATOM      2  C   UNL     1       5.239   6.299 -10.662  0.00  0.00    +0.132 C 
ATOM      3  C   UNL     1       5.124   5.411 -11.831  0.00  0.00    +0.031 C 
ATOM      4  C   UNL     1       6.485   5.465 -12.490  0.00  0.00    +0.003 C 
ATOM      5  C   UNL     1       7.631   5.346 -11.562  0.00  0.00    +0.000 C 
ATOM      6  C   UNL     1       7.538   6.056 -10.262  0.00  0.00    +0.003 C 
ATOM      7  C   UNL     1       6.173   5.937  -9.604  0.00  0.00    +0.031 C 
ATOM      8  O   UNL     1       5.631   7.557 -11.152  0.00  0.00    -0.225 OA
ENDBRANCH   1   2
BRANCH   1  12
ATOM      9  C   UNL     1       2.177   4.503  -6.835  0.00  0.00    +0.139 A 
ATOM     10  C   UNL     1       2.748   5.762  -6.690  0.00  0.00    +0.037 A 
ATOM     11  C   UNL     1       3.595   6.267  -7.670  0.00  0.00    -0.001 A 
ATOM     12  C   UNL     1       3.797   5.591  -8.874  0.00  0.00    -0.019 A 
ATOM     13  C   UNL     1       3.131   4.429  -9.005  0.00  0.00    -0.001 A 
ATOM     14  C   UNL     1       2.674   3.746  -7.883  0.00  0.00    +0.037 A 
BRANCH   9  16
ATOM     15  C   UNL     1      -0.003   5.043  -6.235  0.00  0.00    +0.252 C 
ATOM     16  O   UNL     1       0.981   4.183  -6.184  0.00  0.00    -0.471 OA
ENDBRANCH   9  16
ENDBRANCH   1  12
BRANCH   1  17
ATOM     17  C   UNL     1       2.972   5.669 -11.148  0.00  0.00    +0.079 C 
BRANCH  17  18
ATOM     18  N   UNL     1       1.926   6.605 -11.538  0.00  0.00    -0.270 NA
ATOM     19  C   UNL     1       1.651   6.481 -12.936  0.00  0.00    +0.090 C 
ATOM     20  C   UNL     1       0.789   6.603 -10.682  0.00  0.00    +0.090 C 
ENDBRANCH  17  18
ENDBRANCH   1  17
TORSDOF 5
ENDMDL
MODEL 5
REMARK VINA RESULT:      -6.5      3.544      5.973
REMARK  Name = 
REMARK  5 active torsions:
REMARK  status: ('A' for Active; 'I' for Inactive)
REMARK    1  A    between atoms: O_2  and  C_3
REMARK    2  A    between atoms: C_6  and  C_7
REMARK    3  A    between atoms: C_7  and  C_8
REMARK    4  A    between atoms: C_7  and  C_12
REMARK    5  A    between atoms: C_8  and  N_9
REMARK                            x       y       z     vdW  Elec       q    Type
REMARK                         _______ _______ _______ _____ _____    ______ ____
ROOT
ATOM      1  C   UNL     1       0.984   6.833  -5.639  0.00  0.00    +0.066 C 
ENDROOT
BRANCH   1   2
ATOM      2  C   UNL     1      -0.466   6.378  -5.038  0.00  0.00    +0.132 C 
ATOM      3  C   UNL     1      -0.283   5.597  -3.802  0.00  0.00    +0.031 C 
ATOM      4  C   UNL     1      -1.649   5.579  -3.153  0.00  0.00    +0.003 C 
ATOM      5  C   UNL     1      -2.771   5.285  -4.073  0.00  0.00    +0.000 C 
ATOM      6  C   UNL     1      -2.729   5.897  -5.424  0.00  0.00    +0.003 C 
ATOM      7  C   UNL     1      -1.353   5.851  -6.067  0.00  0.00    +0.031 C 
ATOM      8  O   UNL     1      -0.974   7.630  -4.650  0.00  0.00    -0.225 OA
ENDBRANCH   1   2
BRANCH   1  12
ATOM      9  C   UNL     1       2.816   4.517  -8.641  0.00  0.00    +0.139 A 
ATOM     10  C   UNL     1       2.183   5.726  -8.908  0.00  0.00    +0.037 A 
ATOM     11  C   UNL     1       1.269   6.256  -8.005  0.00  0.00    -0.001 A 
ATOM     12  C   UNL     1       1.054   5.665  -6.759  0.00  0.00    -0.019 A 
ATOM     13  C   UNL     1       1.776   4.557  -6.510  0.00  0.00    -0.001 A 
ATOM     14  C   UNL     1       2.316   3.817  -7.556  0.00  0.00    +0.037 A 
BRANCH   9  16
ATOM     15  C   UNL     1       4.880   5.201  -9.464  0.00  0.00    +0.252 C 
ATOM     16  O   UNL     1       4.054   4.217  -9.218  0.00  0.00    -0.471 OA
ENDBRANCH   9  16
ENDBRANCH   1  12
BRANCH   1  17
ATOM     17  C   UNL     1       1.844   5.998  -4.496  0.00  0.00    +0.079 C 
BRANCH  17  18
ATOM     18  N   UNL     1       2.780   7.063  -4.159  0.00  0.00    -0.270 NA
ATOM     19  C   UNL     1       3.085   7.025  -2.762  0.00  0.00    +0.090 C 
ATOM     20  C   UNL     1       3.898   7.160  -5.033  0.00  0.00    +0.090 C 
ENDBRANCH  17  18
ENDBRANCH   1  17
TORSDOF 5
ENDMDL
MODEL 6
REMARK VINA RESULT:      -6.5      5.039      7.806
REMARK  Name = 
REMARK  5 active torsions:
REMARK  status: ('A' for Active; 'I' for Inactive)
REMARK    1  A    between atoms: O_2  and  C_3
REMARK    2  A    between atoms: C_6  and  C_7
REMARK    3  A    between atoms: C_7  and  C_8
REMARK    4  A    between atoms: C_7  and  C_12
REMARK    5  A    between atoms: C_8  and  N_9
REMARK                            x       y       z     vdW  Elec       q    Type
REMARK                         _______ _______ _______ _____ _____    ______ ____
ROOT
ATOM      1  C   UNL     1       0.848   5.199  -4.751  0.00  0.00    +0.066 C 
ENDROOT
BRANCH   1   2
ATOM      2  C   UNL     1      -0.606   5.895  -5.016  0.00  0.00    +0.132 C 
ATOM      3  C   UNL     1      -1.198   5.382  -6.263  0.00  0.00    +0.031 C 
ATOM      4  C   UNL     1      -2.655   5.782  -6.192  0.00  0.00    +0.003 C 
ATOM      5  C   UNL     1      -2.896   7.177  -5.760  0.00  0.00    +0.000 C 
ATOM      6  C   UNL     1      -2.046   7.714  -4.669  0.00  0.00    +0.003 C 
ATOM      7  C   UNL     1      -0.580   7.336  -4.802  0.00  0.00    +0.031 C 
ATOM      8  O   UNL     1      -1.344   5.330  -3.961  0.00  0.00    -0.225 OA
ENDBRANCH   1   2
BRANCH   1  12
ATOM      9  C   UNL     1       2.810   5.906  -1.093  0.00  0.00    +0.139 A 
ATOM     10  C   UNL     1       1.728   5.040  -1.208  0.00  0.00    +0.037 A 
ATOM     11  C   UNL     1       0.872   5.126  -2.301  0.00  0.00    -0.001 A 
ATOM     12  C   UNL     1       1.139   5.987  -3.366  0.00  0.00    -0.019 A 
ATOM     13  C   UNL     1       2.260   6.722  -3.250  0.00  0.00    -0.001 A 
ATOM     14  C   UNL     1       2.830   6.950  -2.002  0.00  0.00    +0.037 A 
BRANCH   9  16
ATOM     15  C   UNL     1       4.738   6.494   0.065  0.00  0.00    +0.252 C 
ATOM     16  O   UNL     1       3.935   5.546  -0.343  0.00  0.00    -0.471 OA
ENDBRANCH   9  16
ENDBRANCH   1  12
BRANCH   1  17
ATOM     17  C   UNL     1       1.661   6.277  -5.711  0.00  0.00    +0.079 C 
BRANCH  17  18
ATOM     18  N   UNL     1       2.401   5.297  -6.497  0.00  0.00    -0.270 NA
ATOM     19  C   UNL     1       3.782   5.665  -6.567  0.00  0.00    +0.090 C 
ATOM     20  C   UNL     1       2.139   3.944  -6.144  0.00  0.00    +0.090 C 
ENDBRANCH  17  18
ENDBRANCH   1  17
TORSDOF 5
ENDMDL
MODEL 7
REMARK VINA RESULT:      -6.4      2.629      4.725
REMARK  Name = 
REMARK  5 active torsions:
REMARK  status: ('A' for Active; 'I' for Inactive)
REMARK    1  A    between atoms: O_2  and  C_3
REMARK    2  A    between atoms: C_6  and  C_7
REMARK    3  A    between atoms: C_7  and  C_8
REMARK    4  A    between atoms: C_7  and  C_12
REMARK    5  A    between atoms: C_8  and  N_9
REMARK                            x       y       z     vdW  Elec       q    Type
REMARK                         _______ _______ _______ _____ _____    ______ ____
ROOT
ATOM      1  C   UNL     1       2.761   6.637  -8.731  0.00  0.00    +0.066 C 
ENDROOT
BRANCH   1   2
ATOM      2  C   UNL     1       2.387   6.353  -7.166  0.00  0.00    +0.132 C 
ATOM      3  C   UNL     1       3.047   5.121  -6.700  0.00  0.00    +0.031 C 
ATOM      4  C   UNL     1       2.952   5.181  -5.191  0.00  0.00    +0.003 C 
ATOM      5  C   UNL     1       1.625   5.571  -4.667  0.00  0.00    +0.000 C 
ATOM      6  C   UNL     1       0.893   6.646  -5.382  0.00  0.00    +0.003 C 
ATOM      7  C   UNL     1       0.966   6.524  -6.895  0.00  0.00    +0.031 C 
ATOM      8  O   UNL     1       3.061   7.424  -6.554  0.00  0.00    -0.225 OA
ENDBRANCH   1   2
BRANCH   1  12
ATOM      9  C   UNL     1       0.284   5.025 -11.730  0.00  0.00    +0.139 A 
ATOM     10  C   UNL     1       0.400   6.392 -11.509  0.00  0.00    +0.037 A 
ATOM     11  C   UNL     1       0.890   6.869 -10.298  0.00  0.00    -0.001 A 
ATOM     12  C   UNL     1       1.395   6.003  -9.328  0.00  0.00    -0.019 A 
ATOM     13  C   UNL     1       1.360   4.696  -9.642  0.00  0.00    -0.001 A 
ATOM     14  C   UNL     1       0.484   4.227 -10.616  0.00  0.00    +0.037 A 
BRANCH   9  16
ATOM     15  C   UNL     1       1.246   4.899 -13.843  0.00  0.00    +0.252 C 
ATOM     16  O   UNL     1       0.299   4.509 -13.031  0.00  0.00    -0.471 OA
ENDBRANCH   9  16
ENDBRANCH   1  12
BRANCH   1  17
ATOM     17  C   UNL     1       3.652   5.249  -8.885  0.00  0.00    +0.079 C 
BRANCH  17  18
ATOM     18  N   UNL     1       4.731   5.814  -9.685  0.00  0.00    -0.270 NA
ATOM     19  C   UNL     1       5.994   5.538  -9.073  0.00  0.00    +0.090 C 
ATOM     20  C   UNL     1       4.643   5.526 -11.076  0.00  0.00    +0.090 C 
ENDBRANCH  17  18
ENDBRANCH   1  17
TORSDOF 5
ENDMDL
MODEL 8
REMARK VINA RESULT:      -6.4      3.226      5.036
REMARK  Name = 
REMARK  5 active torsions:
REMARK  status: ('A' for Active; 'I' for Inactive)
REMARK    1  A    between atoms: O_2  and  C_3
REMARK    2  A    between atoms: C_6  and  C_7
REMARK    3  A    between atoms: C_7  and  C_8
REMARK    4  A    between atoms: C_7  and  C_12
REMARK    5  A    between atoms: C_8  and  N_9
REMARK                            x       y       z     vdW  Elec       q    Type
REMARK                         _______ _______ _______ _____ _____    ______ ____
ROOT
ATOM      1  C   UNL     1       1.482   6.058  -8.069  0.00  0.00    +0.066 C 
ENDROOT
BRANCH   1   2
ATOM      2  C   UNL     1       0.332   5.884  -6.921  0.00  0.00    +0.132 C 
ATOM      3  C   UNL     1      -0.989   5.702  -7.547  0.00  0.00    +0.031 C 
ATOM      4  C   UNL     1      -1.870   5.172  -6.437  0.00  0.00    +0.003 C 
ATOM      5  C   UNL     1      -1.738   5.882  -5.145  0.00  0.00    +0.000 C 
ATOM      6  C   UNL     1      -0.375   6.287  -4.721  0.00  0.00    +0.003 C 
ATOM      7  C   UNL     1       0.464   6.863  -5.850  0.00  0.00    +0.031 C 
ATOM      8  O   UNL     1       0.700   4.634  -6.393  0.00  0.00    -0.225 OA
ENDBRANCH   1   2
BRANCH   1  12
ATOM      9  C   UNL     1       0.500   5.528 -12.129  0.00  0.00    +0.139 A 
ATOM     10  C   UNL     1       0.502   6.775 -11.515  0.00  0.00    +0.037 A 
ATOM     11  C   UNL     1       0.437   6.877 -10.130  0.00  0.00    -0.001 A 
ATOM     12  C   UNL     1       0.496   5.746  -9.315  0.00  0.00    -0.019 A 
ATOM     13  C   UNL     1       0.605   4.571  -9.962  0.00  0.00    -0.001 A 
ATOM     14  C   UNL     1       0.220   4.460 -11.294  0.00  0.00    +0.037 A 
BRANCH   9  16
ATOM     15  C   UNL     1       2.362   5.416 -13.516  0.00  0.00    +0.252 C 
ATOM     16  O   UNL     1       1.061   5.357 -13.399  0.00  0.00    -0.471 OA
ENDBRANCH   9  16
ENDBRANCH   1  12
BRANCH   1  17
ATOM     17  C   UNL     1       2.028   4.502  -7.915  0.00  0.00    +0.079 C 
BRANCH  17  18
ATOM     18  N   UNL     1       3.452   4.808  -7.919  0.00  0.00    -0.270 NA
ATOM     19  C   UNL     1       4.048   4.361  -9.140  0.00  0.00    +0.090 C 
ATOM     20  C   UNL     1       3.767   6.140  -7.529  0.00  0.00    +0.090 C 
ENDBRANCH  17  18
ENDBRANCH   1  17
TORSDOF 5
ENDMDL
MODEL 9
REMARK VINA RESULT:      -6.3      3.166      6.350
REMARK  Name = 
REMARK  5 active torsions:
REMARK  status: ('A' for Active; 'I' for Inactive)
REMARK    1  A    between atoms: O_2  and  C_3
REMARK    2  A    between atoms: C_6  and  C_7
REMARK    3  A    between atoms: C_7  and  C_8
REMARK    4  A    between atoms: C_7  and  C_12
REMARK    5  A    between atoms: C_8  and  N_9
REMARK                            x       y       z     vdW  Elec       q    Type
REMARK                         _______ _______ _______ _____ _____    ______ ____
ROOT
ATOM      1  C   UNL     1       1.860   6.809  -6.406  0.00  0.00    +0.066 C 
ENDROOT
BRANCH   1   2
ATOM      2  C   UNL     1       2.248   6.443  -7.950  0.00  0.00    +0.132 C 
ATOM      3  C   UNL     1       1.521   5.238  -8.386  0.00  0.00    +0.031 C 
ATOM      4  C   UNL     1       1.651   5.236  -9.894  0.00  0.00    +0.003 C 
ATOM      5  C   UNL     1       3.011   5.522 -10.402  0.00  0.00    +0.000 C 
ATOM      6  C   UNL     1       3.795   6.575  -9.709  0.00  0.00    +0.003 C 
ATOM      7  C   UNL     1       3.682   6.515  -8.194  0.00  0.00    +0.031 C 
ATOM      8  O   UNL     1       1.656   7.531  -8.616  0.00  0.00    -0.225 OA
ENDBRANCH   1   2
BRANCH   1  12
ATOM      9  C   UNL     1       4.329   5.385  -3.307  0.00  0.00    +0.139 A 
ATOM     10  C   UNL     1       4.202   6.737  -3.602  0.00  0.00    +0.037 A 
ATOM     11  C   UNL     1       3.716   7.144  -4.840  0.00  0.00    -0.001 A 
ATOM     12  C   UNL     1       3.228   6.223  -5.766  0.00  0.00    -0.019 A 
ATOM     13  C   UNL     1       3.274   4.934  -5.382  0.00  0.00    -0.001 A 
ATOM     14  C   UNL     1       4.147   4.527  -4.379  0.00  0.00    +0.037 A 
BRANCH   9  16
ATOM     15  C   UNL     1       3.184   5.004  -1.320  0.00  0.00    +0.252 C 
ATOM     16  O   UNL     1       4.310   4.939  -1.981  0.00  0.00    -0.471 OA
ENDBRANCH   9  16
ENDBRANCH   1  12
BRANCH   1  17
ATOM     17  C   UNL     1       0.982   5.423  -6.182  0.00  0.00    +0.079 C 
BRANCH  17  18
ATOM     18  N   UNL     1      -0.096   6.015  -5.399  0.00  0.00    -0.270 NA
ATOM     19  C   UNL     1      -1.352   5.802  -6.051  0.00  0.00    +0.090 C 
ATOM     20  C   UNL     1      -0.058   5.697  -4.013  0.00  0.00    +0.090 C 
ENDBRANCH  17  18
ENDBRANCH   1  17
TORSDOF 5
ENDMDL
