MODEL 1
REMARK VINA RESULT:      -9.0      0.000      0.000
REMARK  Name = 
REMARK  13 active torsions:
REMARK  status: ('A' for Active; 'I' for Inactive)
REMARK    1  A    between atoms: C_3  and  C_4
REMARK    2  A    between atoms: C_4  and  C_5
REMARK    3  A    between atoms: C_5  and  C_7
REMARK    4  A    between atoms: C_7  and  C_9
REMARK    5  A    between atoms: C_10  and  C_11
REMARK    6  A    between atoms: C_15  and  C_16
REMARK    7  A    between atoms: C_16  and  C_17
REMARK    8  A    between atoms: C_17  and  C_18
REMARK    9  A    between atoms: C_18  and  C_19
REMARK   10  A    between atoms: C_19  and  O_21
REMARK   11  A    between atoms: O_21  and  C_22
REMARK   12  A    between atoms: C_22  and  C_23
REMARK   13  A    between atoms: C_23  and  C_25
REMARK                            x       y       z     vdW  Elec       q    Type
REMARK                         _______ _______ _______ _____ _____    ______ ____
ROOT
ATOM      1  C   UNL     1       1.383   6.725  -5.102  0.00  0.00    +0.052 C 
ATOM      2  C   UNL     1       1.632   5.055  -5.312  0.00  0.00    +0.156 C 
ATOM      3  O   UNL     1       1.058   4.727  -3.944  0.00  0.00    -0.223 OA
ATOM      4  C   UNL     1       0.264   4.708  -6.146  0.00  0.00    +0.034 C 
ATOM      5  C   UNL     1      -0.630   5.491  -5.068  0.00  0.00    +0.007 C 
ATOM      6  C   UNL     1      -1.995   5.756  -5.925  0.00  0.00    +0.022 C 
ATOM      7  C   UNL     1      -2.214   6.933  -4.973  0.00  0.00    -0.048 C 
ATOM      8  C   UNL     1      -2.757   6.503  -3.850  0.00  0.00    -0.035 C 
ATOM      9  C   UNL     1      -0.916   7.695  -4.820  0.00  0.00    +0.022 C 
ATOM     10  C   UNL     1      -0.069   6.838  -5.897  0.00  0.00    +0.011 C 
ENDROOT
BRANCH   1  12
ATOM     11  C   UNL     1       1.728   7.422  -7.516  0.00  0.00    +0.002 C 
ATOM     12  C   UNL     1       2.243   7.022  -6.401  0.00  0.00    -0.026 C 
BRANCH  11  13
ATOM     13  C   UNL     1       2.799   7.186  -8.711  0.00  0.00    +0.175 C 
ATOM     14  O   UNL     1       3.718   6.410  -7.791  0.00  0.00    -0.218 OA
BRANCH  13  15
ATOM     15  C   UNL     1       2.039   5.758  -9.269  0.00  0.00    +0.048 C 
ATOM     16  C   UNL     1       3.239   5.380 -10.287  0.00  0.00    +0.004 C 
BRANCH  15  17
ATOM     17  C   UNL     1       1.235   6.548 -10.429  0.00  0.00    +0.079 C 
BRANCH  17  20
ATOM     18  C   UNL     1       0.687   4.348 -13.766  0.00  0.00    +0.090 C 
ATOM     19  C   UNL     1       0.598   4.914 -12.453  0.00  0.00    -0.090 C 
ATOM     20  C   UNL     1       0.956   5.566 -11.489  0.00  0.00    -0.091 C 
ENDBRANCH  17  20
ENDBRANCH  15  17
ENDBRANCH  13  15
ENDBRANCH  11  13
ENDBRANCH   1  12
BRANCH   8  21
ATOM     21  C   UNL     1      -2.701   6.917  -2.481  0.00  0.00    +0.026 C 
BRANCH  21  22
ATOM     22  C   UNL     1      -2.219   5.939  -1.474  0.00  0.00    +0.016 C 
BRANCH  22  23
ATOM     23  C   UNL     1      -0.735   6.164  -1.455  0.00  0.00    +0.110 C 
BRANCH  23  24
ATOM     24  C   UNL     1      -0.208   6.795  -0.270  0.00  0.00    +0.317 C 
ATOM     25  O   UNL     1      -0.500   7.873   0.274  0.00  0.00    -0.250 OA
BRANCH  24  26
ATOM     26  O   UNL     1       1.112   6.388  -0.004  0.00  0.00    -0.440 OA
BRANCH  26  27
ATOM     27  C   UNL     1       2.209   7.276  -0.010  0.00  0.00    +0.277 C 
BRANCH  27  28
ATOM     28  C   UNL     1       3.334   6.480  -0.590  0.00  0.00    +0.217 C 
ATOM     29  O   UNL     1       4.218   6.121   0.247  0.00  0.00    -0.287 OA
BRANCH  28  30
ATOM     30  C   UNL     1       3.665   6.586  -1.997  0.00  0.00    +0.038 A 
ATOM     31  C   UNL     1       4.170   5.457  -2.612  0.00  0.00    +0.003 A 
ATOM     32  C   UNL     1       4.856   5.607  -3.809  0.00  0.00    +0.000 A 
ATOM     33  C   UNL     1       5.310   6.870  -4.175  0.00  0.00    +0.000 A 
ATOM     34  C   UNL     1       4.717   7.966  -3.593  0.00  0.00    +0.000 A 
ATOM     35  C   UNL     1       3.645   7.729  -2.736  0.00  0.00    +0.003 A 
ENDBRANCH  28  30
ENDBRANCH  27  28
ENDBRANCH  26  27
ENDBRANCH  24  26
ENDBRANCH  23  24
ENDBRANCH  22  23
ENDBRANCH  21  22
ENDBRANCH   8  21
TORSDOF 13
ENDMDL
MODEL 2
REMARK VINA RESULT:      -8.9      2.079      5.096
REMARK  Name = 
REMARK  13 active torsions:
REMARK  status: ('A' for Active; 'I' for Inactive)
REMARK    1  A    between atoms: C_3  and  C_4
REMARK    2  A    between atoms: C_4  and  C_5
REMARK    3  A    between atoms: C_5  and  C_7
REMARK    4  A    between atoms: C_7  and  C_9
REMARK    5  A    between atoms: C_10  and  C_11
REMARK    6  A    between atoms: C_15  and  C_16
REMARK    7  A    between atoms: C_16  and  C_17
REMARK    8  A    between atoms: C_17  and  C_18
REMARK    9  A    between atoms: C_18  and  C_19
REMARK   10  A    between atoms: C_19  and  O_21
REMARK   11  A    between atoms: O_21  and  C_22
REMARK   12  A    between atoms: C_22  and  C_23
REMARK   13  A    between atoms: C_23  and  C_25
REMARK                            x       y       z     vdW  Elec       q    Type
REMARK                         _______ _______ _______ _____ _____    ______ ____
ROOT
ATOM      1  C   UNL     1       3.322   7.134  -4.821  0.00  0.00    +0.052 C 
ATOM      2  C   UNL     1       5.011   7.290  -4.687  0.00  0.00    +0.156 C 
ATOM      3  O   UNL     1       4.899   8.240  -3.507  0.00  0.00    -0.223 OA
ATOM      4  C   UNL     1       5.308   5.953  -3.787  0.00  0.00    +0.034 C 
ATOM      5  C   UNL     1       4.150   6.352  -2.752  0.00  0.00    +0.007 C 
ATOM      6  C   UNL     1       3.868   4.916  -2.027  0.00  0.00    +0.022 C 
ATOM      7  C   UNL     1       2.478   5.481  -1.730  0.00  0.00    -0.048 C 
ATOM      8  C   UNL     1       2.527   6.248  -0.657  0.00  0.00    -0.035 C 
ATOM      9  C   UNL     1       1.935   6.141  -2.979  0.00  0.00    +0.022 C 
ATOM     10  C   UNL     1       3.156   5.729  -3.953  0.00  0.00    +0.011 C 
ENDROOT
BRANCH   1  12
ATOM     11  C   UNL     1       3.099   6.878  -7.335  0.00  0.00    +0.002 C 
ATOM     12  C   UNL     1       3.496   6.385  -6.209  0.00  0.00    -0.026 C 
BRANCH  11  13
ATOM     13  C   UNL     1       3.019   5.689  -8.435  0.00  0.00    +0.175 C 
ATOM     14  O   UNL     1       1.882   6.379  -9.160  0.00  0.00    -0.218 OA
BRANCH  13  15
ATOM     15  C   UNL     1       4.193   6.397  -9.460  0.00  0.00    +0.048 C 
ATOM     16  C   UNL     1       3.893   5.389 -10.691  0.00  0.00    +0.004 C 
BRANCH  15  17
ATOM     17  C   UNL     1       5.370   5.441  -8.897  0.00  0.00    +0.079 C 
BRANCH  17  20
ATOM     18  C   UNL     1       8.359   6.042 -11.539  0.00  0.00    +0.090 C 
ATOM     19  C   UNL     1       7.585   5.824 -10.353  0.00  0.00    -0.090 C 
ATOM     20  C   UNL     1       6.581   5.770  -9.668  0.00  0.00    -0.091 C 
ENDBRANCH  17  20
ENDBRANCH  15  17
ENDBRANCH  13  15
ENDBRANCH  11  13
ENDBRANCH   1  12
BRANCH   8  21
ATOM     21  C   UNL     1       1.814   7.406  -0.214  0.00  0.00    +0.026 C 
BRANCH  21  22
ATOM     22  C   UNL     1       0.730   7.221   0.783  0.00  0.00    +0.016 C 
BRANCH  22  23
ATOM     23  C   UNL     1      -0.305   6.439   0.028  0.00  0.00    +0.110 C 
BRANCH  23  24
ATOM     24  C   UNL     1      -1.311   7.216  -0.652  0.00  0.00    +0.317 C 
ATOM     25  O   UNL     1      -1.658   8.400  -0.508  0.00  0.00    -0.250 OA
BRANCH  24  26
ATOM     26  O   UNL     1      -2.338   6.405  -1.169  0.00  0.00    -0.440 OA
BRANCH  26  27
ATOM     27  C   UNL     1      -3.183   6.809  -2.225  0.00  0.00    +0.277 C 
BRANCH  27  28
ATOM     28  C   UNL     1      -2.966   5.785  -3.293  0.00  0.00    +0.217 C 
ATOM     29  O   UNL     1      -2.925   4.586  -2.879  0.00  0.00    -0.287 OA
BRANCH  28  30
ATOM     30  C   UNL     1      -2.324   6.145  -4.542  0.00  0.00    +0.038 A 
ATOM     31  C   UNL     1      -2.562   5.327  -5.629  0.00  0.00    +0.003 A 
ATOM     32  C   UNL     1      -1.688   5.390  -6.706  0.00  0.00    +0.000 A 
ATOM     33  C   UNL     1      -0.445   5.990  -6.535  0.00  0.00    +0.000 A 
ATOM     34  C   UNL     1      -0.285   6.860  -5.482  0.00  0.00    +0.000 A 
ATOM     35  C   UNL     1      -1.409   7.139  -4.710  0.00  0.00    +0.003 A 
ENDBRANCH  28  30
ENDBRANCH  27  28
ENDBRANCH  26  27
ENDBRANCH  24  26
ENDBRANCH  23  24
ENDBRANCH  22  23
ENDBRANCH  21  22
ENDBRANCH   8  21
TORSDOF 13
ENDMDL
MODEL 3
REMARK VINA RESULT:      -8.7      3.151     10.319
REMARK  Name = 
REMARK  13 active torsions:
REMARK  status: ('A' for Active; 'I' for Inactive)
REMARK    1  A    between atoms: C_3  and  C_4
REMARK    2  A    between atoms: C_4  and  C_5
REMARK    3  A    between atoms: C_5  and  C_7
REMARK    4  A    between atoms: C_7  and  C_9
REMARK    5  A    between atoms: C_10  and  C_11
REMARK    6  A    between atoms: C_15  and  C_16
REMARK    7  A    between atoms: C_16  and  C_17
REMARK    8  A    between atoms: C_17  and  C_18
REMARK    9  A    between atoms: C_18  and  C_19
REMARK   10  A    between atoms: C_19  and  O_21
REMARK   11  A    between atoms: O_21  and  C_22
REMARK   12  A    between atoms: C_22  and  C_23
REMARK   13  A    between atoms: C_23  and  C_25
REMARK                            x       y       z     vdW  Elec       q    Type
REMARK                         _______ _______ _______ _____ _____    ______ ____
ROOT
ATOM      1  C   UNL     1       3.293   7.082  -6.544  0.00  0.00    +0.052 C 
ATOM      2  C   UNL     1       1.657   7.383  -6.898  0.00  0.00    +0.156 C 
ATOM      3  O   UNL     1       2.004   8.383  -7.988  0.00  0.00    -0.223 OA
ATOM      4  C   UNL     1       1.393   6.125  -7.915  0.00  0.00    +0.034 C 
ATOM      5  C   UNL     1       2.712   6.483  -8.753  0.00  0.00    +0.007 C 
ATOM      6  C   UNL     1       2.988   5.070  -9.525  0.00  0.00    +0.022 C 
ATOM      7  C   UNL     1       4.443   5.535  -9.590  0.00  0.00    -0.048 C 
ATOM      8  C   UNL     1       4.604   6.359 -10.608  0.00  0.00    -0.035 C 
ATOM      9  C   UNL     1       4.851   6.080  -8.238  0.00  0.00    +0.022 C 
ATOM     10  C   UNL     1       3.477   5.717  -7.470  0.00  0.00    +0.011 C 
ENDROOT
BRANCH   1  12
ATOM     11  C   UNL     1       3.391   6.482  -4.082  0.00  0.00    +0.002 C 
ATOM     12  C   UNL     1       2.869   6.276  -5.245  0.00  0.00    -0.026 C 
BRANCH  11  13
ATOM     13  C   UNL     1       3.069   5.213  -3.123  0.00  0.00    +0.175 C 
ATOM     14  O   UNL     1       3.884   4.289  -4.002  0.00  0.00    -0.218 OA
BRANCH  13  15
ATOM     15  C   UNL     1       4.397   5.510  -2.085  0.00  0.00    +0.048 C 
ATOM     16  C   UNL     1       4.038   4.287  -1.088  0.00  0.00    +0.004 C 
BRANCH  15  17
ATOM     17  C   UNL     1       3.557   6.559  -1.185  0.00  0.00    +0.079 C 
BRANCH  17  20
ATOM     18  C   UNL     1       5.343   7.850   2.194  0.00  0.00    +0.090 C 
ATOM     19  C   UNL     1       5.068   7.350   0.880  0.00  0.00    -0.090 C 
ATOM     20  C   UNL     1       4.397   6.877  -0.018  0.00  0.00    -0.091 C 
ENDBRANCH  17  20
ENDBRANCH  15  17
ENDBRANCH  13  15
ENDBRANCH  11  13
ENDBRANCH   1  12
BRANCH   8  21
ATOM     21  C   UNL     1       5.456   7.478 -10.873  0.00  0.00    +0.026 C 
BRANCH  21  22
ATOM     22  C   UNL     1       6.722   7.234 -11.609  0.00  0.00    +0.016 C 
BRANCH  22  23
ATOM     23  C   UNL     1       6.256   6.882 -12.992  0.00  0.00    +0.110 C 
BRANCH  23  24
ATOM     24  C   UNL     1       6.361   5.492 -13.358  0.00  0.00    +0.317 C 
ATOM     25  O   UNL     1       7.325   4.835 -13.786  0.00  0.00    -0.250 OA
BRANCH  24  26
ATOM     26  O   UNL     1       5.120   4.959 -13.751  0.00  0.00    -0.440 OA
BRANCH  26  27
ATOM     27  C   UNL     1       3.992   5.758 -14.036  0.00  0.00    +0.277 C 
BRANCH  27  28
ATOM     28  C   UNL     1       2.824   4.854 -13.810  0.00  0.00    +0.217 C 
ATOM     29  O   UNL     1       2.806   3.817 -14.540  0.00  0.00    -0.287 OA
BRANCH  28  30
ATOM     30  C   UNL     1       1.591   5.367 -13.245  0.00  0.00    +0.038 A 
ATOM     31  C   UNL     1       1.504   6.733 -13.062  0.00  0.00    +0.003 A 
ATOM     32  C   UNL     1       0.545   7.222 -12.186  0.00  0.00    +0.000 A 
ATOM     33  C   UNL     1      -0.053   6.352 -11.280  0.00  0.00    +0.000 A 
ATOM     34  C   UNL     1      -0.008   5.004 -11.552  0.00  0.00    +0.000 A 
ATOM     35  C   UNL     1       0.564   4.617 -12.761  0.00  0.00    +0.003 A 
ENDBRANCH  28  30
ENDBRANCH  27  28
ENDBRANCH  26  27
ENDBRANCH  24  26
ENDBRANCH  23  24
ENDBRANCH  22  23
ENDBRANCH  21  22
ENDBRANCH   8  21
TORSDOF 13
ENDMDL
MODEL 4
REMARK VINA RESULT:      -8.7      3.478      9.260
REMARK  Name = 
REMARK  13 active torsions:
REMARK  status: ('A' for Active; 'I' for Inactive)
REMARK    1  A    between atoms: C_3  and  C_4
REMARK    2  A    between atoms: C_4  and  C_5
REMARK    3  A    between atoms: C_5  and  C_7
REMARK    4  A    between atoms: C_7  and  C_9
REMARK    5  A    between atoms: C_10  and  C_11
REMARK    6  A    between atoms: C_15  and  C_16
REMARK    7  A    between atoms: C_16  and  C_17
REMARK    8  A    between atoms: C_17  and  C_18
REMARK    9  A    between atoms: C_18  and  C_19
REMARK   10  A    between atoms: C_19  and  O_21
REMARK   11  A    between atoms: O_21  and  C_22
REMARK   12  A    between atoms: C_22  and  C_23
REMARK   13  A    between atoms: C_23  and  C_25
REMARK                            x       y       z     vdW  Elec       q    Type
REMARK                         _______ _______ _______ _____ _____    ______ ____
ROOT
ATOM      1  C   UNL     1       3.108   4.203  -8.824  0.00  0.00    +0.052 C 
ATOM      2  C   UNL     1       4.313   5.356  -9.157  0.00  0.00    +0.156 C 
ATOM      3  O   UNL     1       4.287   5.055 -10.646  0.00  0.00    -0.223 OA
ATOM      4  C   UNL     1       3.359   6.686  -9.247  0.00  0.00    +0.034 C 
ATOM      5  C   UNL     1       2.348   5.933 -10.239  0.00  0.00    +0.007 C 
ATOM      6  C   UNL     1       1.009   6.855 -10.081  0.00  0.00    +0.022 C 
ATOM      7  C   UNL     1       0.248   5.602 -10.514  0.00  0.00    -0.048 C 
ATOM      8  C   UNL     1       0.272   5.496 -11.829  0.00  0.00    -0.035 C 
ATOM      9  C   UNL     1       0.786   4.408  -9.754  0.00  0.00    +0.022 C 
ATOM     10  C   UNL     1       1.808   5.233  -8.812  0.00  0.00    +0.011 C 
ENDROOT
BRANCH   1  12
ATOM     11  C   UNL     1       2.452   4.304  -6.376  0.00  0.00    +0.002 C 
ATOM     12  C   UNL     1       3.383   4.358  -7.268  0.00  0.00    -0.026 C 
BRANCH  11  13
ATOM     13  C   UNL     1       3.007   4.941  -4.991  0.00  0.00    +0.175 C 
ATOM     14  O   UNL     1       4.014   5.792  -5.736  0.00  0.00    -0.218 OA
BRANCH  13  15
ATOM     15  C   UNL     1       1.852   6.204  -4.971  0.00  0.00    +0.048 C 
ATOM     16  C   UNL     1       2.414   6.852  -3.598  0.00  0.00    +0.004 C 
BRANCH  15  17
ATOM     17  C   UNL     1       0.773   5.307  -4.166  0.00  0.00    +0.079 C 
BRANCH  17  20
ATOM     18  C   UNL     1      -2.529   5.673  -6.455  0.00  0.00    +0.090 C 
ATOM     19  C   UNL     1      -1.493   5.858  -5.483  0.00  0.00    -0.090 C 
ATOM     20  C   UNL     1      -0.533   5.553  -4.801  0.00  0.00    -0.091 C 
ENDBRANCH  17  20
ENDBRANCH  15  17
ENDBRANCH  13  15
ENDBRANCH  11  13
ENDBRANCH   1  12
BRANCH   8  21
ATOM     21  C   UNL     1       0.262   4.403 -12.752  0.00  0.00    +0.026 C 
BRANCH  21  22
ATOM     22  C   UNL     1       0.738   4.651 -14.136  0.00  0.00    +0.016 C 
BRANCH  22  23
ATOM     23  C   UNL     1       2.143   5.142 -13.936  0.00  0.00    +0.110 C 
BRANCH  23  24
ATOM     24  C   UNL     1       2.540   6.265 -14.748  0.00  0.00    +0.317 C 
ATOM     25  O   UNL     1       1.903   6.929 -15.583  0.00  0.00    -0.250 OA
BRANCH  24  26
ATOM     26  O   UNL     1       3.927   6.276 -14.984  0.00  0.00    -0.440 OA
BRANCH  26  27
ATOM     27  C   UNL     1       4.870   5.765 -14.067  0.00  0.00    +0.277 C 
BRANCH  27  28
ATOM     28  C   UNL     1       5.985   6.760 -14.083  0.00  0.00    +0.217 C 
ATOM     29  O   UNL     1       6.347   7.134 -15.240  0.00  0.00    -0.287 OA
BRANCH  28  30
ATOM     30  C   UNL     1       6.906   6.855 -12.967  0.00  0.00    +0.038 A 
ATOM     31  C   UNL     1       7.930   5.929 -12.915  0.00  0.00    +0.003 A 
ATOM     32  C   UNL     1       8.577   5.727 -11.704  0.00  0.00    +0.000 A 
ATOM     33  C   UNL     1       7.981   6.183 -10.533  0.00  0.00    +0.000 A 
ATOM     34  C   UNL     1       7.024   7.166 -10.634  0.00  0.00    +0.000 A 
ATOM     35  C   UNL     1       6.781   7.691 -11.900  0.00  0.00    +0.003 A 
ENDBRANCH  28  30
ENDBRANCH  27  28
ENDBRANCH  26  27
ENDBRANCH  24  26
ENDBRANCH  23  24
ENDBRANCH  22  23
ENDBRANCH  21  22
ENDBRANCH   8  21
TORSDOF 13
ENDMDL
MODEL 5
REMARK VINA RESULT:      -8.7      1.682      4.941
REMARK  Name = 
REMARK  13 active torsions:
REMARK  status: ('A' for Active; 'I' for Inactive)
REMARK    1  A    between atoms: C_3  and  C_4
REMARK    2  A    between atoms: C_4  and  C_5
REMARK    3  A    between atoms: C_5  and  C_7
REMARK    4  A    between atoms: C_7  and  C_9
REMARK    5  A    between atoms: C_10  and  C_11
REMARK    6  A    between atoms: C_15  and  C_16
REMARK    7  A    between atoms: C_16  and  C_17
REMARK    8  A    between atoms: C_17  and  C_18
REMARK    9  A    between atoms: C_18  and  C_19
REMARK   10  A    between atoms: C_19  and  O_21
REMARK   11  A    between atoms: O_21  and  C_22
REMARK   12  A    between atoms: C_22  and  C_23
REMARK   13  A    between atoms: C_23  and  C_25
REMARK                            x       y       z     vdW  Elec       q    Type
REMARK                         _______ _______ _______ _____ _____    ______ ____
ROOT
ATOM      1  C   UNL     1       1.592   4.920  -5.611  0.00  0.00    +0.052 C 
ATOM      2  C   UNL     1       1.106   6.541  -5.783  0.00  0.00    +0.156 C 
ATOM      3  O   UNL     1       1.010   6.744  -4.280  0.00  0.00    -0.223 OA
ATOM      4  C   UNL     1       2.588   7.223  -5.941  0.00  0.00    +0.034 C 
ATOM      5  C   UNL     1       3.124   6.438  -4.649  0.00  0.00    +0.007 C 
ATOM      6  C   UNL     1       4.739   6.525  -4.876  0.00  0.00    +0.022 C 
ATOM      7  C   UNL     1       4.802   5.268  -4.009  0.00  0.00    -0.048 C 
ATOM      8  C   UNL     1       4.755   5.601  -2.733  0.00  0.00    -0.035 C 
ATOM      9  C   UNL     1       3.738   4.294  -4.469  0.00  0.00    +0.022 C 
ATOM     10  C   UNL     1       3.229   5.161  -5.734  0.00  0.00    +0.011 C 
ENDROOT
BRANCH   1  12
ATOM     11  C   UNL     1       2.320   4.212  -7.936  0.00  0.00    +0.002 C 
ATOM     12  C   UNL     1       1.398   4.692  -7.170  0.00  0.00    -0.026 C 
BRANCH  11  13
ATOM     13  C   UNL     1       1.950   4.541  -9.481  0.00  0.00    +0.175 C 
ATOM     14  O   UNL     1       0.809   5.442  -9.061  0.00  0.00    -0.218 OA
BRANCH  13  15
ATOM     15  C   UNL     1       3.041   5.856  -9.586  0.00  0.00    +0.048 C 
ATOM     16  C   UNL     1       2.883   6.007 -11.190  0.00  0.00    +0.004 C 
BRANCH  15  17
ATOM     17  C   UNL     1       4.320   4.880  -9.752  0.00  0.00    +0.079 C 
BRANCH  17  20
ATOM     18  C   UNL     1       7.232   7.433 -10.883  0.00  0.00    +0.090 C 
ATOM     19  C   UNL     1       6.484   6.363 -10.294  0.00  0.00    -0.090 C 
ATOM     20  C   UNL     1       5.490   5.753  -9.945  0.00  0.00    -0.091 C 
ENDBRANCH  17  20
ENDBRANCH  15  17
ENDBRANCH  13  15
ENDBRANCH  11  13
ENDBRANCH   1  12
BRANCH   8  21
ATOM     21  C   UNL     1       4.248   4.980  -1.547  0.00  0.00    +0.026 C 
BRANCH  21  22
ATOM     22  C   UNL     1       2.839   5.245  -1.166  0.00  0.00    +0.016 C 
BRANCH  22  23
ATOM     23  C   UNL     1       2.866   6.678  -0.717  0.00  0.00    +0.110 C 
BRANCH  23  24
ATOM     24  C   UNL     1       1.707   7.133   0.009  0.00  0.00    +0.317 C 
ATOM     25  O   UNL     1       1.452   7.115   1.225  0.00  0.00    -0.250 OA
BRANCH  24  26
ATOM     26  O   UNL     1       0.550   7.125  -0.792  0.00  0.00    -0.440 OA
BRANCH  26  27
ATOM     27  C   UNL     1      -0.684   6.593  -0.361  0.00  0.00    +0.277 C 
BRANCH  27  28
ATOM     28  C   UNL     1      -1.118   5.699  -1.477  0.00  0.00    +0.217 C 
ATOM     29  O   UNL     1      -0.389   4.675  -1.651  0.00  0.00    -0.287 OA
BRANCH  28  30
ATOM     30  C   UNL     1      -1.916   6.217  -2.571  0.00  0.00    +0.038 A 
ATOM     31  C   UNL     1      -2.269   5.328  -3.568  0.00  0.00    +0.003 A 
ATOM     32  C   UNL     1      -2.675   5.837  -4.793  0.00  0.00    +0.000 A 
ATOM     33  C   UNL     1      -2.396   7.164  -5.101  0.00  0.00    +0.000 A 
ATOM     34  C   UNL     1      -2.130   8.028  -4.064  0.00  0.00    +0.000 A 
ATOM     35  C   UNL     1      -2.241   7.523  -2.771  0.00  0.00    +0.003 A 
ENDBRANCH  28  30
ENDBRANCH  27  28
ENDBRANCH  26  27
ENDBRANCH  24  26
ENDBRANCH  23  24
ENDBRANCH  22  23
ENDBRANCH  21  22
ENDBRANCH   8  21
TORSDOF 13
ENDMDL
MODEL 6
REMARK VINA RESULT:      -8.6      2.894      9.845
REMARK  Name = 
REMARK  13 active torsions:
REMARK  status: ('A' for Active; 'I' for Inactive)
REMARK    1  A    between atoms: C_3  and  C_4
REMARK    2  A    between atoms: C_4  and  C_5
REMARK    3  A    between atoms: C_5  and  C_7
REMARK    4  A    between atoms: C_7  and  C_9
REMARK    5  A    between atoms: C_10  and  C_11
REMARK    6  A    between atoms: C_15  and  C_16
REMARK    7  A    between atoms: C_16  and  C_17
REMARK    8  A    between atoms: C_17  and  C_18
REMARK    9  A    between atoms: C_18  and  C_19
REMARK   10  A    between atoms: C_19  and  O_21
REMARK   11  A    between atoms: O_21  and  C_22
REMARK   12  A    between atoms: C_22  and  C_23
REMARK   13  A    between atoms: C_23  and  C_25
REMARK                            x       y       z     vdW  Elec       q    Type
REMARK                         _______ _______ _______ _____ _____    ______ ____
ROOT
ATOM      1  C   UNL     1       3.224   6.984  -6.406  0.00  0.00    +0.052 C 
ATOM      2  C   UNL     1       1.595   7.340  -6.742  0.00  0.00    +0.156 C 
ATOM      3  O   UNL     1       1.964   8.292  -7.868  0.00  0.00    -0.223 OA
ATOM      4  C   UNL     1       1.264   6.064  -7.716  0.00  0.00    +0.034 C 
ATOM      5  C   UNL     1       2.582   6.343  -8.585  0.00  0.00    +0.007 C 
ATOM      6  C   UNL     1       2.788   4.897  -9.317  0.00  0.00    +0.022 C 
ATOM      7  C   UNL     1       4.259   5.300  -9.420  0.00  0.00    -0.048 C 
ATOM      8  C   UNL     1       4.435   6.086 -10.465  0.00  0.00    -0.035 C 
ATOM      9  C   UNL     1       4.712   5.869  -8.092  0.00  0.00    +0.022 C 
ATOM     10  C   UNL     1       3.337   5.586  -7.291  0.00  0.00    +0.011 C 
ENDROOT
BRANCH   1  12
ATOM     11  C   UNL     1       2.498   6.853  -3.979  0.00  0.00    +0.002 C 
ATOM     12  C   UNL     1       2.791   6.236  -5.075  0.00  0.00    -0.026 C 
BRANCH  11  13
ATOM     13  C   UNL     1       2.553   5.798  -2.747  0.00  0.00    +0.175 C 
ATOM     14  O   UNL     1       3.290   6.791  -1.874  0.00  0.00    -0.218 OA
BRANCH  13  15
ATOM     15  C   UNL     1       1.032   6.272  -2.119  0.00  0.00    +0.048 C 
ATOM     16  C   UNL     1       1.143   5.317  -0.817  0.00  0.00    +0.004 C 
BRANCH  15  17
ATOM     17  C   UNL     1       0.247   5.130  -2.954  0.00  0.00    +0.079 C 
BRANCH  17  20
ATOM     18  C   UNL     1      -3.471   6.579  -2.362  0.00  0.00    +0.090 C 
ATOM     19  C   UNL     1      -2.331   5.732  -2.545  0.00  0.00    -0.090 C 
ATOM     20  C   UNL     1      -1.187   5.446  -2.849  0.00  0.00    -0.091 C 
ENDBRANCH  17  20
ENDBRANCH  15  17
ENDBRANCH  13  15
ENDBRANCH  11  13
ENDBRANCH   1  12
BRANCH   8  21
ATOM     21  C   UNL     1       5.327   7.160 -10.779  0.00  0.00    +0.026 C 
BRANCH  21  22
ATOM     22  C   UNL     1       6.643   6.825 -11.376  0.00  0.00    +0.016 C 
BRANCH  22  23
ATOM     23  C   UNL     1       6.361   6.805 -12.850  0.00  0.00    +0.110 C 
BRANCH  23  24
ATOM     24  C   UNL     1       6.400   5.510 -13.482  0.00  0.00    +0.317 C 
ATOM     25  O   UNL     1       7.227   5.015 -14.266  0.00  0.00    -0.250 OA
BRANCH  24  26
ATOM     26  O   UNL     1       5.115   4.956 -13.621  0.00  0.00    -0.440 OA
BRANCH  26  27
ATOM     27  C   UNL     1       4.002   5.692 -14.082  0.00  0.00    +0.277 C 
BRANCH  27  28
ATOM     28  C   UNL     1       2.831   4.796 -13.835  0.00  0.00    +0.217 C 
ATOM     29  O   UNL     1       2.785   3.767 -14.576  0.00  0.00    -0.287 OA
BRANCH  28  30
ATOM     30  C   UNL     1       1.618   5.315 -13.235  0.00  0.00    +0.038 A 
ATOM     31  C   UNL     1       1.627   6.639 -12.842  0.00  0.00    +0.003 A 
ATOM     32  C   UNL     1       0.671   7.064 -11.930  0.00  0.00    +0.000 A 
ATOM     33  C   UNL     1      -0.029   6.116 -11.191  0.00  0.00    +0.000 A 
ATOM     34  C   UNL     1      -0.075   4.827 -11.669  0.00  0.00    +0.000 A 
ATOM     35  C   UNL     1       0.517   4.585 -12.906  0.00  0.00    +0.003 A 
ENDBRANCH  28  30
ENDBRANCH  27  28
ENDBRANCH  26  27
ENDBRANCH  24  26
ENDBRANCH  23  24
ENDBRANCH  22  23
ENDBRANCH  21  22
ENDBRANCH   8  21
TORSDOF 13
ENDMDL
MODEL 7
REMARK VINA RESULT:      -8.5      2.000      3.143
REMARK  Name = 
REMARK  13 active torsions:
REMARK  status: ('A' for Active; 'I' for Inactive)
REMARK    1  A    between atoms: C_3  and  C_4
REMARK    2  A    between atoms: C_4  and  C_5
REMARK    3  A    between atoms: C_5  and  C_7
REMARK    4  A    between atoms: C_7  and  C_9
REMARK    5  A    between atoms: C_10  and  C_11
REMARK    6  A    between atoms: C_15  and  C_16
REMARK    7  A    between atoms: C_16  and  C_17
REMARK    8  A    between atoms: C_17  and  C_18
REMARK    9  A    between atoms: C_18  and  C_19
REMARK   10  A    between atoms: C_19  and  O_21
REMARK   11  A    between atoms: O_21  and  C_22
REMARK   12  A    between atoms: C_22  and  C_23
REMARK   13  A    between atoms: C_23  and  C_25
REMARK                            x       y       z     vdW  Elec       q    Type
REMARK                         _______ _______ _______ _____ _____    ______ ____
ROOT
ATOM      1  C   UNL     1       1.525   6.955  -8.483  0.00  0.00    +0.052 C 
ATOM      2  C   UNL     1       3.160   6.859  -8.024  0.00  0.00    +0.156 C 
ATOM      3  O   UNL     1       2.916   7.630  -6.738  0.00  0.00    -0.223 OA
ATOM      4  C   UNL     1       3.131   5.375  -7.329  0.00  0.00    +0.034 C 
ATOM      5  C   UNL     1       1.838   5.770  -6.465  0.00  0.00    +0.007 C 
ATOM      6  C   UNL     1       1.268   4.294  -6.060  0.00  0.00    +0.022 C 
ATOM      7  C   UNL     1      -0.085   4.992  -5.925  0.00  0.00    -0.048 C 
ATOM      8  C   UNL     1      -0.171   5.577  -4.745  0.00  0.00    -0.035 C 
ATOM      9  C   UNL     1      -0.298   5.898  -7.118  0.00  0.00    +0.022 C 
ATOM     10  C   UNL     1       1.043   5.473  -7.914  0.00  0.00    +0.011 C 
ENDROOT
BRANCH   1  12
ATOM     11  C   UNL     1       1.068   6.417 -10.919  0.00  0.00    +0.002 C 
ATOM     12  C   UNL     1       1.892   6.404  -9.925  0.00  0.00    -0.026 C 
BRANCH  11  13
ATOM     13  C   UNL     1       1.597   5.393 -12.061  0.00  0.00    +0.175 C 
ATOM     14  O   UNL     1       0.830   4.242 -11.445  0.00  0.00    -0.218 OA
BRANCH  13  15
ATOM     15  C   UNL     1       0.322   5.754 -13.144  0.00  0.00    +0.048 C 
ATOM     16  C   UNL     1       0.676   4.534 -14.148  0.00  0.00    +0.004 C 
BRANCH  15  17
ATOM     17  C   UNL     1       1.234   6.786 -13.993  0.00  0.00    +0.079 C 
BRANCH  17  20
ATOM     18  C   UNL     1      -0.192   7.817 -17.623  0.00  0.00    +0.090 C 
ATOM     19  C   UNL     1      -0.042   7.525 -16.229  0.00  0.00    -0.090 C 
ATOM     20  C   UNL     1       0.493   7.078 -15.232  0.00  0.00    -0.091 C 
ENDBRANCH  17  20
ENDBRANCH  15  17
ENDBRANCH  13  15
ENDBRANCH  11  13
ENDBRANCH   1  12
BRANCH   8  21
ATOM     21  C   UNL     1      -0.833   6.742  -4.244  0.00  0.00    +0.026 C 
BRANCH  21  22
ATOM     22  C   UNL     1      -2.181   6.579  -3.645  0.00  0.00    +0.016 C 
BRANCH  22  23
ATOM     23  C   UNL     1      -2.022   5.380  -2.756  0.00  0.00    +0.110 C 
BRANCH  23  24
ATOM     24  C   UNL     1      -1.542   5.644  -1.422  0.00  0.00    +0.317 C 
ATOM     25  O   UNL     1      -1.845   6.536  -0.612  0.00  0.00    -0.250 OA
BRANCH  24  26
ATOM     26  O   UNL     1      -0.242   5.146  -1.225  0.00  0.00    -0.440 OA
BRANCH  26  27
ATOM     27  C   UNL     1       0.879   5.976  -1.014  0.00  0.00    +0.277 C 
BRANCH  27  28
ATOM     28  C   UNL     1       2.029   5.208  -1.583  0.00  0.00    +0.217 C 
ATOM     29  O   UNL     1       2.541   4.356  -0.795  0.00  0.00    -0.287 OA
BRANCH  28  30
ATOM     30  C   UNL     1       2.813   5.753  -2.674  0.00  0.00    +0.038 A 
ATOM     31  C   UNL     1       3.771   4.929  -3.232  0.00  0.00    +0.003 A 
ATOM     32  C   UNL     1       4.786   5.509  -3.980  0.00  0.00    +0.000 A 
ATOM     33  C   UNL     1       5.012   6.877  -3.870  0.00  0.00    +0.000 A 
ATOM     34  C   UNL     1       3.994   7.664  -3.384  0.00  0.00    +0.000 A 
ATOM     35  C   UNL     1       2.779   7.040  -3.115  0.00  0.00    +0.003 A 
ENDBRANCH  28  30
ENDBRANCH  27  28
ENDBRANCH  26  27
ENDBRANCH  24  26
ENDBRANCH  23  24
ENDBRANCH  22  23
ENDBRANCH  21  22
ENDBRANCH   8  21
TORSDOF 13
ENDMDL
MODEL 8
REMARK VINA RESULT:      -8.4      2.025      3.333
REMARK  Name = 
REMARK  13 active torsions:
REMARK  status: ('A' for Active; 'I' for Inactive)
REMARK    1  A    between atoms: C_3  and  C_4
REMARK    2  A    between atoms: C_4  and  C_5
REMARK    3  A    between atoms: C_5  and  C_7
REMARK    4  A    between atoms: C_7  and  C_9
REMARK    5  A    between atoms: C_10  and  C_11
REMARK    6  A    between atoms: C_15  and  C_16
REMARK    7  A    between atoms: C_16  and  C_17
REMARK    8  A    between atoms: C_17  and  C_18
REMARK    9  A    between atoms: C_18  and  C_19
REMARK   10  A    between atoms: C_19  and  O_21
REMARK   11  A    between atoms: O_21  and  C_22
REMARK   12  A    between atoms: C_22  and  C_23
REMARK   13  A    between atoms: C_23  and  C_25
REMARK                            x       y       z     vdW  Elec       q    Type
REMARK                         _______ _______ _______ _____ _____    ______ ____
ROOT
ATOM      1  C   UNL     1       1.468   6.764  -8.496  0.00  0.00    +0.052 C 
ATOM      2  C   UNL     1       3.102   6.769  -8.025  0.00  0.00    +0.156 C 
ATOM      3  O   UNL     1       2.818   7.623  -6.800  0.00  0.00    -0.223 OA
ATOM      4  C   UNL     1       3.128   5.341  -7.221  0.00  0.00    +0.034 C 
ATOM      5  C   UNL     1       1.814   5.745  -6.394  0.00  0.00    +0.007 C 
ATOM      6  C   UNL     1       1.303   4.281  -5.883  0.00  0.00    +0.022 C 
ATOM      7  C   UNL     1      -0.079   4.931  -5.805  0.00  0.00    -0.048 C 
ATOM      8  C   UNL     1      -0.197   5.597  -4.672  0.00  0.00    -0.035 C 
ATOM      9  C   UNL     1      -0.320   5.736  -7.064  0.00  0.00    +0.022 C 
ATOM     10  C   UNL     1       1.043   5.309  -7.820  0.00  0.00    +0.011 C 
ENDROOT
BRANCH   1  12
ATOM     11  C   UNL     1       1.330   6.475 -11.012  0.00  0.00    +0.002 C 
ATOM     12  C   UNL     1       1.867   6.123  -9.892  0.00  0.00    -0.026 C 
BRANCH  11  13
ATOM     13  C   UNL     1       1.629   5.333 -12.125  0.00  0.00    +0.175 C 
ATOM     14  O   UNL     1       0.508   5.838 -13.007  0.00  0.00    -0.218 OA
BRANCH  13  15
ATOM     15  C   UNL     1       2.795   6.276 -12.950  0.00  0.00    +0.048 C 
ATOM     16  C   UNL     1       2.772   5.351 -14.278  0.00  0.00    +0.004 C 
BRANCH  15  17
ATOM     17  C   UNL     1       4.028   5.436 -12.324  0.00  0.00    +0.079 C 
BRANCH  17  20
ATOM     18  C   UNL     1       6.685   8.277 -11.253  0.00  0.00    +0.090 C 
ATOM     19  C   UNL     1       5.832   7.127 -11.294  0.00  0.00    -0.090 C 
ATOM     20  C   UNL     1       4.928   6.419 -11.697  0.00  0.00    -0.091 C 
ENDBRANCH  17  20
ENDBRANCH  15  17
ENDBRANCH  13  15
ENDBRANCH  11  13
ENDBRANCH   1  12
BRANCH   8  21
ATOM     21  C   UNL     1      -0.910   6.768  -4.262  0.00  0.00    +0.026 C 
BRANCH  21  22
ATOM     22  C   UNL     1      -2.250   6.593  -3.651  0.00  0.00    +0.016 C 
BRANCH  22  23
ATOM     23  C   UNL     1      -2.057   5.434  -2.717  0.00  0.00    +0.110 C 
BRANCH  23  24
ATOM     24  C   UNL     1      -1.494   5.749  -1.428  0.00  0.00    +0.317 C 
ATOM     25  O   UNL     1      -1.680   6.720  -0.676  0.00  0.00    -0.250 OA
BRANCH  24  26
ATOM     26  O   UNL     1      -0.233   5.153  -1.248  0.00  0.00    -0.440 OA
BRANCH  26  27
ATOM     27  C   UNL     1       0.917   5.877  -0.866  0.00  0.00    +0.277 C 
BRANCH  27  28
ATOM     28  C   UNL     1       2.054   5.131  -1.486  0.00  0.00    +0.217 C 
ATOM     29  O   UNL     1       2.597   4.268  -0.731  0.00  0.00    -0.287 OA
BRANCH  28  30
ATOM     30  C   UNL     1       2.801   5.705  -2.588  0.00  0.00    +0.038 A 
ATOM     31  C   UNL     1       3.781   4.917  -3.160  0.00  0.00    +0.003 A 
ATOM     32  C   UNL     1       4.762   5.535  -3.923  0.00  0.00    +0.000 A 
ATOM     33  C   UNL     1       4.939   6.910  -3.815  0.00  0.00    +0.000 A 
ATOM     34  C   UNL     1       3.900   7.659  -3.313  0.00  0.00    +0.000 A 
ATOM     35  C   UNL     1       2.713   6.990  -3.026  0.00  0.00    +0.003 A 
ENDBRANCH  28  30
ENDBRANCH  27  28
ENDBRANCH  26  27
ENDBRANCH  24  26
ENDBRANCH  23  24
ENDBRANCH  22  23
ENDBRANCH  21  22
ENDBRANCH   8  21
TORSDOF 13
ENDMDL
MODEL 9
REMARK VINA RESULT:      -8.1      2.814      8.843
REMARK  Name = 
REMARK  13 active torsions:
REMARK  status: ('A' for Active; 'I' for Inactive)
REMARK    1  A    between atoms: C_3  and  C_4
REMARK    2  A    between atoms: C_4  and  C_5
REMARK    3  A    between atoms: C_5  and  C_7
REMARK    4  A    between atoms: C_7  and  C_9
REMARK    5  A    between atoms: C_10  and  C_11
REMARK    6  A    between atoms: C_15  and  C_16
REMARK    7  A    between atoms: C_16  and  C_17
REMARK    8  A    between atoms: C_17  and  C_18
REMARK    9  A    between atoms: C_18  and  C_19
REMARK   10  A    between atoms: C_19  and  O_21
REMARK   11  A    between atoms: O_21  and  C_22
REMARK   12  A    between atoms: C_22  and  C_23
REMARK   13  A    between atoms: C_23  and  C_25
REMARK                            x       y       z     vdW  Elec       q    Type
REMARK                         _______ _______ _______ _____ _____    ______ ____
ROOT
ATOM      1  C   UNL     1       2.276   6.832  -1.681  0.00  0.00    +0.052 C 
ATOM      2  C   UNL     1       2.020   5.172  -1.413  0.00  0.00    +0.156 C 
ATOM      3  O   UNL     1       1.370   4.982  -2.773  0.00  0.00    -0.223 OA
ATOM      4  C   UNL     1       3.497   4.623  -1.865  0.00  0.00    +0.034 C 
ATOM      5  C   UNL     1       3.433   5.470  -3.225  0.00  0.00    +0.007 C 
ATOM      6  C   UNL     1       5.012   5.523  -3.636  0.00  0.00    +0.022 C 
ATOM      7  C   UNL     1       4.640   6.793  -4.402  0.00  0.00    -0.048 C 
ATOM      8  C   UNL     1       4.132   6.474  -5.578  0.00  0.00    -0.035 C 
ATOM      9  C   UNL     1       3.763   7.662  -3.526  0.00  0.00    +0.022 C 
ATOM     10  C   UNL     1       3.848   6.737  -2.204  0.00  0.00    +0.011 C 
ENDROOT
BRANCH   1  12
ATOM     11  C   UNL     1       2.555   8.141   0.474  0.00  0.00    +0.002 C 
ATOM     12  C   UNL     1       2.679   7.022  -0.158  0.00  0.00    -0.026 C 
BRANCH  11  13
ATOM     13  C   UNL     1       3.461   8.094   1.819  0.00  0.00    +0.175 C 
ATOM     14  O   UNL     1       4.248   6.910   1.299  0.00  0.00    -0.218 OA
BRANCH  13  15
ATOM     15  C   UNL     1       4.614   9.209   1.222  0.00  0.00    +0.048 C 
ATOM     16  C   UNL     1       5.528   9.154   2.557  0.00  0.00    +0.004 C 
BRANCH  15  17
ATOM     17  C   UNL     1       3.785  10.481   1.780  0.00  0.00    +0.079 C 
BRANCH  17  20
ATOM     18  C   UNL     1       4.485  13.219  -1.100  0.00  0.00    +0.090 C 
ATOM     19  C   UNL     1       4.537  12.413   0.083  0.00  0.00    -0.090 C 
ATOM     20  C   UNL     1       4.135  11.621   0.915  0.00  0.00    -0.091 C 
ENDBRANCH  17  20
ENDBRANCH  15  17
ENDBRANCH  13  15
ENDBRANCH  11  13
ENDBRANCH   1  12
BRANCH   8  21
ATOM     21  C   UNL     1       3.163   7.064  -6.450  0.00  0.00    +0.026 C 
BRANCH  21  22
ATOM     22  C   UNL     1       1.732   6.737  -6.229  0.00  0.00    +0.016 C 
BRANCH  22  23
ATOM     23  C   UNL     1       1.353   5.985  -7.471  0.00  0.00    +0.110 C 
BRANCH  23  24
ATOM     24  C   UNL     1       1.688   4.583  -7.488  0.00  0.00    +0.317 C 
ATOM     25  O   UNL     1       1.959   3.802  -6.560  0.00  0.00    -0.250 OA
BRANCH  24  26
ATOM     26  O   UNL     1       2.260   4.196  -8.713  0.00  0.00    -0.440 OA
BRANCH  26  27
ATOM     27  C   UNL     1       3.651   4.193  -8.949  0.00  0.00    +0.277 C 
BRANCH  27  28
ATOM     28  C   UNL     1       3.883   5.370  -9.842  0.00  0.00    +0.217 C 
ATOM     29  O   UNL     1       3.153   5.401 -10.879  0.00  0.00    -0.287 OA
BRANCH  28  30
ATOM     30  C   UNL     1       5.151   6.073  -9.824  0.00  0.00    +0.038 A 
ATOM     31  C   UNL     1       5.295   7.131 -10.701  0.00  0.00    +0.003 A 
ATOM     32  C   UNL     1       6.578   7.568 -11.001  0.00  0.00    +0.000 A 
ATOM     33  C   UNL     1       7.661   6.747 -10.703  0.00  0.00    +0.000 A 
ATOM     34  C   UNL     1       7.485   5.760  -9.762  0.00  0.00    +0.000 A 
ATOM     35  C   UNL     1       6.254   5.708  -9.115  0.00  0.00    +0.003 A 
ENDBRANCH  28  30
ENDBRANCH  27  28
ENDBRANCH  26  27
ENDBRANCH  24  26
ENDBRANCH  23  24
ENDBRANCH  22  23
ENDBRANCH  21  22
ENDBRANCH   8  21
TORSDOF 13
ENDMDL
