MODEL 1
REMARK VINA RESULT:      -6.0      0.000      0.000
REMARK  Name = 
REMARK  2 active torsions:
REMARK  status: ('A' for Active; 'I' for Inactive)
REMARK    1  A    between atoms: N_5  and  C1*_6
REMARK    2  A    between atoms: C4*_10  and  C5*_11
REMARK                            x       y       z     vdW  Elec       q    Type
REMARK                         _______ _______ _______ _____ _____    ______ ____
ROOT
ATOM      1  N   UNL     1      -2.396   4.983  -2.238  0.00  0.00    -0.086 NA
ATOM      2  C   UNL     1      -2.200   5.813  -3.385  0.00  0.00    +0.262 A 
ATOM      3  N   UNL     1      -2.572   5.462  -4.643  0.00  0.00    -0.156 NA
ATOM      4  C   UNL     1      -1.794   5.775  -5.726  0.00  0.00    +0.355 A 
ATOM      5  O   UNL     1      -1.997   5.321  -6.872  0.00  0.00    -0.244 OA
ATOM      6  N   UNL     1      -0.562   5.888  -5.406  0.00  0.00    -0.239 N 
ATOM      7  C   UNL     1      -0.328   6.764  -4.383  0.00  0.00    +0.187 A 
ATOM      8  N   UNL     1      -1.178   6.705  -3.329  0.00  0.00    -0.190 NA
ENDROOT
BRANCH   6   9
ATOM      9  C1* UNL     1       0.633   6.202  -6.373  0.00  0.00    +0.212 C 
ATOM     10  O4* UNL     1       1.188   4.778  -6.543  0.00  0.00    -0.332 OA
ATOM     11  C4* UNL     1       1.954   5.635  -7.544  0.00  0.00    +0.180 C 
ATOM     12  C3* UNL     1       2.979   6.287  -6.320  0.00  0.00    +0.186 C 
ATOM     13  O3* UNL     1       2.703   7.681  -6.830  0.00  0.00    -0.220 OA
ATOM     14  C2* UNL     1       1.781   6.407  -5.203  0.00  0.00    +0.090 C 
BRANCH  11  15
ATOM     15  C5* UNL     1       3.062   4.545  -8.036  0.00  0.00    +0.214 C 
ATOM     16  O5* UNL     1       2.536   3.495  -8.601  0.00  0.00    -0.218 OA
ENDBRANCH  11  15
ENDBRANCH   6   9
TORSDOF 2
ENDMDL
MODEL 2
REMARK VINA RESULT:      -6.0      5.077      7.188
REMARK  Name = 
REMARK  2 active torsions:
REMARK  status: ('A' for Active; 'I' for Inactive)
REMARK    1  A    between atoms: N_5  and  C1*_6
REMARK    2  A    between atoms: C4*_10  and  C5*_11
REMARK                            x       y       z     vdW  Elec       q    Type
REMARK                         _______ _______ _______ _____ _____    ______ ____
ROOT
ATOM      1  N   UNL     1       2.125   8.186  -7.821  0.00  0.00    -0.086 NA
ATOM      2  C   UNL     1       2.538   6.897  -8.280  0.00  0.00    +0.262 A 
ATOM      3  N   UNL     1       3.616   6.231  -7.791  0.00  0.00    -0.156 NA
ATOM      4  C   UNL     1       4.433   5.503  -8.614  0.00  0.00    +0.355 A 
ATOM      5  O   UNL     1       5.529   5.028  -8.250  0.00  0.00    -0.244 OA
ATOM      6  N   UNL     1       4.415   5.948  -9.812  0.00  0.00    -0.239 N 
ATOM      7  C   UNL     1       3.164   6.050 -10.352  0.00  0.00    +0.187 A 
ATOM      8  N   UNL     1       2.198   6.560  -9.549  0.00  0.00    -0.190 NA
ENDROOT
BRANCH   6   9
ATOM      9  C1* UNL     1       5.242   5.402 -11.028  0.00  0.00    +0.212 C 
ATOM     10  O4* UNL     1       6.394   6.420 -11.016  0.00  0.00    -0.332 OA
ATOM     11  C4* UNL     1       6.800   5.361 -12.034  0.00  0.00    +0.180 C 
ATOM     12  C3* UNL     1       5.749   6.005 -13.240  0.00  0.00    +0.186 C 
ATOM     13  O3* UNL     1       5.192   4.626 -13.493  0.00  0.00    -0.220 OA
ATOM     14  C2* UNL     1       4.541   6.351 -12.184  0.00  0.00    +0.090 C 
BRANCH  11  15
ATOM     15  C5* UNL     1       8.124   6.080 -12.655  0.00  0.00    +0.214 C 
ATOM     16  O5* UNL     1       9.226   5.750 -12.041  0.00  0.00    -0.218 OA
ENDBRANCH  11  15
ENDBRANCH   6   9
TORSDOF 2
ENDMDL
MODEL 3
REMARK VINA RESULT:      -6.0      1.838      2.763
REMARK  Name = 
REMARK  2 active torsions:
REMARK  status: ('A' for Active; 'I' for Inactive)
REMARK    1  A    between atoms: N_5  and  C1*_6
REMARK    2  A    between atoms: C4*_10  and  C5*_11
REMARK                            x       y       z     vdW  Elec       q    Type
REMARK                         _______ _______ _______ _____ _____    ______ ____
ROOT
ATOM      1  N   UNL     1      -3.594   6.463  -2.621  0.00  0.00    -0.086 NA
ATOM      2  C   UNL     1      -2.537   5.596  -3.037  0.00  0.00    +0.262 A 
ATOM      3  N   UNL     1      -1.468   5.282  -2.261  0.00  0.00    -0.156 NA
ATOM      4  C   UNL     1      -0.214   5.160  -2.798  0.00  0.00    +0.355 A 
ATOM      5  O   UNL     1       0.822   5.055  -2.108  0.00  0.00    -0.244 OA
ATOM      6  N   UNL     1      -0.082   5.865  -3.856  0.00  0.00    -0.239 N 
ATOM      7  C   UNL     1      -1.032   5.626  -4.809  0.00  0.00    +0.187 A 
ATOM      8  N   UNL     1      -2.310   5.503  -4.372  0.00  0.00    -0.190 NA
ENDROOT
BRANCH   6   9
ATOM      9  C1* UNL     1       1.213   6.012  -4.730  0.00  0.00    +0.212 C 
ATOM     10  O4* UNL     1       0.591   6.656  -5.980  0.00  0.00    -0.332 OA
ATOM     11  C4* UNL     1       2.097   6.716  -6.200  0.00  0.00    +0.180 C 
ATOM     12  C3* UNL     1       2.177   5.051  -6.644  0.00  0.00    +0.186 C 
ATOM     13  O3* UNL     1       3.318   4.848  -5.676  0.00  0.00    -0.220 OA
ATOM     14  C2* UNL     1       1.078   4.569  -5.523  0.00  0.00    +0.090 C 
BRANCH  11  15
ATOM     15  C5* UNL     1       2.121   7.236  -7.745  0.00  0.00    +0.214 C 
ATOM     16  O5* UNL     1       2.125   8.535  -7.852  0.00  0.00    -0.218 OA
ENDBRANCH  11  15
ENDBRANCH   6   9
TORSDOF 2
ENDMDL
MODEL 4
REMARK VINA RESULT:      -5.9      1.448      1.762
REMARK  Name = 
REMARK  2 active torsions:
REMARK  status: ('A' for Active; 'I' for Inactive)
REMARK    1  A    between atoms: N_5  and  C1*_6
REMARK    2  A    between atoms: C4*_10  and  C5*_11
REMARK                            x       y       z     vdW  Elec       q    Type
REMARK                         _______ _______ _______ _____ _____    ______ ____
ROOT
ATOM      1  N   UNL     1      -2.771   4.853  -2.556  0.00  0.00    -0.086 NA
ATOM      2  C   UNL     1      -2.168   5.642  -3.584  0.00  0.00    +0.262 A 
ATOM      3  N   UNL     1      -2.400   5.461  -4.910  0.00  0.00    -0.156 NA
ATOM      4  C   UNL     1      -1.394   5.590  -5.830  0.00  0.00    +0.355 A 
ATOM      5  O   UNL     1      -1.511   5.257  -7.028  0.00  0.00    -0.244 OA
ATOM      6  N   UNL     1      -0.250   5.343  -5.316  0.00  0.00    -0.239 N 
ATOM      7  C   UNL     1       0.032   6.077  -4.198  0.00  0.00    +0.187 A 
ATOM      8  N   UNL     1      -0.971   6.212  -3.295  0.00  0.00    -0.190 NA
ENDROOT
BRANCH   6   9
ATOM      9  C1* UNL     1       1.133   5.353  -6.058  0.00  0.00    +0.212 C 
ATOM     10  O4* UNL     1       2.064   5.378  -4.835  0.00  0.00    -0.332 OA
ATOM     11  C4* UNL     1       2.978   5.169  -6.036  0.00  0.00    +0.180 C 
ATOM     12  C3* UNL     1       2.906   6.834  -6.480  0.00  0.00    +0.186 C 
ATOM     13  O3* UNL     1       2.582   6.442  -7.901  0.00  0.00    -0.220 OA
ATOM     14  C2* UNL     1       1.314   6.994  -6.110  0.00  0.00    +0.090 C 
BRANCH  11  15
ATOM     15  C5* UNL     1       4.425   5.320  -5.301  0.00  0.00    +0.214 C 
ATOM     16  O5* UNL     1       4.531   4.603  -4.218  0.00  0.00    -0.218 OA
ENDBRANCH  11  15
ENDBRANCH   6   9
TORSDOF 2
ENDMDL
MODEL 5
REMARK VINA RESULT:      -5.9      3.176      5.392
REMARK  Name = 
REMARK  2 active torsions:
REMARK  status: ('A' for Active; 'I' for Inactive)
REMARK    1  A    between atoms: N_5  and  C1*_6
REMARK    2  A    between atoms: C4*_10  and  C5*_11
REMARK                            x       y       z     vdW  Elec       q    Type
REMARK                         _______ _______ _______ _____ _____    ______ ____
ROOT
ATOM      1  N   UNL     1       2.253   8.097  -7.893  0.00  0.00    -0.086 NA
ATOM      2  C   UNL     1       2.623   7.000  -7.054  0.00  0.00    +0.262 A 
ATOM      3  N   UNL     1       2.073   5.762  -7.144  0.00  0.00    -0.156 NA
ATOM      4  C   UNL     1       1.808   5.021  -6.024  0.00  0.00    +0.355 A 
ATOM      5  O   UNL     1       1.142   3.964  -6.040  0.00  0.00    -0.244 OA
ATOM      6  N   UNL     1       1.608   5.763  -5.003  0.00  0.00    -0.239 N 
ATOM      7  C   UNL     1       2.613   6.656  -4.755  0.00  0.00    +0.187 A 
ATOM      8  N   UNL     1       3.123   7.306  -5.830  0.00  0.00    -0.190 NA
ENDROOT
BRANCH   6   9
ATOM      9  C1* UNL     1       1.244   5.286  -3.553  0.00  0.00    +0.212 C 
ATOM     10  O4* UNL     1      -0.068   6.064  -3.363  0.00  0.00    -0.332 OA
ATOM     11  C4* UNL     1       0.029   5.133  -2.161  0.00  0.00    +0.180 C 
ATOM     12  C3* UNL     1       1.177   6.147  -1.369  0.00  0.00    +0.186 C 
ATOM     13  O3* UNL     1       2.065   4.951  -1.125  0.00  0.00    -0.220 OA
ATOM     14  C2* UNL     1       1.984   6.525  -2.748  0.00  0.00    +0.090 C 
BRANCH  11  15
ATOM     15  C5* UNL     1      -1.227   5.695  -1.286  0.00  0.00    +0.214 C 
ATOM     16  O5* UNL     1      -2.357   5.111  -1.571  0.00  0.00    -0.218 OA
ENDBRANCH  11  15
ENDBRANCH   6   9
TORSDOF 2
ENDMDL
MODEL 6
REMARK VINA RESULT:      -5.8      5.871      8.352
REMARK  Name = 
REMARK  2 active torsions:
REMARK  status: ('A' for Active; 'I' for Inactive)
REMARK    1  A    between atoms: N_5  and  C1*_6
REMARK    2  A    between atoms: C4*_10  and  C5*_11
REMARK                            x       y       z     vdW  Elec       q    Type
REMARK                         _______ _______ _______ _____ _____    ______ ____
ROOT
ATOM      1  N   UNL     1       7.404   4.967 -13.678  0.00  0.00    -0.086 NA
ATOM      2  C   UNL     1       7.241   5.783 -12.516  0.00  0.00    +0.262 A 
ATOM      3  N   UNL     1       7.785   5.491 -11.306  0.00  0.00    -0.156 NA
ATOM      4  C   UNL     1       7.099   5.728 -10.145  0.00  0.00    +0.355 A 
ATOM      5  O   UNL     1       7.474   5.313  -9.028  0.00  0.00    -0.244 OA
ATOM      6  N   UNL     1       5.835   5.698 -10.329  0.00  0.00    -0.239 N 
ATOM      7  C   UNL     1       5.393   6.530 -11.319  0.00  0.00    +0.187 A 
ATOM      8  N   UNL     1       6.126   6.554 -12.460  0.00  0.00    -0.190 NA
ENDROOT
BRANCH   6   9
ATOM      9  C1* UNL     1       4.724   5.888  -9.237  0.00  0.00    +0.212 C 
ATOM     10  O4* UNL     1       4.130   4.470  -9.245  0.00  0.00    -0.332 OA
ATOM     11  C4* UNL     1       3.469   5.179  -8.070  0.00  0.00    +0.180 C 
ATOM     12  C3* UNL     1       2.384   6.040  -9.098  0.00  0.00    +0.186 C 
ATOM     13  O3* UNL     1       2.747   7.329  -8.402  0.00  0.00    -0.220 OA
ATOM     14  C2* UNL     1       3.503   6.302 -10.270  0.00  0.00    +0.090 C 
BRANCH  11  15
ATOM     15  C5* UNL     1       2.359   4.054  -7.668  0.00  0.00    +0.214 C 
ATOM     16  O5* UNL     1       2.311   3.811  -6.388  0.00  0.00    -0.218 OA
ENDBRANCH  11  15
ENDBRANCH   6   9
TORSDOF 2
ENDMDL
MODEL 7
REMARK VINA RESULT:      -5.7      4.714      7.161
REMARK  Name = 
REMARK  2 active torsions:
REMARK  status: ('A' for Active; 'I' for Inactive)
REMARK    1  A    between atoms: N_5  and  C1*_6
REMARK    2  A    between atoms: C4*_10  and  C5*_11
REMARK                            x       y       z     vdW  Elec       q    Type
REMARK                         _______ _______ _______ _____ _____    ______ ____
ROOT
ATOM      1  N   UNL     1       4.779   4.554 -13.351  0.00  0.00    -0.086 NA
ATOM      2  C   UNL     1       4.872   5.525 -12.306  0.00  0.00    +0.262 A 
ATOM      3  N   UNL     1       5.844   5.524 -11.358  0.00  0.00    -0.156 NA
ATOM      4  C   UNL     1       5.568   5.856 -10.059  0.00  0.00    +0.355 A 
ATOM      5  O   UNL     1       6.378   5.695  -9.121  0.00  0.00    -0.244 OA
ATOM      6  N   UNL     1       4.349   5.616  -9.759  0.00  0.00    -0.239 N 
ATOM      7  C   UNL     1       3.441   6.196 -10.600  0.00  0.00    +0.187 A 
ATOM      8  N   UNL     1       3.717   6.128 -11.926  0.00  0.00    -0.190 NA
ENDROOT
BRANCH   6   9
ATOM      9  C1* UNL     1       3.667   5.830  -8.362  0.00  0.00    +0.212 C 
ATOM     10  O4* UNL     1       2.300   5.191  -8.658  0.00  0.00    -0.332 OA
ATOM     11  C4* UNL     1       2.300   5.473  -7.160  0.00  0.00    +0.180 C 
ATOM     12  C3* UNL     1       1.983   7.151  -7.396  0.00  0.00    +0.186 C 
ATOM     13  O3* UNL     1       3.118   7.498  -6.465  0.00  0.00    -0.220 OA
ATOM     14  C2* UNL     1       2.958   7.281  -8.711  0.00  0.00    +0.090 C 
BRANCH  11  15
ATOM     15  C5* UNL     1       0.745   5.120  -6.822  0.00  0.00    +0.214 C 
ATOM     16  O5* UNL     1       0.604   4.373  -5.763  0.00  0.00    -0.218 OA
ENDBRANCH  11  15
ENDBRANCH   6   9
TORSDOF 2
ENDMDL
MODEL 8
REMARK VINA RESULT:      -5.6      3.948      5.840
REMARK  Name = 
REMARK  2 active torsions:
REMARK  status: ('A' for Active; 'I' for Inactive)
REMARK    1  A    between atoms: N_5  and  C1*_6
REMARK    2  A    between atoms: C4*_10  and  C5*_11
REMARK                            x       y       z     vdW  Elec       q    Type
REMARK                         _______ _______ _______ _____ _____    ______ ____
ROOT
ATOM      1  N   UNL     1       2.127   8.096  -7.788  0.00  0.00    -0.086 NA
ATOM      2  C   UNL     1       2.500   7.068  -6.867  0.00  0.00    +0.262 A 
ATOM      3  N   UNL     1       1.641   6.129  -6.395  0.00  0.00    -0.156 NA
ATOM      4  C   UNL     1       1.699   5.706  -5.093  0.00  0.00    +0.355 A 
ATOM      5  O   UNL     1       0.825   4.987  -4.565  0.00  0.00    -0.244 OA
ATOM      6  N   UNL     1       2.189   6.603  -4.326  0.00  0.00    -0.239 N 
ATOM      7  C   UNL     1       3.407   7.077  -4.726  0.00  0.00    +0.187 A 
ATOM      8  N   UNL     1       3.552   7.330  -6.051  0.00  0.00    -0.190 NA
ENDROOT
BRANCH   6   9
ATOM      9  C1* UNL     1       2.382   6.505  -2.772  0.00  0.00    +0.212 C 
ATOM     10  O4* UNL     1       3.314   7.710  -2.567  0.00  0.00    -0.332 OA
ATOM     11  C4* UNL     1       2.943   7.241  -1.165  0.00  0.00    +0.180 C 
ATOM     12  C3* UNL     1       4.053   5.922  -1.228  0.00  0.00    +0.186 C 
ATOM     13  O3* UNL     1       2.966   4.984  -0.765  0.00  0.00    -0.220 OA
ATOM     14  C2* UNL     1       3.748   5.576  -2.804  0.00  0.00    +0.090 C 
BRANCH  11  15
ATOM     15  C5* UNL     1       3.950   8.182  -0.293  0.00  0.00    +0.214 C 
ATOM     16  O5* UNL     1       3.736   9.457  -0.459  0.00  0.00    -0.218 OA
ENDBRANCH  11  15
ENDBRANCH   6   9
TORSDOF 2
ENDMDL
MODEL 9
REMARK VINA RESULT:      -5.6      5.636      7.787
REMARK  Name = 
REMARK  2 active torsions:
REMARK  status: ('A' for Active; 'I' for Inactive)
REMARK    1  A    between atoms: N_5  and  C1*_6
REMARK    2  A    between atoms: C4*_10  and  C5*_11
REMARK                            x       y       z     vdW  Elec       q    Type
REMARK                         _______ _______ _______ _____ _____    ______ ____
ROOT
ATOM      1  N   UNL     1       8.005   6.464 -12.167  0.00  0.00    -0.086 NA
ATOM      2  C   UNL     1       7.175   6.716 -11.032  0.00  0.00    +0.262 A 
ATOM      3  N   UNL     1       7.150   5.931  -9.924  0.00  0.00    -0.156 NA
ATOM      4  C   UNL     1       5.978   5.669  -9.267  0.00  0.00    +0.355 A 
ATOM      5  O   UNL     1       5.873   4.814  -8.362  0.00  0.00    -0.244 OA
ATOM      6  N   UNL     1       4.970   5.745 -10.049  0.00  0.00    -0.239 N 
ATOM      7  C   UNL     1       4.879   6.926 -10.731  0.00  0.00    +0.187 A 
ATOM      8  N   UNL     1       6.032   7.414 -11.251  0.00  0.00    -0.190 NA
ENDROOT
BRANCH   6   9
ATOM      9  C1* UNL     1       3.470   5.479  -9.674  0.00  0.00    +0.212 C 
ATOM     10  O4* UNL     1       2.810   5.911 -10.994  0.00  0.00    -0.332 OA
ATOM     11  C4* UNL     1       1.692   5.288 -10.166  0.00  0.00    +0.180 C 
ATOM     12  C3* UNL     1       1.522   6.699  -9.190  0.00  0.00    +0.186 C 
ATOM     13  O3* UNL     1       1.583   5.846  -7.946  0.00  0.00    -0.220 OA
ATOM     14  C2* UNL     1       3.135   6.999  -9.121  0.00  0.00    +0.090 C 
BRANCH  11  15
ATOM     15  C5* UNL     1       0.418   5.662 -11.112  0.00  0.00    +0.214 C 
ATOM     16  O5* UNL     1      -0.371   4.650 -11.339  0.00  0.00    -0.218 OA
ENDBRANCH  11  15
ENDBRANCH   6   9
TORSDOF 2
ENDMDL
