MODEL 1
REMARK VINA RESULT:      -9.0      0.000      0.000
REMARK  Name = 
REMARK  6 active torsions:
REMARK  status: ('A' for Active; 'I' for Inactive)
REMARK    1  A    between atoms: O_2  and  C_3
REMARK    2  A    between atoms: C_5  and  C_6
REMARK    3  A    between atoms: C_13  and  O_14
REMARK    4  A    between atoms: O_14  and  C_15
REMARK    5  A    between atoms: C_20  and  C_21
REMARK    6  A    between atoms: C_42  and  O_43
REMARK                            x       y       z     vdW  Elec       q    Type
REMARK                         _______ _______ _______ _____ _____    ______ ____
ROOT
ATOM      1  C   UNL     1       1.376   6.296  -8.635  0.00  0.00    +0.055 C 
ATOM      2  C   UNL     1       2.252   5.359  -7.663  0.00  0.00    +0.113 C 
ATOM      3  C   UNL     1       1.492   4.274  -6.806  0.00  0.00    +0.086 C 
ATOM      4  C   UNL     1       0.729   5.298  -5.817  0.00  0.00    +0.212 C 
ATOM      5  O   UNL     1       0.800   6.524  -6.377  0.00  0.00    -0.448 OA
ATOM      6  C   UNL     1       3.225   4.495  -6.375  0.00  0.00    +0.144 C 
ATOM      7  C   UNL     1       3.730   5.429  -7.653  0.00  0.00    +0.004 A 
ATOM      8  C   UNL     1       4.946   5.021  -8.181  0.00  0.00    +0.038 A 
ATOM      9  C   UNL     1       5.445   5.625  -9.349  0.00  0.00    +0.176 A 
ATOM     10  O   UNL     1       6.056   5.145 -10.523  0.00  0.00    -0.435 OA
ATOM     11  C   UNL     1       5.941   6.059 -11.582  0.00  0.00    +0.429 C 
ATOM     12  O   UNL     1       5.344   7.201 -11.012  0.00  0.00    -0.435 OA
ATOM     13  C   UNL     1       4.925   6.887  -9.696  0.00  0.00    +0.176 A 
ATOM     14  C   UNL     1       3.587   7.173  -9.367  0.00  0.00    +0.036 A 
ATOM     15  C   UNL     1       2.123   6.707  -6.674  0.00  0.00    +0.317 C 
ATOM     16  O   UNL     1       2.681   7.808  -6.778  0.00  0.00    -0.250 OA
ATOM     17  C   UNL     1       3.074   6.274  -8.618  0.00  0.00    -0.016 A 
ENDROOT
BRANCH   1  23
ATOM     18  C   UNL     1      -0.237   6.691 -11.598  0.00  0.00    +0.180 A 
ATOM     19  C   UNL     1       0.795   6.846 -12.465  0.00  0.00    +0.263 A 
ATOM     20  O   UNL     1       0.836   7.845 -13.392  0.00  0.00    -0.280 OA
ATOM     21  C   UNL     1       1.837   5.959 -12.276  0.00  0.00    +0.180 A 
ATOM     22  C   UNL     1       2.047   5.384 -11.016  0.00  0.00    +0.036 A 
ATOM     23  C   UNL     1       1.180   5.404 -10.010  0.00  0.00    -0.012 A 
ATOM     24  C   UNL     1      -0.006   6.079 -10.405  0.00  0.00    +0.036 A 
BRANCH  21  25
ATOM     25  O   UNL     1       2.910   6.025 -13.132  0.00  0.00    -0.468 OA
ATOM     26  C   UNL     1       3.320   4.972 -14.013  0.00  0.00    +0.253 C 
ENDBRANCH  21  25
BRANCH  18  28
ATOM     27  C   UNL     1      -2.094   7.666 -11.693  0.00  0.00    +0.253 C 
ATOM     28  O   UNL     1      -1.446   7.296 -11.908  0.00  0.00    -0.468 OA
ENDBRANCH  18  28
ENDBRANCH   1  23
BRANCH   6  29
ATOM     29  O   UNL     1       2.895   5.470  -5.379  0.00  0.00    -0.326 OA
BRANCH  29  30
ATOM     30  C   UNL     1       3.198   5.430  -3.938  0.00  0.00    +0.270 C 
ATOM     31  C   UNL     1       4.814   5.992  -4.147  0.00  0.00    +0.240 C 
ATOM     32  O   UNL     1       5.344   5.015  -3.113  0.00  0.00    -0.215 OA
ATOM     33  C   UNL     1       5.052   7.365  -3.202  0.00  0.00    +0.217 C 
ATOM     34  O   UNL     1       4.179   8.181  -4.141  0.00  0.00    -0.218 OA
ATOM     35  C   UNL     1       3.890   7.366  -1.983  0.00  0.00    +0.181 C 
ATOM     36  C   UNL     1       3.150   5.890  -2.329  0.00  0.00    +0.177 C 
ATOM     37  C   UNL     1       2.079   6.232  -1.137  0.00  0.00    +0.177 C 
ATOM     38  O   UNL     1       2.835   5.862  -0.113  0.00  0.00    -0.324 OA
ATOM     39  C   UNL     1       3.941   6.844   0.294  0.00  0.00    +0.266 C 
ATOM     40  O   UNL     1       4.787   6.684  -0.991  0.00  0.00    -0.324 OA
ATOM     41  O   UNL     1       2.515   6.705  -3.479  0.00  0.00    -0.326 OA
BRANCH  39  42
ATOM     42  C   UNL     1       3.161   8.226  -0.146  0.00  0.00    +0.063 A 
ATOM     43  S   UNL     1       1.765   8.940   0.402  0.00  0.00    -0.086 S 
ATOM     44  C   UNL     1       2.299  10.535   0.756  0.00  0.00    +0.035 A 
ATOM     45  C   UNL     1       3.658  10.244   0.863  0.00  0.00    +0.007 A 
ATOM     46  C   UNL     1       4.036   9.309  -0.063  0.00  0.00    +0.008 A 
ENDBRANCH  39  42
ENDBRANCH  29  30
ENDBRANCH   6  29
TORSDOF 6
ENDMDL
MODEL 2
REMARK VINA RESULT:      -8.8      2.075      3.225
REMARK  Name = 
REMARK  6 active torsions:
REMARK  status: ('A' for Active; 'I' for Inactive)
REMARK    1  A    between atoms: O_2  and  C_3
REMARK    2  A    between atoms: C_5  and  C_6
REMARK    3  A    between atoms: C_13  and  O_14
REMARK    4  A    between atoms: O_14  and  C_15
REMARK    5  A    between atoms: C_20  and  C_21
REMARK    6  A    between atoms: C_42  and  O_43
REMARK                            x       y       z     vdW  Elec       q    Type
REMARK                         _______ _______ _______ _____ _____    ______ ____
ROOT
ATOM      1  C   UNL     1       2.939   6.506 -11.407  0.00  0.00    +0.055 C 
ATOM      2  C   UNL     1       3.146   5.582 -10.106  0.00  0.00    +0.113 C 
ATOM      3  C   UNL     1       2.023   4.529  -9.765  0.00  0.00    +0.086 C 
ATOM      4  C   UNL     1       0.877   5.586  -9.344  0.00  0.00    +0.212 C 
ATOM      5  O   UNL     1       1.261   6.796  -9.800  0.00  0.00    -0.448 OA
ATOM      6  C   UNL     1       3.270   4.739  -8.486  0.00  0.00    +0.144 C 
ATOM      7  C   UNL     1       4.397   5.635  -9.317  0.00  0.00    +0.004 A 
ATOM      8  C   UNL     1       5.698   5.200  -9.115  0.00  0.00    +0.038 A 
ATOM      9  C   UNL     1       6.753   5.768  -9.852  0.00  0.00    +0.176 A 
ATOM     10  O   UNL     1       7.881   5.251 -10.517  0.00  0.00    -0.435 OA
ATOM     11  C   UNL     1       8.364   6.140 -11.491  0.00  0.00    +0.429 C 
ATOM     12  O   UNL     1       7.583   7.303 -11.340  0.00  0.00    -0.435 OA
ATOM     13  C   UNL     1       6.524   7.028 -10.439  0.00  0.00    +0.176 A 
ATOM     14  C   UNL     1       5.222   7.337 -10.873  0.00  0.00    +0.036 A 
ATOM     15  C   UNL     1       2.546   6.957  -9.355  0.00  0.00    +0.317 C 
ATOM     16  O   UNL     1       3.100   8.047  -9.165  0.00  0.00    -0.250 OA
ATOM     17  C   UNL     1       4.370   6.464 -10.495  0.00  0.00    -0.016 A 
ENDROOT
BRANCH   1  23
ATOM     18  C   UNL     1       2.141   6.134 -14.689  0.00  0.00    +0.180 A 
ATOM     19  C   UNL     1       3.217   6.682 -15.306  0.00  0.00    +0.263 A 
ATOM     20  O   UNL     1       3.106   7.588 -16.319  0.00  0.00    -0.280 OA
ATOM     21  C   UNL     1       4.435   6.308 -14.770  0.00  0.00    +0.180 A 
ATOM     22  C   UNL     1       4.515   5.899 -13.432  0.00  0.00    +0.036 A 
ATOM     23  C   UNL     1       3.478   5.582 -12.665  0.00  0.00    -0.012 A 
ATOM     24  C   UNL     1       2.272   5.699 -13.406  0.00  0.00    +0.036 A 
BRANCH  21  25
ATOM     25  O   UNL     1       5.579   6.792 -15.357  0.00  0.00    -0.468 OA
ATOM     26  C   UNL     1       6.911   6.482 -14.931  0.00  0.00    +0.253 C 
ENDBRANCH  21  25
BRANCH  18  28
ATOM     27  C   UNL     1       0.190   6.439 -15.403  0.00  0.00    +0.253 C 
ATOM     28  O   UNL     1       0.920   6.178 -15.344  0.00  0.00    -0.468 OA
ENDBRANCH  18  28
ENDBRANCH   1  23
BRANCH   6  29
ATOM     29  O   UNL     1       2.487   5.743  -7.830  0.00  0.00    -0.326 OA
BRANCH  29  30
ATOM     30  C   UNL     1       1.895   5.691  -6.482  0.00  0.00    +0.270 C 
ATOM     31  C   UNL     1       2.490   4.105  -6.158  0.00  0.00    +0.240 C 
ATOM     32  O   UNL     1       1.189   3.696  -5.492  0.00  0.00    -0.215 OA
ATOM     33  C   UNL     1       3.393   4.129  -4.737  0.00  0.00    +0.217 C 
ATOM     34  O   UNL     1       4.510   4.881  -5.442  0.00  0.00    -0.218 OA
ATOM     35  C   UNL     1       2.928   5.481  -3.847  0.00  0.00    +0.181 C 
ATOM     36  C   UNL     1       1.701   6.047  -4.857  0.00  0.00    +0.177 C 
ATOM     37  C   UNL     1       1.562   7.328  -3.845  0.00  0.00    +0.177 C 
ATOM     38  O   UNL     1       0.824   6.737  -2.916  0.00  0.00    -0.324 OA
ATOM     39  C   UNL     1       1.571   5.787  -1.971  0.00  0.00    +0.266 C 
ATOM     40  O   UNL     1       1.914   4.724  -3.039  0.00  0.00    -0.324 OA
ATOM     41  O   UNL     1       2.898   6.529  -5.710  0.00  0.00    -0.326 OA
BRANCH  39  42
ATOM     42  C   UNL     1       3.018   6.573  -1.991  0.00  0.00    +0.063 A 
ATOM     43  S   UNL     1       3.481   8.069  -1.438  0.00  0.00    -0.086 S 
ATOM     44  C   UNL     1       4.836   7.678  -0.454  0.00  0.00    +0.035 A 
ATOM     45  C   UNL     1       4.525   6.333  -0.258  0.00  0.00    +0.007 A 
ATOM     46  C   UNL     1       3.995   5.780  -1.392  0.00  0.00    +0.008 A 
ENDBRANCH  39  42
ENDBRANCH  29  30
ENDBRANCH   6  29
TORSDOF 6
ENDMDL
MODEL 3
REMARK VINA RESULT:      -8.8      2.272      3.765
REMARK  Name = 
REMARK  6 active torsions:
REMARK  status: ('A' for Active; 'I' for Inactive)
REMARK    1  A    between atoms: O_2  and  C_3
REMARK    2  A    between atoms: C_5  and  C_6
REMARK    3  A    between atoms: C_13  and  O_14
REMARK    4  A    between atoms: O_14  and  C_15
REMARK    5  A    between atoms: C_20  and  C_21
REMARK    6  A    between atoms: C_42  and  O_43
REMARK                            x       y       z     vdW  Elec       q    Type
REMARK                         _______ _______ _______ _____ _____    ______ ____
ROOT
ATOM      1  C   UNL     1       2.515   6.529 -11.519  0.00  0.00    +0.055 C 
ATOM      2  C   UNL     1       2.559   5.585 -10.216  0.00  0.00    +0.113 C 
ATOM      3  C   UNL     1       1.372   4.568 -10.003  0.00  0.00    +0.086 C 
ATOM      4  C   UNL     1       0.226   5.662  -9.685  0.00  0.00    +0.212 C 
ATOM      5  O   UNL     1       0.695   6.862 -10.083  0.00  0.00    -0.448 OA
ATOM      6  C   UNL     1       2.491   4.722  -8.603  0.00  0.00    +0.144 C 
ATOM      7  C   UNL     1       3.725   5.586  -9.304  0.00  0.00    +0.004 A 
ATOM      8  C   UNL     1       4.984   5.103  -8.980  0.00  0.00    +0.038 A 
ATOM      9  C   UNL     1       6.126   5.641  -9.599  0.00  0.00    +0.176 A 
ATOM     10  O   UNL     1       7.297   5.091 -10.154  0.00  0.00    -0.435 OA
ATOM     11  C   UNL     1       7.906   5.973 -11.063  0.00  0.00    +0.429 C 
ATOM     12  O   UNL     1       7.154   7.161 -10.975  0.00  0.00    -0.435 OA
ATOM     13  C   UNL     1       6.001   6.914 -10.189  0.00  0.00    +0.176 A 
ATOM     14  C   UNL     1       4.760   7.273 -10.747  0.00  0.00    +0.036 A 
ATOM     15  C   UNL     1       1.933   6.972  -9.510  0.00  0.00    +0.317 C 
ATOM     16  O   UNL     1       2.502   8.041  -9.250  0.00  0.00    -0.250 OA
ATOM     17  C   UNL     1       3.845   6.427 -10.469  0.00  0.00    -0.016 A 
ENDROOT
BRANCH   1  23
ATOM     18  C   UNL     1       2.057   6.236 -14.872  0.00  0.00    +0.180 A 
ATOM     19  C   UNL     1       3.215   6.745 -15.362  0.00  0.00    +0.263 A 
ATOM     20  O   UNL     1       3.250   7.668 -16.365  0.00  0.00    -0.280 OA
ATOM     21  C   UNL     1       4.351   6.311 -14.707  0.00  0.00    +0.180 A 
ATOM     22  C   UNL     1       4.271   5.881 -13.376  0.00  0.00    +0.036 A 
ATOM     23  C   UNL     1       3.147   5.599 -12.728  0.00  0.00    -0.012 A 
ATOM     24  C   UNL     1       2.032   5.778 -13.591  0.00  0.00    +0.036 A 
BRANCH  21  25
ATOM     25  O   UNL     1       5.572   6.753 -15.161  0.00  0.00    -0.468 OA
ATOM     26  C   UNL     1       6.839   6.279 -14.691  0.00  0.00    +0.253 C 
ENDBRANCH  21  25
BRANCH  18  28
ATOM     27  C   UNL     1       0.180   6.573 -15.752  0.00  0.00    +0.253 C 
ATOM     28  O   UNL     1       0.915   6.342 -15.652  0.00  0.00    -0.468 OA
ENDBRANCH  18  28
ENDBRANCH   1  23
BRANCH   6  29
ATOM     29  O   UNL     1       1.681   5.746  -8.015  0.00  0.00    -0.326 OA
BRANCH  29  30
ATOM     30  C   UNL     1       1.873   6.421  -6.720  0.00  0.00    +0.270 C 
ATOM     31  C   UNL     1       0.254   6.133  -6.201  0.00  0.00    +0.240 C 
ATOM     32  O   UNL     1       0.142   7.524  -5.604  0.00  0.00    -0.215 OA
ATOM     33  C   UNL     1       0.279   5.330  -4.721  0.00  0.00    +0.217 C 
ATOM     34  O   UNL     1       0.754   4.057  -5.403  0.00  0.00    -0.218 OA
ATOM     35  C   UNL     1       1.778   5.606  -4.003  0.00  0.00    +0.181 C 
ATOM     36  C   UNL     1       2.429   6.651  -5.157  0.00  0.00    +0.177 C 
ATOM     37  C   UNL     1       3.817   6.627  -4.286  0.00  0.00    +0.177 C 
ATOM     38  O   UNL     1       3.459   7.513  -3.366  0.00  0.00    -0.324 OA
ATOM     39  C   UNL     1       2.506   7.004  -2.279  0.00  0.00    +0.266 C 
ATOM     40  O   UNL     1       1.292   6.785  -3.211  0.00  0.00    -0.324 OA
ATOM     41  O   UNL     1       2.610   5.338  -5.953  0.00  0.00    -0.326 OA
BRANCH  39  42
ATOM     42  C   UNL     1       3.033   5.444  -2.258  0.00  0.00    +0.063 A 
ATOM     43  S   UNL     1       4.374   4.729  -1.589  0.00  0.00    -0.086 S 
ATOM     44  C   UNL     1       3.675   3.459  -0.665  0.00  0.00    +0.035 A 
ATOM     45  C   UNL     1       2.391   3.995  -0.578  0.00  0.00    +0.007 A 
ATOM     46  C   UNL     1       2.035   4.616  -1.744  0.00  0.00    +0.008 A 
ENDBRANCH  39  42
ENDBRANCH  29  30
ENDBRANCH   6  29
TORSDOF 6
ENDMDL
MODEL 4
REMARK VINA RESULT:      -8.8      2.749      5.312
REMARK  Name = 
REMARK  6 active torsions:
REMARK  status: ('A' for Active; 'I' for Inactive)
REMARK    1  A    between atoms: O_2  and  C_3
REMARK    2  A    between atoms: C_5  and  C_6
REMARK    3  A    between atoms: C_13  and  O_14
REMARK    4  A    between atoms: O_14  and  C_15
REMARK    5  A    between atoms: C_20  and  C_21
REMARK    6  A    between atoms: C_42  and  O_43
REMARK                            x       y       z     vdW  Elec       q    Type
REMARK                         _______ _______ _______ _____ _____    ______ ____
ROOT
ATOM      1  C   UNL     1       3.881   5.493 -10.406  0.00  0.00    +0.055 C 
ATOM      2  C   UNL     1       2.879   6.418  -9.553  0.00  0.00    +0.113 C 
ATOM      3  C   UNL     1       3.485   7.262  -8.366  0.00  0.00    +0.086 C 
ATOM      4  C   UNL     1       3.832   6.020  -7.393  0.00  0.00    +0.212 C 
ATOM      5  O   UNL     1       3.787   4.899  -8.143  0.00  0.00    -0.448 OA
ATOM      6  C   UNL     1       1.687   7.245  -8.435  0.00  0.00    +0.144 C 
ATOM      7  C   UNL     1       1.456   6.565  -9.933  0.00  0.00    +0.004 A 
ATOM      8  C   UNL     1       0.483   7.210 -10.682  0.00  0.00    +0.038 A 
ATOM      9  C   UNL     1       0.263   6.839 -12.021  0.00  0.00    +0.176 A 
ATOM     10  O   UNL     1       0.053   7.549 -13.218  0.00  0.00    -0.435 OA
ATOM     11  C   UNL     1       0.357   6.769 -14.346  0.00  0.00    +0.429 C 
ATOM     12  O   UNL     1       0.648   5.489 -13.834  0.00  0.00    -0.435 OA
ATOM     13  C   UNL     1       0.720   5.568 -12.422  0.00  0.00    +0.176 A 
ATOM     14  C   UNL     1       1.877   5.050 -11.812  0.00  0.00    +0.036 A 
ATOM     15  C   UNL     1       2.584   4.951  -8.795  0.00  0.00    +0.317 C 
ATOM     16  O   UNL     1       1.962   3.967  -9.215  0.00  0.00    -0.250 OA
ATOM     17  C   UNL     1       2.258   5.762 -10.822  0.00  0.00    -0.016 A 
ENDROOT
BRANCH   1  23
ATOM     18  C   UNL     1       6.992   6.660 -11.112  0.00  0.00    +0.180 A 
ATOM     19  C   UNL     1       7.272   6.034 -12.283  0.00  0.00    +0.263 A 
ATOM     20  O   UNL     1       8.451   5.388 -12.512  0.00  0.00    -0.280 OA
ATOM     21  C   UNL     1       6.232   6.034 -13.193  0.00  0.00    +0.180 A 
ATOM     22  C   UNL     1       4.909   6.146 -12.744  0.00  0.00    +0.036 A 
ATOM     23  C   UNL     1       4.543   6.514 -11.522  0.00  0.00    -0.012 A 
ATOM     24  C   UNL     1       5.692   6.798 -10.736  0.00  0.00    +0.036 A 
BRANCH  21  25
ATOM     25  O   UNL     1       6.441   5.448 -14.419  0.00  0.00    -0.468 OA
ATOM     26  C   UNL     1       6.789   6.155 -15.614  0.00  0.00    +0.253 C 
ENDBRANCH  21  25
BRANCH  18  28
ATOM     27  C   UNL     1       8.401   6.990  -9.591  0.00  0.00    +0.253 C 
ATOM     28  O   UNL     1       8.052   7.000 -10.285  0.00  0.00    -0.468 OA
ENDBRANCH  18  28
ENDBRANCH   1  23
BRANCH   6  29
ATOM     29  O   UNL     1       1.624   6.114  -7.559  0.00  0.00    -0.326 OA
BRANCH  29  30
ATOM     30  C   UNL     1       0.494   5.684  -6.718  0.00  0.00    +0.270 C 
ATOM     31  C   UNL     1       1.436   4.535  -5.843  0.00  0.00    +0.240 C 
ATOM     32  O   UNL     1       0.312   3.515  -5.866  0.00  0.00    -0.215 OA
ATOM     33  C   UNL     1       1.319   4.860  -4.195  0.00  0.00    +0.217 C 
ATOM     34  O   UNL     1       2.182   6.099  -4.362  0.00  0.00    -0.218 OA
ATOM     35  C   UNL     1      -0.079   5.763  -3.940  0.00  0.00    +0.181 C 
ATOM     36  C   UNL     1      -0.672   5.775  -5.520  0.00  0.00    +0.177 C 
ATOM     37  C   UNL     1      -1.869   6.757  -4.984  0.00  0.00    +0.177 C 
ATOM     38  O   UNL     1      -2.647   5.817  -4.465  0.00  0.00    -0.324 OA
ATOM     39  C   UNL     1      -2.202   5.249  -3.111  0.00  0.00    +0.266 C 
ATOM     40  O   UNL     1      -0.921   4.559  -3.633  0.00  0.00    -0.324 OA
ATOM     41  O   UNL     1       0.445   6.825  -5.719  0.00  0.00    -0.326 OA
BRANCH  39  42
ATOM     42  C   UNL     1      -1.482   6.616  -2.543  0.00  0.00    +0.063 A 
ATOM     43  S   UNL     1      -2.101   8.049  -1.973  0.00  0.00    -0.086 S 
ATOM     44  C   UNL     1      -1.313   8.195  -0.452  0.00  0.00    +0.035 A 
ATOM     45  C   UNL     1      -0.978   6.850  -0.301  0.00  0.00    +0.007 A 
ATOM     46  C   UNL     1      -0.617   6.294  -1.498  0.00  0.00    +0.008 A 
ENDBRANCH  39  42
ENDBRANCH  29  30
ENDBRANCH   6  29
TORSDOF 6
ENDMDL
MODEL 5
REMARK VINA RESULT:      -8.7      1.912      4.205
REMARK  Name = 
REMARK  6 active torsions:
REMARK  status: ('A' for Active; 'I' for Inactive)
REMARK    1  A    between atoms: O_2  and  C_3
REMARK    2  A    between atoms: C_5  and  C_6
REMARK    3  A    between atoms: C_13  and  O_14
REMARK    4  A    between atoms: O_14  and  C_15
REMARK    5  A    between atoms: C_20  and  C_21
REMARK    6  A    between atoms: C_42  and  O_43
REMARK                            x       y       z     vdW  Elec       q    Type
REMARK                         _______ _______ _______ _____ _____    ______ ____
ROOT
ATOM      1  C   UNL     1       4.082   5.455  -8.890  0.00  0.00    +0.055 C 
ATOM      2  C   UNL     1       3.178   6.209  -7.794  0.00  0.00    +0.113 C 
ATOM      3  C   UNL     1       3.891   7.234  -6.830  0.00  0.00    +0.086 C 
ATOM      4  C   UNL     1       4.749   6.155  -5.989  0.00  0.00    +0.212 C 
ATOM      5  O   UNL     1       4.741   5.002  -6.690  0.00  0.00    -0.448 OA
ATOM      6  C   UNL     1       2.191   6.847  -6.389  0.00  0.00    +0.144 C 
ATOM      7  C   UNL     1       1.708   6.038  -7.759  0.00  0.00    +0.004 A 
ATOM      8  C   UNL     1       0.452   6.421  -8.206  0.00  0.00    +0.038 A 
ATOM      9  C   UNL     1      -0.042   5.927  -9.426  0.00  0.00    +0.176 A 
ATOM     10  O   UNL     1      -0.719   6.500 -10.520  0.00  0.00    -0.435 OA
ATOM     11  C   UNL     1      -0.577   5.728 -11.684  0.00  0.00    +0.429 C 
ATOM     12  O   UNL     1       0.110   4.569 -11.269  0.00  0.00    -0.435 OA
ATOM     13  C   UNL     1       0.548   4.753  -9.934  0.00  0.00    +0.176 A 
ATOM     14  C   UNL     1       1.911   4.523  -9.673  0.00  0.00    +0.036 A 
ATOM     15  C   UNL     1       3.424   4.765  -6.976  0.00  0.00    +0.317 C 
ATOM     16  O   UNL     1       2.935   3.649  -7.200  0.00  0.00    -0.250 OA
ATOM     17  C   UNL     1       2.388   5.359  -8.833  0.00  0.00    -0.016 A 
ENDROOT
BRANCH   1  23
ATOM     18  C   UNL     1       6.296   6.093 -11.387  0.00  0.00    +0.180 A 
ATOM     19  C   UNL     1       5.624   5.654 -12.481  0.00  0.00    +0.263 A 
ATOM     20  O   UNL     1       6.191   4.841 -13.418  0.00  0.00    -0.280 OA
ATOM     21  C   UNL     1       4.296   6.031 -12.525  0.00  0.00    +0.180 A 
ATOM     22  C   UNL     1       3.610   6.317 -11.337  0.00  0.00    +0.036 A 
ATOM     23  C   UNL     1       4.177   6.515 -10.153  0.00  0.00    -0.012 A 
ATOM     24  C   UNL     1       5.590   6.412 -10.268  0.00  0.00    +0.036 A 
BRANCH  21  25
ATOM     25  O   UNL     1       3.549   5.655 -13.616  0.00  0.00    -0.468 OA
ATOM     26  C   UNL     1       2.217   6.104 -13.890  0.00  0.00    +0.253 C 
ENDBRANCH  21  25
BRANCH  18  28
ATOM     27  C   UNL     1       8.354   5.707 -11.237  0.00  0.00    +0.253 C 
ATOM     28  O   UNL     1       7.682   6.054 -11.413  0.00  0.00    -0.468 OA
ENDBRANCH  18  28
ENDBRANCH   1  23
BRANCH   6  29
ATOM     29  O   UNL     1       2.613   5.786  -5.526  0.00  0.00    -0.326 OA
BRANCH  29  30
ATOM     30  C   UNL     1       1.977   5.326  -4.279  0.00  0.00    +0.270 C 
ATOM     31  C   UNL     1       3.435   5.431  -3.364  0.00  0.00    +0.240 C 
ATOM     32  O   UNL     1       3.137   4.130  -2.640  0.00  0.00    -0.215 OA
ATOM     33  C   UNL     1       3.181   6.417  -2.024  0.00  0.00    +0.217 C 
ATOM     34  O   UNL     1       3.135   7.646  -2.918  0.00  0.00    -0.218 OA
ATOM     35  C   UNL     1       1.525   6.470  -1.721  0.00  0.00    +0.181 C 
ATOM     36  C   UNL     1       1.010   5.393  -2.914  0.00  0.00    +0.177 C 
ATOM     37  C   UNL     1      -0.526   5.742  -2.461  0.00  0.00    +0.177 C 
ATOM     38  O   UNL     1      -0.582   4.942  -1.405  0.00  0.00    -0.324 OA
ATOM     39  C   UNL     1       0.140   5.441  -0.147  0.00  0.00    +0.266 C 
ATOM     40  O   UNL     1       1.570   5.347  -0.727  0.00  0.00    -0.324 OA
ATOM     41  O   UNL     1       1.280   6.601  -3.841  0.00  0.00    -0.326 OA
BRANCH  39  42
ATOM     42  C   UNL     1      -0.082   7.052  -0.408  0.00  0.00    +0.063 A 
ATOM     43  S   UNL     1      -1.439   8.008  -0.384  0.00  0.00    -0.086 S 
ATOM     44  C   UNL     1      -0.970   9.261   0.696  0.00  0.00    +0.035 A 
ATOM     45  C   UNL     1       0.060   8.567   1.329  0.00  0.00    +0.007 A 
ATOM     46  C   UNL     1       0.747   7.785   0.440  0.00  0.00    +0.008 A 
ENDBRANCH  39  42
ENDBRANCH  29  30
ENDBRANCH   6  29
TORSDOF 6
ENDMDL
MODEL 6
REMARK VINA RESULT:      -8.4      2.836      3.731
REMARK  Name = 
REMARK  6 active torsions:
REMARK  status: ('A' for Active; 'I' for Inactive)
REMARK    1  A    between atoms: O_2  and  C_3
REMARK    2  A    between atoms: C_5  and  C_6
REMARK    3  A    between atoms: C_13  and  O_14
REMARK    4  A    between atoms: O_14  and  C_15
REMARK    5  A    between atoms: C_20  and  C_21
REMARK    6  A    between atoms: C_42  and  O_43
REMARK                            x       y       z     vdW  Elec       q    Type
REMARK                         _______ _______ _______ _____ _____    ______ ____
ROOT
ATOM      1  C   UNL     1       2.988   6.150 -11.109  0.00  0.00    +0.055 C 
ATOM      2  C   UNL     1       3.312   5.214  -9.841  0.00  0.00    +0.113 C 
ATOM      3  C   UNL     1       2.275   4.081  -9.478  0.00  0.00    +0.086 C 
ATOM      4  C   UNL     1       1.082   5.052  -8.984  0.00  0.00    +0.212 C 
ATOM      5  O   UNL     1       1.368   6.295  -9.425  0.00  0.00    -0.448 OA
ATOM      6  C   UNL     1       3.561   4.345  -8.248  0.00  0.00    +0.144 C 
ATOM      7  C   UNL     1       4.590   5.331  -9.104  0.00  0.00    +0.004 A 
ATOM      8  C   UNL     1       5.924   4.977  -8.968  0.00  0.00    +0.038 A 
ATOM      9  C   UNL     1       6.907   5.630  -9.734  0.00  0.00    +0.176 A 
ATOM     10  O   UNL     1       8.036   5.203 -10.459  0.00  0.00    -0.435 OA
ATOM     11  C   UNL     1       8.418   6.143 -11.430  0.00  0.00    +0.429 C 
ATOM     12  O   UNL     1       7.570   7.249 -11.217  0.00  0.00    -0.435 OA
ATOM     13  C   UNL     1       6.572   6.884 -10.280  0.00  0.00    +0.176 A 
ATOM     14  C   UNL     1       5.235   7.117 -10.650  0.00  0.00    +0.036 A 
ATOM     15  C   UNL     1       2.657   6.529  -9.030  0.00  0.00    +0.317 C 
ATOM     16  O   UNL     1       3.148   7.649  -8.837  0.00  0.00    -0.250 OA
ATOM     17  C   UNL     1       4.458   6.182 -10.259  0.00  0.00    -0.016 A 
ENDROOT
BRANCH   1  23
ATOM     18  C   UNL     1       2.168   5.912 -14.397  0.00  0.00    +0.180 A 
ATOM     19  C   UNL     1       3.230   6.504 -14.998  0.00  0.00    +0.263 A 
ATOM     20  O   UNL     1       3.095   7.452 -15.969  0.00  0.00    -0.280 OA
ATOM     21  C   UNL     1       4.458   6.126 -14.489  0.00  0.00    +0.180 A 
ATOM     22  C   UNL     1       4.556   5.659 -13.171  0.00  0.00    +0.036 A 
ATOM     23  C   UNL     1       3.531   5.292 -12.410  0.00  0.00    -0.012 A 
ATOM     24  C   UNL     1       2.316   5.423 -13.136  0.00  0.00    +0.036 A 
BRANCH  21  25
ATOM     25  O   UNL     1       5.590   6.654 -15.063  0.00  0.00    -0.468 OA
ATOM     26  C   UNL     1       6.929   6.267 -14.735  0.00  0.00    +0.253 C 
ENDBRANCH  21  25
BRANCH  18  28
ATOM     27  C   UNL     1       0.194   6.183 -15.061  0.00  0.00    +0.253 C 
ATOM     28  O   UNL     1       0.940   5.967 -15.040  0.00  0.00    -0.468 OA
ENDBRANCH  18  28
ENDBRANCH   1  23
BRANCH   6  29
ATOM     29  O   UNL     1       2.744   5.280  -7.535  0.00  0.00    -0.326 OA
BRANCH  29  30
ATOM     30  C   UNL     1       2.494   5.341  -6.085  0.00  0.00    +0.270 C 
ATOM     31  C   UNL     1       2.857   7.023  -5.978  0.00  0.00    +0.240 C 
ATOM     32  O   UNL     1       3.611   6.832  -4.675  0.00  0.00    -0.215 OA
ATOM     33  C   UNL     1       1.552   7.831  -5.287  0.00  0.00    +0.217 C 
ATOM     34  O   UNL     1       0.740   7.638  -6.557  0.00  0.00    -0.218 OA
ATOM     35  C   UNL     1       0.638   6.706  -4.428  0.00  0.00    +0.181 C 
ATOM     36  C   UNL     1       1.613   5.349  -4.661  0.00  0.00    +0.177 C 
ATOM     37  C   UNL     1       0.467   4.484  -3.871  0.00  0.00    +0.177 C 
ATOM     38  O   UNL     1       0.828   4.803  -2.636  0.00  0.00    -0.324 OA
ATOM     39  C   UNL     1       0.419   6.202  -2.158  0.00  0.00    +0.266 C 
ATOM     40  O   UNL     1       1.335   6.984  -3.128  0.00  0.00    -0.324 OA
ATOM     41  O   UNL     1       0.977   5.381  -6.070  0.00  0.00    -0.326 OA
BRANCH  39  42
ATOM     42  C   UNL     1      -0.966   6.323  -3.040  0.00  0.00    +0.063 A 
ATOM     43  S   UNL     1      -2.198   5.249  -3.334  0.00  0.00    -0.086 S 
ATOM     44  C   UNL     1      -3.581   6.166  -2.886  0.00  0.00    +0.035 A 
ATOM     45  C   UNL     1      -2.921   7.094  -2.082  0.00  0.00    +0.007 A 
ATOM     46  C   UNL     1      -1.703   7.426  -2.611  0.00  0.00    +0.008 A 
ENDBRANCH  39  42
ENDBRANCH  29  30
ENDBRANCH   6  29
TORSDOF 6
ENDMDL
MODEL 7
REMARK VINA RESULT:      -8.3      3.297      9.529
REMARK  Name = 
REMARK  6 active torsions:
REMARK  status: ('A' for Active; 'I' for Inactive)
REMARK    1  A    between atoms: O_2  and  C_3
REMARK    2  A    between atoms: C_5  and  C_6
REMARK    3  A    between atoms: C_13  and  O_14
REMARK    4  A    between atoms: O_14  and  C_15
REMARK    5  A    between atoms: C_20  and  C_21
REMARK    6  A    between atoms: C_42  and  O_43
REMARK                            x       y       z     vdW  Elec       q    Type
REMARK                         _______ _______ _______ _____ _____    ______ ____
ROOT
ATOM      1  C   UNL     1       0.638   5.442  -4.739  0.00  0.00    +0.055 C 
ATOM      2  C   UNL     1       1.038   6.208  -6.097  0.00  0.00    +0.113 C 
ATOM      3  C   UNL     1      -0.122   6.867  -6.939  0.00  0.00    +0.086 C 
ATOM      4  C   UNL     1      -0.820   5.495  -7.427  0.00  0.00    +0.212 C 
ATOM      5  O   UNL     1      -0.345   4.503  -6.645  0.00  0.00    -0.448 OA
ATOM      6  C   UNL     1       1.479   6.833  -7.761  0.00  0.00    +0.144 C 
ATOM      7  C   UNL     1       2.453   6.389  -6.490  0.00  0.00    +0.004 A 
ATOM      8  C   UNL     1       3.626   7.128  -6.417  0.00  0.00    +0.038 A 
ATOM      9  C   UNL     1       4.493   6.965  -5.321  0.00  0.00    +0.176 A 
ATOM     10  O   UNL     1       5.215   7.849  -4.497  0.00  0.00    -0.435 OA
ATOM     11  C   UNL     1       5.549   7.258  -3.267  0.00  0.00    +0.429 C 
ATOM     12  O   UNL     1       5.126   5.919  -3.381  0.00  0.00    -0.435 OA
ATOM     13  C   UNL     1       4.370   5.779  -4.571  0.00  0.00    +0.176 A 
ATOM     14  C   UNL     1       3.097   5.192  -4.453  0.00  0.00    +0.036 A 
ATOM     15  C   UNL     1       1.016   4.636  -6.683  0.00  0.00    +0.317 C 
ATOM     16  O   UNL     1       1.825   3.719  -6.487  0.00  0.00    -0.250 OA
ATOM     17  C   UNL     1       2.238   5.746  -5.218  0.00  0.00    -0.016 A 
ENDROOT
BRANCH   1  23
ATOM     18  C   UNL     1      -1.701   6.534  -2.531  0.00  0.00    +0.180 A 
ATOM     19  C   UNL     1      -1.167   6.156  -1.342  0.00  0.00    +0.263 A 
ATOM     20  O   UNL     1      -1.885   5.500  -0.386  0.00  0.00    -0.280 OA
ATOM     21  C   UNL     1       0.183   6.417  -1.214  0.00  0.00    +0.180 A 
ATOM     22  C   UNL     1       0.989   6.515  -2.356  0.00  0.00    +0.036 A 
ATOM     23  C   UNL     1       0.543   6.635  -3.601  0.00  0.00    -0.012 A 
ATOM     24  C   UNL     1      -0.878   6.670  -3.606  0.00  0.00    +0.036 A 
BRANCH  21  25
ATOM     25  O   UNL     1       0.798   6.096  -0.027  0.00  0.00    -0.468 OA
ATOM     26  C   UNL     1       1.052   7.018   1.039  0.00  0.00    +0.253 C 
ENDBRANCH  21  25
BRANCH  18  28
ATOM     27  C   UNL     1      -3.764   6.337  -2.868  0.00  0.00    +0.253 C 
ATOM     28  O   UNL     1      -3.082   6.620  -2.628  0.00  0.00    -0.468 OA
ENDBRANCH  18  28
ENDBRANCH   1  23
BRANCH   6  29
ATOM     29  O   UNL     1       1.178   5.579  -8.383  0.00  0.00    -0.326 OA
BRANCH  29  30
ATOM     30  C   UNL     1       1.574   5.116  -9.724  0.00  0.00    +0.270 C 
ATOM     31  C   UNL     1       0.015   4.477 -10.088  0.00  0.00    +0.240 C 
ATOM     32  O   UNL     1       0.614   3.247 -10.747  0.00  0.00    -0.215 OA
ATOM     33  C   UNL     1      -0.547   5.163 -11.519  0.00  0.00    +0.217 C 
ATOM     34  O   UNL     1      -0.771   6.490 -10.813  0.00  0.00    -0.218 OA
ATOM     35  C   UNL     1       0.782   5.744 -12.376  0.00  0.00    +0.181 C 
ATOM     36  C   UNL     1       2.006   5.223 -11.338  0.00  0.00    +0.177 C 
ATOM     37  C   UNL     1       3.065   5.996 -12.321  0.00  0.00    +0.177 C 
ATOM     38  O   UNL     1       3.154   5.057 -13.254  0.00  0.00    -0.324 OA
ATOM     39  C   UNL     1       1.973   4.965 -14.228  0.00  0.00    +0.266 C 
ATOM     40  O   UNL     1       0.934   4.490 -13.186  0.00  0.00    -0.324 OA
ATOM     41  O   UNL     1       1.527   6.424 -10.491  0.00  0.00    -0.326 OA
BRANCH  39  42
ATOM     42  C   UNL     1       1.567   6.561 -14.209  0.00  0.00    +0.063 A 
ATOM     43  S   UNL     1       2.214   7.885 -14.975  0.00  0.00    -0.086 S 
ATOM     44  C   UNL     1       0.831   8.564 -15.737  0.00  0.00    +0.035 A 
ATOM     45  C   UNL     1       0.041   7.417 -15.717  0.00  0.00    +0.007 A 
ATOM     46  C   UNL     1       0.226   6.711 -14.559  0.00  0.00    +0.008 A 
ENDBRANCH  39  42
ENDBRANCH  29  30
ENDBRANCH   6  29
TORSDOF 6
ENDMDL
MODEL 8
REMARK VINA RESULT:      -8.2      2.976      9.784
REMARK  Name = 
REMARK  6 active torsions:
REMARK  status: ('A' for Active; 'I' for Inactive)
REMARK    1  A    between atoms: O_2  and  C_3
REMARK    2  A    between atoms: C_5  and  C_6
REMARK    3  A    between atoms: C_13  and  O_14
REMARK    4  A    between atoms: O_14  and  C_15
REMARK    5  A    between atoms: C_20  and  C_21
REMARK    6  A    between atoms: C_42  and  O_43
REMARK                            x       y       z     vdW  Elec       q    Type
REMARK                         _______ _______ _______ _____ _____    ______ ____
ROOT
ATOM      1  C   UNL     1       2.125   6.633  -3.546  0.00  0.00    +0.055 C 
ATOM      2  C   UNL     1       2.029   5.548  -4.731  0.00  0.00    +0.113 C 
ATOM      3  C   UNL     1       3.199   4.497  -4.864  0.00  0.00    +0.086 C 
ATOM      4  C   UNL     1       4.344   5.532  -5.340  0.00  0.00    +0.212 C 
ATOM      5  O   UNL     1       3.900   6.776  -5.066  0.00  0.00    -0.448 OA
ATOM      6  C   UNL     1       2.036   4.507  -6.237  0.00  0.00    +0.144 C 
ATOM      7  C   UNL     1       0.834   5.462  -5.600  0.00  0.00    +0.004 A 
ATOM      8  C   UNL     1      -0.440   4.962  -5.828  0.00  0.00    +0.038 A 
ATOM      9  C   UNL     1      -1.555   5.583  -5.239  0.00  0.00    +0.176 A 
ATOM     10  O   UNL     1      -2.713   5.116  -4.588  0.00  0.00    -0.435 OA
ATOM     11  C   UNL     1      -3.283   6.103  -3.766  0.00  0.00    +0.429 C 
ATOM     12  O   UNL     1      -2.522   7.263  -4.012  0.00  0.00    -0.435 OA
ATOM     13  C   UNL     1      -1.398   6.913  -4.801  0.00  0.00    +0.176 A 
ATOM     14  C   UNL     1      -0.136   7.316  -4.327  0.00  0.00    +0.036 A 
ATOM     15  C   UNL     1       2.646   6.838  -5.610  0.00  0.00    +0.317 C 
ATOM     16  O   UNL     1       2.079   7.878  -5.971  0.00  0.00    -0.250 OA
ATOM     17  C   UNL     1       0.761   6.431  -4.536  0.00  0.00    -0.016 A 
ENDROOT
BRANCH   1  23
ATOM     18  C   UNL     1       2.827   6.565  -0.223  0.00  0.00    +0.180 A 
ATOM     19  C   UNL     1       1.753   7.203   0.307  0.00  0.00    +0.263 A 
ATOM     20  O   UNL     1       1.868   8.202   1.229  0.00  0.00    -0.280 OA
ATOM     21  C   UNL     1       0.538   6.814  -0.224  0.00  0.00    +0.180 A 
ATOM     22  C   UNL     1       0.479   6.277  -1.517  0.00  0.00    +0.036 A 
ATOM     23  C   UNL     1       1.524   5.854  -2.220  0.00  0.00    -0.012 A 
ATOM     24  C   UNL     1       2.714   6.009  -1.460  0.00  0.00    +0.036 A 
BRANCH  21  25
ATOM     25  O   UNL     1      -0.605   7.388   0.279  0.00  0.00    -0.468 OA
ATOM     26  C   UNL     1      -1.791   7.650  -0.480  0.00  0.00    +0.253 C 
ENDBRANCH  21  25
BRANCH  18  28
ATOM     27  C   UNL     1       4.801   6.746   0.469  0.00  0.00    +0.253 C 
ATOM     28  O   UNL     1       4.032   6.638   0.460  0.00  0.00    -0.468 OA
ENDBRANCH  18  28
ENDBRANCH   1  23
BRANCH   6  29
ATOM     29  O   UNL     1       2.837   5.446  -6.963  0.00  0.00    -0.326 OA
BRANCH  29  30
ATOM     30  C   UNL     1       2.503   6.141  -8.218  0.00  0.00    +0.270 C 
ATOM     31  C   UNL     1       4.106   6.025  -8.841  0.00  0.00    +0.240 C 
ATOM     32  O   UNL     1       4.053   7.439  -9.390  0.00  0.00    -0.215 OA
ATOM     33  C   UNL     1       4.065   5.271 -10.346  0.00  0.00    +0.217 C 
ATOM     34  O   UNL     1       3.753   3.938  -9.686  0.00  0.00    -0.218 OA
ATOM     35  C   UNL     1       2.506   5.428 -10.965  0.00  0.00    +0.181 C 
ATOM     36  C   UNL     1       1.833   6.368  -9.735  0.00  0.00    +0.177 C 
ATOM     37  C   UNL     1       0.403   6.242 -10.525  0.00  0.00    +0.177 C 
ATOM     38  O   UNL     1       0.619   7.187 -11.429  0.00  0.00    -0.324 OA
ATOM     39  C   UNL     1       1.547   6.805 -12.589  0.00  0.00    +0.266 C 
ATOM     40  O   UNL     1       2.831   6.672 -11.738  0.00  0.00    -0.324 OA
ATOM     41  O   UNL     1       1.824   5.019  -8.981  0.00  0.00    -0.326 OA
BRANCH  39  42
ATOM     42  C   UNL     1       1.166   5.204 -12.638  0.00  0.00    +0.063 A 
ATOM     43  S   UNL     1      -0.284   4.400 -12.551  0.00  0.00    -0.086 S 
ATOM     44  C   UNL     1      -0.224   3.409 -13.955  0.00  0.00    +0.035 A 
ATOM     45  C   UNL     1       0.737   4.145 -14.645  0.00  0.00    +0.007 A 
ATOM     46  C   UNL     1       1.693   4.629 -13.794  0.00  0.00    +0.008 A 
ENDBRANCH  39  42
ENDBRANCH  29  30
ENDBRANCH   6  29
TORSDOF 6
ENDMDL
MODEL 9
REMARK VINA RESULT:      -8.0      3.260      8.920
REMARK  Name = 
REMARK  6 active torsions:
REMARK  status: ('A' for Active; 'I' for Inactive)
REMARK    1  A    between atoms: O_2  and  C_3
REMARK    2  A    between atoms: C_5  and  C_6
REMARK    3  A    between atoms: C_13  and  O_14
REMARK    4  A    between atoms: O_14  and  C_15
REMARK    5  A    between atoms: C_20  and  C_21
REMARK    6  A    between atoms: C_42  and  O_43
REMARK                            x       y       z     vdW  Elec       q    Type
REMARK                         _______ _______ _______ _____ _____    ______ ____
ROOT
ATOM      1  C   UNL     1       0.963   5.633  -4.722  0.00  0.00    +0.055 C 
ATOM      2  C   UNL     1       1.868   6.565  -5.671  0.00  0.00    +0.113 C 
ATOM      3  C   UNL     1       1.146   7.359  -6.828  0.00  0.00    +0.086 C 
ATOM      4  C   UNL     1       0.767   6.081  -7.741  0.00  0.00    +0.212 C 
ATOM      5  O   UNL     1       0.905   4.982  -6.970  0.00  0.00    -0.448 OA
ATOM      6  C   UNL     1       2.943   7.398  -6.897  0.00  0.00    +0.144 C 
ATOM      7  C   UNL     1       3.310   6.765  -5.405  0.00  0.00    +0.004 A 
ATOM      8  C   UNL     1       4.316   7.460  -4.748  0.00  0.00    +0.038 A 
ATOM      9  C   UNL     1       4.648   7.131  -3.422  0.00  0.00    +0.176 A 
ATOM     10  O   UNL     1       4.926   7.879  -2.262  0.00  0.00    -0.435 OA
ATOM     11  C   UNL     1       4.734   7.121  -1.095  0.00  0.00    +0.429 C 
ATOM     12  O   UNL     1       4.446   5.819  -1.552  0.00  0.00    -0.435 OA
ATOM     13  C   UNL     1       4.265   5.858  -2.957  0.00  0.00    +0.176 A 
ATOM     14  C   UNL     1       3.082   5.290  -3.463  0.00  0.00    +0.036 A 
ATOM     15  C   UNL     1       2.151   5.088  -6.414  0.00  0.00    +0.317 C 
ATOM     16  O   UNL     1       2.835   4.134  -6.019  0.00  0.00    -0.250 OA
ATOM     17  C   UNL     1       2.604   5.962  -4.438  0.00  0.00    -0.016 A 
ENDROOT
BRANCH   1  23
ATOM     18  C   UNL     1      -2.050   7.063  -4.076  0.00  0.00    +0.180 A 
ATOM     19  C   UNL     1      -2.436   6.416  -2.948  0.00  0.00    +0.263 A 
ATOM     20  O   UNL     1      -3.679   5.878  -2.794  0.00  0.00    -0.280 OA
ATOM     21  C   UNL     1      -1.439   6.276  -2.001  0.00  0.00    +0.180 A 
ATOM     22  C   UNL     1      -0.094   6.279  -2.394  0.00  0.00    +0.036 A 
ATOM     23  C   UNL     1       0.356   6.663  -3.583  0.00  0.00    -0.012 A 
ATOM     24  C   UNL     1      -0.728   7.091  -4.397  0.00  0.00    +0.036 A 
BRANCH  21  25
ATOM     25  O   UNL     1      -1.753   5.659  -0.813  0.00  0.00    -0.468 OA
ATOM     26  C   UNL     1      -1.831   6.320   0.456  0.00  0.00    +0.253 C 
ENDBRANCH  21  25
BRANCH  18  28
ATOM     27  C   UNL     1      -3.279   7.757  -5.630  0.00  0.00    +0.253 C 
ATOM     28  O   UNL     1      -3.038   7.540  -4.925  0.00  0.00    -0.468 OA
ENDBRANCH  18  28
ENDBRANCH   1  23
BRANCH   6  29
ATOM     29  O   UNL     1       2.977   6.247  -7.747  0.00  0.00    -0.326 OA
BRANCH  29  30
ATOM     30  C   UNL     1       4.102   5.756  -8.562  0.00  0.00    +0.270 C 
ATOM     31  C   UNL     1       3.154   4.547  -9.345  0.00  0.00    +0.240 C 
ATOM     32  O   UNL     1       4.278   3.531  -9.255  0.00  0.00    -0.215 OA
ATOM     33  C   UNL     1       3.261   4.750 -11.013  0.00  0.00    +0.217 C 
ATOM     34  O   UNL     1       2.398   5.999 -10.931  0.00  0.00    -0.218 OA
ATOM     35  C   UNL     1       4.657   5.633 -11.342  0.00  0.00    +0.181 C 
ATOM     36  C   UNL     1       5.260   5.759  -9.771  0.00  0.00    +0.177 C 
ATOM     37  C   UNL     1       6.453   6.699 -10.385  0.00  0.00    +0.177 C 
ATOM     38  O   UNL     1       7.228   5.724 -10.838  0.00  0.00    -0.324 OA
ATOM     39  C   UNL     1       6.775   5.059 -12.144  0.00  0.00    +0.266 C 
ATOM     40  O   UNL     1       5.497   4.409 -11.566  0.00  0.00    -0.324 OA
ATOM     41  O   UNL     1       4.144   6.821  -9.642  0.00  0.00    -0.326 OA
BRANCH  39  42
ATOM     42  C   UNL     1       6.050   6.382 -12.807  0.00  0.00    +0.063 A 
ATOM     43  S   UNL     1       6.662   7.802 -13.411  0.00  0.00    -0.086 S 
ATOM     44  C   UNL     1       5.944   7.861 -14.971  0.00  0.00    +0.035 A 
ATOM     45  C   UNL     1       5.647   6.504 -15.077  0.00  0.00    +0.007 A 
ATOM     46  C   UNL     1       5.243   5.992 -13.874  0.00  0.00    +0.008 A 
ENDBRANCH  39  42
ENDBRANCH  29  30
ENDBRANCH   6  29
TORSDOF 6
ENDMDL
