MODEL 1
REMARK VINA RESULT:      -6.1      0.000      0.000
REMARK  Name = 
REMARK  2 active torsions:
REMARK  status: ('A' for Active; 'I' for Inactive)
REMARK    1  A    between atoms: C_6  and  C_7
REMARK    2  A    between atoms: C_7  and  C_9
REMARK                            x       y       z     vdW  Elec       q    Type
REMARK                         _______ _______ _______ _____ _____    ______ ____
ROOT
ATOM      1  C   UNL     1       8.055   5.798 -13.133  0.00  0.00    +0.031 C 
ATOM      2  C   UNL     1       7.351   5.601 -11.830  0.00  0.00    -0.026 A 
ATOM      3  C   UNL     1       5.964   5.726 -11.797  0.00  0.00    -0.029 A 
ATOM      4  C   UNL     1       5.240   5.197 -12.994  0.00  0.00    +0.030 C 
ATOM      5  C   UNL     1       5.391   5.467 -10.595  0.00  0.00    -0.021 A 
ATOM      6  C   UNL     1       6.045   5.802  -9.415  0.00  0.00    -0.004 A 
ATOM      7  C   UNL     1       7.428   5.669  -9.432  0.00  0.00    -0.001 A 
ATOM      8  C   UNL     1       8.083   5.607 -10.649  0.00  0.00    -0.005 A 
ENDROOT
BRANCH   5   9
ATOM      9  C   UNL     1       3.770   5.638 -10.503  0.00  0.00    +0.064 C 
ATOM     10  C   UNL     1       3.890   7.218  -9.978  0.00  0.00    +0.011 C 
BRANCH   9  11
ATOM     11  C   UNL     1       3.654   5.071  -8.966  0.00  0.00    +0.084 A 
ATOM     12  N   UNL     1       3.164   3.834  -8.757  0.00  0.00    -0.226 NA
ATOM     13  C   UNL     1       2.343   3.840  -7.679  0.00  0.00    +0.199 A 
ATOM     14  N   UNL     1       1.800   5.081  -7.683  0.00  0.00    -0.221 NA
ATOM     15  C   UNL     1       2.762   5.860  -8.239  0.00  0.00    +0.116 A 
ENDBRANCH   9  11
ENDBRANCH   5   9
TORSDOF 2
ENDMDL
MODEL 2
REMARK VINA RESULT:      -6.0      6.264      8.398
REMARK  Name = 
REMARK  2 active torsions:
REMARK  status: ('A' for Active; 'I' for Inactive)
REMARK    1  A    between atoms: C_6  and  C_7
REMARK    2  A    between atoms: C_7  and  C_9
REMARK                            x       y       z     vdW  Elec       q    Type
REMARK                         _______ _______ _______ _____ _____    ______ ____
ROOT
ATOM      1  C   UNL     1      -0.076   5.352  -8.596  0.00  0.00    +0.031 C 
ATOM      2  C   UNL     1       0.071   5.706  -7.152  0.00  0.00    -0.026 A 
ATOM      3  C   UNL     1      -1.075   6.001  -6.418  0.00  0.00    -0.029 A 
ATOM      4  C   UNL     1      -2.282   5.182  -6.748  0.00  0.00    +0.030 C 
ATOM      5  C   UNL     1      -0.868   6.247  -5.100  0.00  0.00    -0.021 A 
ATOM      6  C   UNL     1       0.289   6.889  -4.675  0.00  0.00    -0.004 A 
ATOM      7  C   UNL     1       1.442   6.593  -5.391  0.00  0.00    -0.001 A 
ATOM      8  C   UNL     1       1.326   6.034  -6.652  0.00  0.00    -0.005 A 
ENDROOT
BRANCH   5   9
ATOM      9  C   UNL     1      -2.182   6.634  -4.210  0.00  0.00    +0.064 C 
ATOM     10  C   UNL     1      -1.881   8.271  -4.338  0.00  0.00    +0.011 C 
BRANCH   9  11
ATOM     11  C   UNL     1      -1.408   6.541  -2.766  0.00  0.00    +0.084 A 
ATOM     12  N   UNL     1      -1.554   5.435  -2.012  0.00  0.00    -0.226 NA
ATOM     13  C   UNL     1      -1.688   5.779  -0.708  0.00  0.00    +0.199 A 
ATOM     14  N   UNL     1      -2.308   6.983  -0.746  0.00  0.00    -0.221 NA
ATOM     15  C   UNL     1      -1.885   7.535  -1.911  0.00  0.00    +0.116 A 
ENDBRANCH   9  11
ENDBRANCH   5   9
TORSDOF 2
ENDMDL
MODEL 3
REMARK VINA RESULT:      -6.0      4.101      8.206
REMARK  Name = 
REMARK  2 active torsions:
REMARK  status: ('A' for Active; 'I' for Inactive)
REMARK    1  A    between atoms: C_6  and  C_7
REMARK    2  A    between atoms: C_7  and  C_9
REMARK                            x       y       z     vdW  Elec       q    Type
REMARK                         _______ _______ _______ _____ _____    ______ ____
ROOT
ATOM      1  C   UNL     1      -2.406   5.817  -2.633  0.00  0.00    +0.031 C 
ATOM      2  C   UNL     1      -1.849   5.574  -3.998  0.00  0.00    -0.026 A 
ATOM      3  C   UNL     1      -0.482   5.745  -4.199  0.00  0.00    -0.029 A 
ATOM      4  C   UNL     1       0.396   5.306  -3.071  0.00  0.00    +0.030 C 
ATOM      5  C   UNL     1      -0.040   5.441  -5.446  0.00  0.00    -0.021 A 
ATOM      6  C   UNL     1      -0.838   5.690  -6.557  0.00  0.00    -0.004 A 
ATOM      7  C   UNL     1      -2.203   5.510  -6.372  0.00  0.00    -0.001 A 
ATOM      8  C   UNL     1      -2.712   5.492  -5.085  0.00  0.00    -0.005 A 
ENDROOT
BRANCH   5   9
ATOM      9  C   UNL     1       1.551   5.662  -5.735  0.00  0.00    +0.064 C 
ATOM     10  C   UNL     1       1.298   7.167  -6.412  0.00  0.00    +0.011 C 
BRANCH   9  11
ATOM     11  C   UNL     1       1.532   4.930  -7.204  0.00  0.00    +0.084 A 
ATOM     12  N   UNL     1       2.193   3.768  -7.368  0.00  0.00    -0.226 NA
ATOM     13  C   UNL     1       2.830   3.764  -8.564  0.00  0.00    +0.199 A 
ATOM     14  N   UNL     1       3.144   5.064  -8.777  0.00  0.00    -0.221 NA
ATOM     15  C   UNL     1       2.155   5.749  -8.147  0.00  0.00    +0.116 A 
ENDBRANCH   9  11
ENDBRANCH   5   9
TORSDOF 2
ENDMDL
MODEL 4
REMARK VINA RESULT:      -5.9      5.341      8.547
REMARK  Name = 
REMARK  2 active torsions:
REMARK  status: ('A' for Active; 'I' for Inactive)
REMARK    1  A    between atoms: C_6  and  C_7
REMARK    2  A    between atoms: C_7  and  C_9
REMARK                            x       y       z     vdW  Elec       q    Type
REMARK                         _______ _______ _______ _____ _____    ______ ____
ROOT
ATOM      1  C   UNL     1      -3.306   5.910  -3.286  0.00  0.00    +0.031 C 
ATOM      2  C   UNL     1      -2.269   5.744  -4.349  0.00  0.00    -0.026 A 
ATOM      3  C   UNL     1      -1.030   6.353  -4.171  0.00  0.00    -0.029 A 
ATOM      4  C   UNL     1      -0.505   6.352  -2.770  0.00  0.00    +0.030 C 
ATOM      5  C   UNL     1      -0.119   6.102  -5.145  0.00  0.00    -0.021 A 
ATOM      6  C   UNL     1      -0.523   5.954  -6.467  0.00  0.00    -0.004 A 
ATOM      7  C   UNL     1      -1.752   5.336  -6.658  0.00  0.00    -0.001 A 
ATOM      8  C   UNL     1      -2.642   5.268  -5.601  0.00  0.00    -0.005 A 
ENDROOT
BRANCH   5   9
ATOM      9  C   UNL     1       1.336   6.827  -4.994  0.00  0.00    +0.064 C 
ATOM     10  C   UNL     1       1.495   7.023  -6.644  0.00  0.00    +0.011 C 
BRANCH   9  11
ATOM     11  C   UNL     1       2.195   5.429  -5.014  0.00  0.00    +0.084 A 
ATOM     12  N   UNL     1       2.897   5.072  -3.922  0.00  0.00    -0.226 NA
ATOM     13  C   UNL     1       4.099   4.566  -4.290  0.00  0.00    +0.199 A 
ATOM     14  N   UNL     1       4.404   5.232  -5.430  0.00  0.00    -0.221 NA
ATOM     15  C   UNL     1       3.195   5.504  -5.985  0.00  0.00    +0.116 A 
ENDBRANCH   9  11
ENDBRANCH   5   9
TORSDOF 2
ENDMDL
MODEL 5
REMARK VINA RESULT:      -5.8      2.471      5.721
REMARK  Name = 
REMARK  2 active torsions:
REMARK  status: ('A' for Active; 'I' for Inactive)
REMARK    1  A    between atoms: C_6  and  C_7
REMARK    2  A    between atoms: C_7  and  C_9
REMARK                            x       y       z     vdW  Elec       q    Type
REMARK                         _______ _______ _______ _____ _____    ______ ____
ROOT
ATOM      1  C   UNL     1      -0.883   5.437  -7.176  0.00  0.00    +0.031 C 
ATOM      2  C   UNL     1       0.471   5.988  -7.484  0.00  0.00    -0.026 A 
ATOM      3  C   UNL     1       1.182   5.447  -8.552  0.00  0.00    -0.029 A 
ATOM      4  C   UNL     1       0.366   5.072  -9.748  0.00  0.00    +0.030 C 
ATOM      5  C   UNL     1       2.373   6.042  -8.811  0.00  0.00    -0.021 A 
ATOM      6  C   UNL     1       3.152   6.545  -7.775  0.00  0.00    -0.004 A 
ATOM      7  C   UNL     1       2.453   7.099  -6.709  0.00  0.00    -0.001 A 
ATOM      8  C   UNL     1       1.116   6.784  -6.545  0.00  0.00    -0.005 A 
ENDROOT
BRANCH   5   9
ATOM      9  C   UNL     1       3.258   5.415 -10.033  0.00  0.00    +0.064 C 
ATOM     10  C   UNL     1       3.955   4.268  -9.041  0.00  0.00    +0.011 C 
BRANCH   9  11
ATOM     11  C   UNL     1       4.522   6.444  -9.837  0.00  0.00    +0.084 A 
ATOM     12  N   UNL     1       4.750   7.390 -10.767  0.00  0.00    -0.226 NA
ATOM     13  C   UNL     1       6.080   7.498 -10.999  0.00  0.00    +0.199 A 
ATOM     14  N   UNL     1       6.556   6.247 -10.792  0.00  0.00    -0.221 NA
ATOM     15  C   UNL     1       5.719   5.728  -9.858  0.00  0.00    +0.116 A 
ENDBRANCH   9  11
ENDBRANCH   5   9
TORSDOF 2
ENDMDL
MODEL 6
REMARK VINA RESULT:      -5.8      3.458      5.281
REMARK  Name = 
REMARK  2 active torsions:
REMARK  status: ('A' for Active; 'I' for Inactive)
REMARK    1  A    between atoms: C_6  and  C_7
REMARK    2  A    between atoms: C_7  and  C_9
REMARK                            x       y       z     vdW  Elec       q    Type
REMARK                         _______ _______ _______ _____ _____    ______ ____
ROOT
ATOM      1  C   UNL     1       3.868   5.790 -10.541  0.00  0.00    +0.031 C 
ATOM      2  C   UNL     1       3.559   6.321  -9.179  0.00  0.00    -0.026 A 
ATOM      3  C   UNL     1       4.095   5.667  -8.072  0.00  0.00    -0.029 A 
ATOM      4  C   UNL     1       5.485   5.141  -8.244  0.00  0.00    +0.030 C 
ATOM      5  C   UNL     1       3.825   6.246  -6.875  0.00  0.00    -0.021 A 
ATOM      6  C   UNL     1       2.607   6.879  -6.656  0.00  0.00    -0.004 A 
ATOM      7  C   UNL     1       2.068   7.545  -7.750  0.00  0.00    -0.001 A 
ATOM      8  C   UNL     1       2.522   7.233  -9.019  0.00  0.00    -0.005 A 
ENDROOT
BRANCH   5   9
ATOM      9  C   UNL     1       4.405   5.492  -5.548  0.00  0.00    +0.064 C 
ATOM     10  C   UNL     1       2.983   4.651  -5.311  0.00  0.00    +0.011 C 
BRANCH   9  11
ATOM     11  C   UNL     1       3.953   6.674  -4.503  0.00  0.00    +0.084 A 
ATOM     12  N   UNL     1       4.878   7.545  -4.056  0.00  0.00    -0.226 NA
ATOM     13  C   UNL     1       4.687   7.784  -2.736  0.00  0.00    +0.199 A 
ATOM     14  N   UNL     1       4.179   6.622  -2.259  0.00  0.00    -0.221 NA
ATOM     15  C   UNL     1       3.499   6.103  -3.313  0.00  0.00    +0.116 A 
ENDBRANCH   9  11
ENDBRANCH   5   9
TORSDOF 2
ENDMDL
MODEL 7
REMARK VINA RESULT:      -5.8      4.487      8.370
REMARK  Name = 
REMARK  2 active torsions:
REMARK  status: ('A' for Active; 'I' for Inactive)
REMARK    1  A    between atoms: C_6  and  C_7
REMARK    2  A    between atoms: C_7  and  C_9
REMARK                            x       y       z     vdW  Elec       q    Type
REMARK                         _______ _______ _______ _____ _____    ______ ____
ROOT
ATOM      1  C   UNL     1      -3.236   6.036  -3.193  0.00  0.00    +0.031 C 
ATOM      2  C   UNL     1      -1.786   5.936  -3.540  0.00  0.00    -0.026 A 
ATOM      3  C   UNL     1      -1.435   5.624  -4.851  0.00  0.00    -0.029 A 
ATOM      4  C   UNL     1      -2.298   6.230  -5.912  0.00  0.00    +0.030 C 
ATOM      5  C   UNL     1      -0.103   5.617  -5.104  0.00  0.00    -0.021 A 
ATOM      6  C   UNL     1       0.798   5.194  -4.133  0.00  0.00    -0.004 A 
ATOM      7  C   UNL     1       0.465   5.510  -2.822  0.00  0.00    -0.001 A 
ATOM      8  C   UNL     1      -0.844   5.844  -2.522  0.00  0.00    -0.005 A 
ENDROOT
BRANCH   5   9
ATOM      9  C   UNL     1       0.354   5.220  -6.621  0.00  0.00    +0.064 C 
ATOM     10  C   UNL     1       1.377   4.017  -6.080  0.00  0.00    +0.011 C 
BRANCH   9  11
ATOM     11  C   UNL     1       1.577   6.313  -6.693  0.00  0.00    +0.084 A 
ATOM     12  N   UNL     1       1.443   7.398  -7.479  0.00  0.00    -0.226 NA
ATOM     13  C   UNL     1       2.610   7.649  -8.120  0.00  0.00    +0.199 A 
ATOM     14  N   UNL     1       3.167   6.425  -8.288  0.00  0.00    -0.221 NA
ATOM     15  C   UNL     1       2.716   5.711  -7.226  0.00  0.00    +0.116 A 
ENDBRANCH   9  11
ENDBRANCH   5   9
TORSDOF 2
ENDMDL
MODEL 8
REMARK VINA RESULT:      -5.8      6.302      8.759
REMARK  Name = 
REMARK  2 active torsions:
REMARK  status: ('A' for Active; 'I' for Inactive)
REMARK    1  A    between atoms: C_6  and  C_7
REMARK    2  A    between atoms: C_7  and  C_9
REMARK                            x       y       z     vdW  Elec       q    Type
REMARK                         _______ _______ _______ _____ _____    ______ ____
ROOT
ATOM      1  C   UNL     1      -2.731   5.750  -6.749  0.00  0.00    +0.031 C 
ATOM      2  C   UNL     1      -1.962   6.247  -5.568  0.00  0.00    -0.026 A 
ATOM      3  C   UNL     1      -0.794   5.580  -5.206  0.00  0.00    -0.029 A 
ATOM      4  C   UNL     1       0.043   5.082  -6.341  0.00  0.00    +0.030 C 
ATOM      5  C   UNL     1      -0.117   6.129  -4.167  0.00  0.00    -0.021 A 
ATOM      6  C   UNL     1      -0.802   6.737  -3.120  0.00  0.00    -0.004 A 
ATOM      7  C   UNL     1      -1.962   7.415  -3.471  0.00  0.00    -0.001 A 
ATOM      8  C   UNL     1      -2.563   7.137  -4.686  0.00  0.00    -0.005 A 
ENDROOT
BRANCH   5   9
ATOM      9  C   UNL     1       1.240   5.358  -3.685  0.00  0.00    +0.064 C 
ATOM     10  C   UNL     1       0.897   5.603  -2.070  0.00  0.00    +0.011 C 
BRANCH   9  11
ATOM     11  C   UNL     1       2.193   6.693  -3.750  0.00  0.00    +0.084 A 
ATOM     12  N   UNL     1       2.933   6.920  -4.852  0.00  0.00    -0.226 NA
ATOM     13  C   UNL     1       4.161   7.369  -4.498  0.00  0.00    +0.199 A 
ATOM     14  N   UNL     1       4.403   6.770  -3.307  0.00  0.00    -0.221 NA
ATOM     15  C   UNL     1       3.171   6.621  -2.757  0.00  0.00    +0.116 A 
ENDBRANCH   9  11
ENDBRANCH   5   9
TORSDOF 2
ENDMDL
MODEL 9
REMARK VINA RESULT:      -5.7      5.681      9.147
REMARK  Name = 
REMARK  2 active torsions:
REMARK  status: ('A' for Active; 'I' for Inactive)
REMARK    1  A    between atoms: C_6  and  C_7
REMARK    2  A    between atoms: C_7  and  C_9
REMARK                            x       y       z     vdW  Elec       q    Type
REMARK                         _______ _______ _______ _____ _____    ______ ____
ROOT
ATOM      1  C   UNL     1      -3.552   6.496  -2.638  0.00  0.00    +0.031 C 
ATOM      2  C   UNL     1      -2.077   6.272  -2.714  0.00  0.00    -0.026 A 
ATOM      3  C   UNL     1      -1.438   6.456  -3.937  0.00  0.00    -0.029 A 
ATOM      4  C   UNL     1      -1.949   7.590  -4.769  0.00  0.00    +0.030 C 
ATOM      5  C   UNL     1      -0.090   6.301  -3.913  0.00  0.00    -0.021 A 
ATOM      6  C   UNL     1       0.496   5.360  -3.073  0.00  0.00    -0.004 A 
ATOM      7  C   UNL     1      -0.125   5.177  -1.845  0.00  0.00    -0.001 A 
ATOM      8  C   UNL     1      -1.432   5.602  -1.681  0.00  0.00    -0.005 A 
ENDROOT
BRANCH   5   9
ATOM      9  C   UNL     1       0.695   6.471  -5.334  0.00  0.00    +0.064 C 
ATOM     10  C   UNL     1       0.501   4.859  -5.723  0.00  0.00    +0.011 C 
BRANCH   9  11
ATOM     11  C   UNL     1       2.188   6.204  -4.706  0.00  0.00    +0.084 A 
ATOM     12  N   UNL     1       2.986   7.255  -4.439  0.00  0.00    -0.226 NA
ATOM     13  C   UNL     1       4.260   6.971  -4.804  0.00  0.00    +0.199 A 
ATOM     14  N   UNL     1       4.123   6.136  -5.862  0.00  0.00    -0.221 NA
ATOM     15  C   UNL     1       2.960   5.482  -5.616  0.00  0.00    +0.116 A 
ENDBRANCH   9  11
ENDBRANCH   5   9
TORSDOF 2
ENDMDL
