MODEL 1
REMARK VINA RESULT:      -5.6      0.000      0.000
REMARK  Name = 
REMARK  3 active torsions:
REMARK  status: ('A' for Active; 'I' for Inactive)
REMARK    1  A    between atoms: C_2  and  O_4
REMARK    2  A    between atoms: O_4  and  C_5
REMARK    3  A    between atoms: C_10  and  C_11
REMARK                            x       y       z     vdW  Elec       q    Type
REMARK                         _______ _______ _______ _____ _____    ______ ____
ROOT
ATOM      1  C   UNL     1       0.464   5.710  -7.508  0.00  0.00    +0.155 A 
ATOM      2  C   UNL     1       1.038   6.567  -6.578  0.00  0.00    +0.114 A 
ATOM      3  C   UNL     1       0.339   6.870  -5.415  0.00  0.00    +0.010 A 
ATOM      4  C   UNL     1      -0.970   6.446  -5.225  0.00  0.00    +0.000 A 
ATOM      5  C   UNL     1      -1.633   5.984  -6.355  0.00  0.00    +0.003 A 
ATOM      6  C   UNL     1      -0.835   5.287  -7.253  0.00  0.00    +0.038 A 
ENDROOT
BRANCH   2   7
ATOM      7  C   UNL     1       2.198   7.377  -6.951  0.00  0.00    +0.391 C 
ATOM      8  O   UNL     1       2.011   8.370  -7.904  0.00  0.00    -0.240 OA
ATOM      9  O   UNL     1       3.246   7.293  -6.241  0.00  0.00    -0.240 OA
ENDBRANCH   2   7
BRANCH   1  10
ATOM     10  O   UNL     1       1.153   5.341  -8.660  0.00  0.00    -0.424 OA
BRANCH  10  12
ATOM     11  C   UNL     1       0.091   4.457 -10.773  0.00  0.00    +0.122 C 
ATOM     12  C   UNL     1       0.518   5.577  -9.883  0.00  0.00    +0.322 C 
ATOM     13  O   UNL     1       0.453   6.772 -10.282  0.00  0.00    -0.250 OA
ENDBRANCH  10  12
ENDBRANCH   1  10
TORSDOF 3
ENDMDL
MODEL 2
REMARK VINA RESULT:      -5.3      3.231      5.053
REMARK  Name = 
REMARK  3 active torsions:
REMARK  status: ('A' for Active; 'I' for Inactive)
REMARK    1  A    between atoms: C_2  and  O_4
REMARK    2  A    between atoms: O_4  and  C_5
REMARK    3  A    between atoms: C_10  and  C_11
REMARK                            x       y       z     vdW  Elec       q    Type
REMARK                         _______ _______ _______ _____ _____    ______ ____
ROOT
ATOM      1  C   UNL     1      -1.141   6.359  -4.735  0.00  0.00    +0.155 A 
ATOM      2  C   UNL     1       0.204   6.288  -5.072  0.00  0.00    +0.114 A 
ATOM      3  C   UNL     1       0.558   5.963  -6.376  0.00  0.00    +0.010 A 
ATOM      4  C   UNL     1      -0.394   5.578  -7.312  0.00  0.00    +0.000 A 
ATOM      5  C   UNL     1      -1.644   5.240  -6.808  0.00  0.00    +0.003 A 
ATOM      6  C   UNL     1      -2.055   5.996  -5.717  0.00  0.00    +0.038 A 
ENDROOT
BRANCH   2   7
ATOM      7  C   UNL     1       1.219   6.241  -4.018  0.00  0.00    +0.391 C 
ATOM      8  O   UNL     1       1.173   5.176  -3.127  0.00  0.00    -0.240 OA
ATOM      9  O   UNL     1       2.208   7.030  -4.099  0.00  0.00    -0.240 OA
ENDBRANCH   2   7
BRANCH   1  10
ATOM     10  O   UNL     1      -1.538   6.731  -3.454  0.00  0.00    -0.424 OA
BRANCH  10  12
ATOM     11  C   UNL     1      -3.899   6.512  -2.585  0.00  0.00    +0.122 C 
ATOM     12  C   UNL     1      -2.537   5.962  -2.849  0.00  0.00    +0.322 C 
ATOM     13  O   UNL     1      -2.204   4.832  -2.394  0.00  0.00    -0.250 OA
ENDBRANCH  10  12
ENDBRANCH   1  10
TORSDOF 3
ENDMDL
MODEL 3
REMARK VINA RESULT:      -5.3      1.463      2.162
REMARK  Name = 
REMARK  3 active torsions:
REMARK  status: ('A' for Active; 'I' for Inactive)
REMARK    1  A    between atoms: C_2  and  O_4
REMARK    2  A    between atoms: O_4  and  C_5
REMARK    3  A    between atoms: C_10  and  C_11
REMARK                            x       y       z     vdW  Elec       q    Type
REMARK                         _______ _______ _______ _____ _____    ______ ____
ROOT
ATOM      1  C   UNL     1       0.508   5.628  -7.278  0.00  0.00    +0.155 A 
ATOM      2  C   UNL     1       0.935   6.653  -6.443  0.00  0.00    +0.114 A 
ATOM      3  C   UNL     1       0.116   7.056  -5.395  0.00  0.00    +0.010 A 
ATOM      4  C   UNL     1      -1.170   6.553  -5.244  0.00  0.00    +0.000 A 
ATOM      5  C   UNL     1      -1.696   5.883  -6.341  0.00  0.00    +0.003 A 
ATOM      6  C   UNL     1      -0.774   5.136  -7.063  0.00  0.00    +0.038 A 
ENDROOT
BRANCH   2   7
ATOM      7  C   UNL     1       2.061   7.498  -6.842  0.00  0.00    +0.391 C 
ATOM      8  O   UNL     1       3.279   7.289  -6.208  0.00  0.00    -0.240 OA
ATOM      9  O   UNL     1       1.940   8.211  -7.884  0.00  0.00    -0.240 OA
ENDBRANCH   2   7
BRANCH   1  10
ATOM     10  O   UNL     1       1.321   5.160  -8.307  0.00  0.00    -0.424 OA
BRANCH  10  12
ATOM     11  C   UNL     1       3.576   4.144  -8.816  0.00  0.00    +0.122 C 
ATOM     12  C   UNL     1       2.370   4.308  -7.950  0.00  0.00    +0.322 C 
ATOM     13  O   UNL     1       2.199   3.564  -6.945  0.00  0.00    -0.250 OA
ENDBRANCH  10  12
ENDBRANCH   1  10
TORSDOF 3
ENDMDL
MODEL 4
REMARK VINA RESULT:      -5.3      3.296      5.211
REMARK  Name = 
REMARK  3 active torsions:
REMARK  status: ('A' for Active; 'I' for Inactive)
REMARK    1  A    between atoms: C_2  and  O_4
REMARK    2  A    between atoms: O_4  and  C_5
REMARK    3  A    between atoms: C_10  and  C_11
REMARK                            x       y       z     vdW  Elec       q    Type
REMARK                         _______ _______ _______ _____ _____    ______ ____
ROOT
ATOM      1  C   UNL     1      -0.226   6.217  -4.803  0.00  0.00    +0.155 A 
ATOM      2  C   UNL     1      -1.565   6.579  -4.737  0.00  0.00    +0.114 A 
ATOM      3  C   UNL     1      -2.449   6.074  -5.684  0.00  0.00    +0.010 A 
ATOM      4  C   UNL     1      -2.003   5.327  -6.768  0.00  0.00    +0.000 A 
ATOM      5  C   UNL     1      -0.638   5.376  -7.022  0.00  0.00    +0.003 A 
ATOM      6  C   UNL     1       0.162   5.441  -5.888  0.00  0.00    +0.038 A 
ENDROOT
BRANCH   2   7
ATOM      7  C   UNL     1      -1.977   7.704  -3.897  0.00  0.00    +0.391 C 
ATOM      8  O   UNL     1      -2.195   7.454  -2.548  0.00  0.00    -0.240 OA
ATOM      9  O   UNL     1      -1.897   8.875  -4.377  0.00  0.00    -0.240 OA
ENDBRANCH   2   7
BRANCH   1  10
ATOM     10  O   UNL     1       0.681   6.659  -3.844  0.00  0.00    -0.424 OA
BRANCH  10  12
ATOM     11  C   UNL     1       0.389   5.065  -1.907  0.00  0.00    +0.122 C 
ATOM     12  C   UNL     1       1.213   5.696  -2.981  0.00  0.00    +0.322 C 
ATOM     13  O   UNL     1       2.456   5.486  -3.039  0.00  0.00    -0.250 OA
ENDBRANCH  10  12
ENDBRANCH   1  10
TORSDOF 3
ENDMDL
MODEL 5
REMARK VINA RESULT:      -5.3      3.043      5.371
REMARK  Name = 
REMARK  3 active torsions:
REMARK  status: ('A' for Active; 'I' for Inactive)
REMARK    1  A    between atoms: C_2  and  O_4
REMARK    2  A    between atoms: O_4  and  C_5
REMARK    3  A    between atoms: C_10  and  C_11
REMARK                            x       y       z     vdW  Elec       q    Type
REMARK                         _______ _______ _______ _____ _____    ______ ____
ROOT
ATOM      1  C   UNL     1       3.826   5.521  -8.028  0.00  0.00    +0.155 A 
ATOM      2  C   UNL     1       3.352   6.387  -9.004  0.00  0.00    +0.114 A 
ATOM      3  C   UNL     1       4.153   6.669 -10.105  0.00  0.00    +0.010 A 
ATOM      4  C   UNL     1       5.463   6.212 -10.185  0.00  0.00    +0.000 A 
ATOM      5  C   UNL     1       6.017   5.740  -9.002  0.00  0.00    +0.003 A 
ATOM      6  C   UNL     1       5.131   5.066  -8.173  0.00  0.00    +0.038 A 
ENDROOT
BRANCH   2   7
ATOM      7  C   UNL     1       2.185   7.226  -8.731  0.00  0.00    +0.391 C 
ATOM      8  O   UNL     1       2.354   8.307  -7.875  0.00  0.00    -0.240 OA
ATOM      9  O   UNL     1       1.150   7.071  -9.448  0.00  0.00    -0.240 OA
ENDBRANCH   2   7
BRANCH   1  10
ATOM     10  O   UNL     1       3.035   5.173  -6.937  0.00  0.00    -0.424 OA
BRANCH  10  12
ATOM     11  C   UNL     1       4.049   6.828  -5.322  0.00  0.00    +0.122 C 
ATOM     12  C   UNL     1       3.540   5.467  -5.667  0.00  0.00    +0.322 C 
ATOM     13  O   UNL     1       3.693   4.505  -4.865  0.00  0.00    -0.250 OA
ENDBRANCH  10  12
ENDBRANCH   1  10
TORSDOF 3
ENDMDL
MODEL 6
REMARK VINA RESULT:      -5.1      2.187      4.313
REMARK  Name = 
REMARK  3 active torsions:
REMARK  status: ('A' for Active; 'I' for Inactive)
REMARK    1  A    between atoms: C_2  and  O_4
REMARK    2  A    between atoms: O_4  and  C_5
REMARK    3  A    between atoms: C_10  and  C_11
REMARK                            x       y       z     vdW  Elec       q    Type
REMARK                         _______ _______ _______ _____ _____    ______ ____
ROOT
ATOM      1  C   UNL     1       0.290   6.646  -5.568  0.00  0.00    +0.155 A 
ATOM      2  C   UNL     1      -0.016   5.636  -6.470  0.00  0.00    +0.114 A 
ATOM      3  C   UNL     1      -1.349   5.385  -6.778  0.00  0.00    +0.010 A 
ATOM      4  C   UNL     1      -2.382   6.027  -6.106  0.00  0.00    +0.000 A 
ATOM      5  C   UNL     1      -2.032   6.680  -4.930  0.00  0.00    +0.003 A 
ATOM      6  C   UNL     1      -0.780   7.281  -4.949  0.00  0.00    +0.038 A 
ENDROOT
BRANCH   2   7
ATOM      7  C   UNL     1       1.004   4.656  -6.843  0.00  0.00    +0.391 C 
ATOM      8  O   UNL     1       1.805   4.946  -7.940  0.00  0.00    -0.240 OA
ATOM      9  O   UNL     1       1.260   3.715  -6.032  0.00  0.00    -0.240 OA
ENDBRANCH   2   7
BRANCH   1  10
ATOM     10  O   UNL     1       1.613   6.964  -5.273  0.00  0.00    -0.424 OA
BRANCH  10  12
ATOM     11  C   UNL     1       3.200   7.427  -3.365  0.00  0.00    +0.122 C 
ATOM     12  C   UNL     1       2.060   6.683  -3.979  0.00  0.00    +0.322 C 
ATOM     13  O   UNL     1       1.567   5.676  -3.399  0.00  0.00    -0.250 OA
ENDBRANCH  10  12
ENDBRANCH   1  10
TORSDOF 3
ENDMDL
MODEL 7
REMARK VINA RESULT:      -5.0      2.694      4.105
REMARK  Name = 
REMARK  3 active torsions:
REMARK  status: ('A' for Active; 'I' for Inactive)
REMARK    1  A    between atoms: C_2  and  O_4
REMARK    2  A    between atoms: O_4  and  C_5
REMARK    3  A    between atoms: C_10  and  C_11
REMARK                            x       y       z     vdW  Elec       q    Type
REMARK                         _______ _______ _______ _____ _____    ______ ____
ROOT
ATOM      1  C   UNL     1       2.800   6.292  -9.915  0.00  0.00    +0.155 A 
ATOM      2  C   UNL     1       2.003   6.401  -8.783  0.00  0.00    +0.114 A 
ATOM      3  C   UNL     1       0.725   5.855  -8.801  0.00  0.00    +0.010 A 
ATOM      4  C   UNL     1       0.179   5.324  -9.963  0.00  0.00    +0.000 A 
ATOM      5  C   UNL     1       0.835   5.642 -11.146  0.00  0.00    +0.003 A 
ATOM      6  C   UNL     1       2.218   5.722 -11.041  0.00  0.00    +0.038 A 
ENDROOT
BRANCH   2   7
ATOM      7  C   UNL     1       2.371   7.336  -7.719  0.00  0.00    +0.391 C 
ATOM      8  O   UNL     1       3.179   6.859  -6.694  0.00  0.00    -0.240 OA
ATOM      9  O   UNL     1       2.132   8.569  -7.891  0.00  0.00    -0.240 OA
ENDBRANCH   2   7
BRANCH   1  10
ATOM     10  O   UNL     1       4.104   6.779  -9.920  0.00  0.00    -0.424 OA
BRANCH  10  12
ATOM     11  C   UNL     1       5.650   5.274  -8.609  0.00  0.00    +0.122 C 
ATOM     12  C   UNL     1       5.135   5.835  -9.893  0.00  0.00    +0.322 C 
ATOM     13  O   UNL     1       5.722   5.585 -10.982  0.00  0.00    -0.250 OA
ENDBRANCH  10  12
ENDBRANCH   1  10
TORSDOF 3
ENDMDL
MODEL 8
REMARK VINA RESULT:      -5.0      5.629      7.222
REMARK  Name = 
REMARK  3 active torsions:
REMARK  status: ('A' for Active; 'I' for Inactive)
REMARK    1  A    between atoms: C_2  and  O_4
REMARK    2  A    between atoms: O_4  and  C_5
REMARK    3  A    between atoms: C_10  and  C_11
REMARK                            x       y       z     vdW  Elec       q    Type
REMARK                         _______ _______ _______ _____ _____    ______ ____
ROOT
ATOM      1  C   UNL     1       5.924   5.350 -12.388  0.00  0.00    +0.155 A 
ATOM      2  C   UNL     1       5.583   5.951 -11.184  0.00  0.00    +0.114 A 
ATOM      3  C   UNL     1       6.566   6.609 -10.454  0.00  0.00    +0.010 A 
ATOM      4  C   UNL     1       7.902   6.563 -10.832  0.00  0.00    +0.000 A 
ATOM      5  C   UNL     1       8.238   5.595 -11.770  0.00  0.00    +0.003 A 
ATOM      6  C   UNL     1       7.269   5.361 -12.737  0.00  0.00    +0.038 A 
ENDROOT
BRANCH   2   7
ATOM      7  C   UNL     1       4.305   5.633 -10.545  0.00  0.00    +0.391 C 
ATOM      8  O   UNL     1       4.281   4.575  -9.645  0.00  0.00    -0.240 OA
ATOM      9  O   UNL     1       3.350   6.459 -10.664  0.00  0.00    -0.240 OA
ENDBRANCH   2   7
BRANCH   1  10
ATOM     10  O   UNL     1       4.958   4.726 -13.174  0.00  0.00    -0.424 OA
BRANCH  10  12
ATOM     11  C   UNL     1       2.666   5.411 -13.982  0.00  0.00    +0.122 C 
ATOM     12  C   UNL     1       4.152   5.552 -13.964  0.00  0.00    +0.322 C 
ATOM     13  O   UNL     1       4.732   6.322 -14.779  0.00  0.00    -0.250 OA
ENDBRANCH  10  12
ENDBRANCH   1  10
TORSDOF 3
ENDMDL
MODEL 9
REMARK VINA RESULT:      -5.0      1.365      3.733
REMARK  Name = 
REMARK  3 active torsions:
REMARK  status: ('A' for Active; 'I' for Inactive)
REMARK    1  A    between atoms: C_2  and  O_4
REMARK    2  A    between atoms: O_4  and  C_5
REMARK    3  A    between atoms: C_10  and  C_11
REMARK                            x       y       z     vdW  Elec       q    Type
REMARK                         _______ _______ _______ _____ _____    ______ ____
ROOT
ATOM      1  C   UNL     1       1.371   6.782  -6.857  0.00  0.00    +0.155 A 
ATOM      2  C   UNL     1       0.934   6.095  -7.982  0.00  0.00    +0.114 A 
ATOM      3  C   UNL     1      -0.316   5.488  -7.961  0.00  0.00    +0.010 A 
ATOM      4  C   UNL     1      -1.079   5.438  -6.801  0.00  0.00    +0.000 A 
ATOM      5  C   UNL     1      -0.413   5.740  -5.619  0.00  0.00    +0.003 A 
ATOM      6  C   UNL     1       0.555   6.730  -5.734  0.00  0.00    +0.038 A 
ENDROOT
BRANCH   2   7
ATOM      7  C   UNL     1       1.885   5.747  -9.039  0.00  0.00    +0.391 C 
ATOM      8  O   UNL     1       2.400   4.457  -9.043  0.00  0.00    -0.240 OA
ATOM      9  O   UNL     1       2.019   6.546 -10.015  0.00  0.00    -0.240 OA
ENDBRANCH   2   7
BRANCH   1  10
ATOM     10  O   UNL     1       2.594   7.447  -6.856  0.00  0.00    -0.424 OA
BRANCH  10  12
ATOM     11  C   UNL     1       4.079   5.551  -6.099  0.00  0.00    +0.122 C 
ATOM     12  C   UNL     1       3.583   6.956  -6.000  0.00  0.00    +0.322 C 
ATOM     13  O   UNL     1       3.938   7.693  -5.038  0.00  0.00    -0.250 OA
ENDBRANCH  10  12
ENDBRANCH   1  10
TORSDOF 3
ENDMDL
