MODEL 1
REMARK VINA RESULT:      -7.6      0.000      0.000
REMARK  Name = 
REMARK  5 active torsions:
REMARK  status: ('A' for Active; 'I' for Inactive)
REMARK    1  A    between atoms: C_8  and  O_9
REMARK    2  A    between atoms: O_9  and  C_10
REMARK    3  A    between atoms: C_10  and  C_12
REMARK    4  A    between atoms: C_12  and  C_13
REMARK    5  A    between atoms: C_12  and  C_15
REMARK                            x       y       z     vdW  Elec       q    Type
REMARK                         _______ _______ _______ _____ _____    ______ ____
ROOT
ATOM      1  C   UNL     1       2.965   6.583  -8.392  0.00  0.00    +0.323 C 
ATOM      2  O   UNL     1       2.565   7.725  -8.525  0.00  0.00    -0.250 OA
ENDROOT
BRANCH   1   3
ATOM      3  O   UNL     1       2.643   6.027  -7.229  0.00  0.00    -0.452 OA
BRANCH   3   8
ATOM      4  C   UNL     1       3.388   7.848  -2.795  0.00  0.00    +0.090 C 
ATOM      5  N   UNL     1       3.399   7.403  -3.810  0.00  0.00    -0.274 NA
ATOM      6  C   UNL     1       4.761   7.537  -4.535  0.00  0.00    +0.061 C 
ATOM      7  C   UNL     1       4.473   6.484  -5.782  0.00  0.00    +0.060 C 
ATOM      8  C   UNL     1       2.861   6.797  -5.917  0.00  0.00    +0.172 C 
ATOM      9  C   UNL     1       2.532   5.503  -4.968  0.00  0.00    +0.060 C 
ATOM     10  C   UNL     1       5.473   6.482  -3.496  0.00  0.00    +0.017 C 
ATOM     11  C   UNL     1       4.688   5.339  -3.853  0.00  0.00    +0.017 C 
ATOM     12  C   UNL     1       3.185   5.895  -3.509  0.00  0.00    +0.061 C 
ENDBRANCH   3   8
ENDBRANCH   1   3
BRANCH   1  13
ATOM     13  C   UNL     1       3.192   5.721  -9.722  0.00  0.00    +0.154 C 
BRANCH  13  14
ATOM     14  C   UNL     1       4.702   6.223  -9.937  0.00  0.00    -0.009 A 
ATOM     15  C   UNL     1       5.661   5.604  -9.163  0.00  0.00    -0.004 A 
ATOM     16  C   UNL     1       6.996   5.839  -9.475  0.00  0.00    -0.000 A 
ATOM     17  C   UNL     1       7.308   6.735 -10.489  0.00  0.00    -0.000 A 
ATOM     18  C   UNL     1       6.327   7.542 -10.999  0.00  0.00    -0.000 A 
ATOM     19  C   UNL     1       5.019   7.254 -10.692  0.00  0.00    -0.004 A 
ENDBRANCH  13  14
BRANCH  13  20
ATOM     20  C   UNL     1       3.593   4.400  -8.832  0.00  0.00    +0.198 C 
ATOM     21  O   UNL     1       2.478   3.643  -8.926  0.00  0.00    -0.219 OA
ENDBRANCH  13  20
ENDBRANCH   1  13
TORSDOF 5
ENDMDL
MODEL 2
REMARK VINA RESULT:      -7.4      0.727      1.337
REMARK  Name = 
REMARK  5 active torsions:
REMARK  status: ('A' for Active; 'I' for Inactive)
REMARK    1  A    between atoms: C_8  and  O_9
REMARK    2  A    between atoms: O_9  and  C_10
REMARK    3  A    between atoms: C_10  and  C_12
REMARK    4  A    between atoms: C_12  and  C_13
REMARK    5  A    between atoms: C_12  and  C_15
REMARK                            x       y       z     vdW  Elec       q    Type
REMARK                         _______ _______ _______ _____ _____    ______ ____
ROOT
ATOM      1  C   UNL     1       3.119   7.029  -8.351  0.00  0.00    +0.323 C 
ATOM      2  O   UNL     1       2.584   8.117  -8.241  0.00  0.00    -0.250 OA
ENDROOT
BRANCH   1   3
ATOM      3  O   UNL     1       3.152   6.324  -7.226  0.00  0.00    -0.452 OA
BRANCH   3   8
ATOM      4  C   UNL     1       4.070   8.057  -2.789  0.00  0.00    +0.090 C 
ATOM      5  N   UNL     1       3.946   7.510  -3.745  0.00  0.00    -0.274 NA
ATOM      6  C   UNL     1       5.016   6.414  -3.978  0.00  0.00    +0.061 C 
ATOM      7  C   UNL     1       4.291   5.641  -5.253  0.00  0.00    +0.060 C 
ATOM      8  C   UNL     1       3.601   6.985  -5.913  0.00  0.00    +0.172 C 
ATOM      9  C   UNL     1       2.202   6.648  -5.129  0.00  0.00    +0.060 C 
ATOM     10  C   UNL     1       4.403   5.489  -2.765  0.00  0.00    +0.017 C 
ATOM     11  C   UNL     1       3.125   5.251  -3.366  0.00  0.00    +0.017 C 
ATOM     12  C   UNL     1       2.587   6.789  -3.536  0.00  0.00    +0.061 C 
ENDBRANCH   3   8
ENDBRANCH   1   3
BRANCH   1  13
ATOM     13  C   UNL     1       3.095   6.339  -9.796  0.00  0.00    +0.154 C 
BRANCH  13  14
ATOM     14  C   UNL     1       4.690   6.394  -9.982  0.00  0.00    -0.009 A 
ATOM     15  C   UNL     1       5.158   7.291 -10.918  0.00  0.00    -0.004 A 
ATOM     16  C   UNL     1       6.526   7.539 -10.951  0.00  0.00    -0.000 A 
ATOM     17  C   UNL     1       7.365   6.826 -10.106  0.00  0.00    -0.000 A 
ATOM     18  C   UNL     1       6.876   5.739  -9.432  0.00  0.00    -0.000 A 
ATOM     19  C   UNL     1       5.514   5.551  -9.397  0.00  0.00    -0.004 A 
ENDBRANCH  13  14
BRANCH  13  20
ATOM     20  C   UNL     1       3.070   4.845  -9.114  0.00  0.00    +0.198 C 
ATOM     21  O   UNL     1       1.847   4.392  -9.464  0.00  0.00    -0.219 OA
ENDBRANCH  13  20
ENDBRANCH   1  13
TORSDOF 5
ENDMDL
MODEL 3
REMARK VINA RESULT:      -7.4      2.272      6.082
REMARK  Name = 
REMARK  5 active torsions:
REMARK  status: ('A' for Active; 'I' for Inactive)
REMARK    1  A    between atoms: C_8  and  O_9
REMARK    2  A    between atoms: O_9  and  C_10
REMARK    3  A    between atoms: C_10  and  C_12
REMARK    4  A    between atoms: C_12  and  C_13
REMARK    5  A    between atoms: C_12  and  C_15
REMARK                            x       y       z     vdW  Elec       q    Type
REMARK                         _______ _______ _______ _____ _____    ______ ____
ROOT
ATOM      1  C   UNL     1       3.457   4.937  -8.084  0.00  0.00    +0.323 C 
ATOM      2  O   UNL     1       3.241   3.944  -8.755  0.00  0.00    -0.250 OA
ENDROOT
BRANCH   1   3
ATOM      3  O   UNL     1       4.393   5.737  -8.584  0.00  0.00    -0.452 OA
BRANCH   3   8
ATOM      4  C   UNL     1       6.423   5.450 -12.980  0.00  0.00    +0.090 C 
ATOM      5  N   UNL     1       6.130   5.548 -11.916  0.00  0.00    -0.274 NA
ATOM      6  C   UNL     1       7.274   5.228 -10.923  0.00  0.00    +0.061 C 
ATOM      7  C   UNL     1       6.566   5.819  -9.545  0.00  0.00    +0.060 C 
ATOM      8  C   UNL     1       5.017   5.433  -9.955  0.00  0.00    +0.172 C 
ATOM      9  C   UNL     1       4.792   6.953 -10.524  0.00  0.00    +0.060 C 
ATOM     10  C   UNL     1       8.099   6.580 -11.361  0.00  0.00    +0.017 C 
ATOM     11  C   UNL     1       7.124   7.525 -10.906  0.00  0.00    +0.017 C 
ATOM     12  C   UNL     1       5.828   7.066 -11.797  0.00  0.00    +0.061 C 
ENDBRANCH   3   8
ENDBRANCH   1   3
BRANCH   1  13
ATOM     13  C   UNL     1       2.263   5.482  -7.168  0.00  0.00    +0.154 C 
BRANCH  13  14
ATOM     14  C   UNL     1       3.218   5.855  -5.932  0.00  0.00    -0.009 A 
ATOM     15  C   UNL     1       3.598   4.804  -5.123  0.00  0.00    -0.004 A 
ATOM     16  C   UNL     1       4.600   5.036  -4.187  0.00  0.00    -0.000 A 
ATOM     17  C   UNL     1       5.117   6.318  -4.051  0.00  0.00    -0.000 A 
ATOM     18  C   UNL     1       4.483   7.368  -4.659  0.00  0.00    -0.000 A 
ATOM     19  C   UNL     1       3.522   7.092  -5.602  0.00  0.00    -0.004 A 
ENDBRANCH  13  14
BRANCH  13  20
ATOM     20  C   UNL     1       2.348   6.958  -7.882  0.00  0.00    +0.198 C 
ATOM     21  O   UNL     1       1.395   6.870  -8.835  0.00  0.00    -0.219 OA
ENDBRANCH  13  20
ENDBRANCH   1  13
TORSDOF 5
ENDMDL
MODEL 4
REMARK VINA RESULT:      -7.3      3.319      4.917
REMARK  Name = 
REMARK  5 active torsions:
REMARK  status: ('A' for Active; 'I' for Inactive)
REMARK    1  A    between atoms: C_8  and  O_9
REMARK    2  A    between atoms: O_9  and  C_10
REMARK    3  A    between atoms: C_10  and  C_12
REMARK    4  A    between atoms: C_12  and  C_13
REMARK    5  A    between atoms: C_12  and  C_15
REMARK                            x       y       z     vdW  Elec       q    Type
REMARK                         _______ _______ _______ _____ _____    ______ ____
ROOT
ATOM      1  C   UNL     1       2.425   5.123  -5.339  0.00  0.00    +0.323 C 
ATOM      2  O   UNL     1       2.025   4.040  -5.727  0.00  0.00    -0.250 OA
ENDROOT
BRANCH   1   3
ATOM      3  O   UNL     1       1.689   5.657  -4.371  0.00  0.00    -0.452 OA
BRANCH   3   8
ATOM      4  C   UNL     1      -3.104   5.255  -3.745  0.00  0.00    +0.090 C 
ATOM      5  N   UNL     1      -2.052   5.464  -4.022  0.00  0.00    -0.274 NA
ATOM      6  C   UNL     1      -1.875   5.930  -5.489  0.00  0.00    +0.061 C 
ATOM      7  C   UNL     1      -0.307   6.459  -5.384  0.00  0.00    +0.060 C 
ATOM      8  C   UNL     1       0.188   5.343  -4.277  0.00  0.00    +0.172 C 
ATOM      9  C   UNL     1      -0.081   6.422  -3.073  0.00  0.00    +0.060 C 
ATOM     10  C   UNL     1      -2.625   7.359  -5.176  0.00  0.00    +0.017 C 
ATOM     11  C   UNL     1      -1.658   7.855  -4.244  0.00  0.00    +0.017 C 
ATOM     12  C   UNL     1      -1.707   6.673  -3.110  0.00  0.00    +0.061 C 
ENDBRANCH   3   8
ENDBRANCH   1   3
BRANCH   1  13
ATOM     13  C   UNL     1       3.987   5.434  -5.502  0.00  0.00    +0.154 C 
BRANCH  13  14
ATOM     14  C   UNL     1       3.846   5.978  -7.007  0.00  0.00    -0.009 A 
ATOM     15  C   UNL     1       4.755   5.479  -7.916  0.00  0.00    -0.004 A 
ATOM     16  C   UNL     1       4.531   5.739  -9.264  0.00  0.00    -0.000 A 
ATOM     17  C   UNL     1       3.461   6.545  -9.631  0.00  0.00    -0.000 A 
ATOM     18  C   UNL     1       2.793   7.255  -8.670  0.00  0.00    -0.000 A 
ATOM     19  C   UNL     1       3.020   6.942  -7.351  0.00  0.00    -0.004 A 
ENDBRANCH  13  14
BRANCH  13  20
ATOM     20  C   UNL     1       3.799   6.901  -4.788  0.00  0.00    +0.198 C 
ATOM     21  O   UNL     1       5.066   7.214  -4.441  0.00  0.00    -0.219 OA
ENDBRANCH  13  20
ENDBRANCH   1  13
TORSDOF 5
ENDMDL
MODEL 5
REMARK VINA RESULT:      -7.3      4.498      6.980
REMARK  Name = 
REMARK  5 active torsions:
REMARK  status: ('A' for Active; 'I' for Inactive)
REMARK    1  A    between atoms: C_8  and  O_9
REMARK    2  A    between atoms: O_9  and  C_10
REMARK    3  A    between atoms: C_10  and  C_12
REMARK    4  A    between atoms: C_12  and  C_13
REMARK    5  A    between atoms: C_12  and  C_15
REMARK                            x       y       z     vdW  Elec       q    Type
REMARK                         _______ _______ _______ _____ _____    ______ ____
ROOT
ATOM      1  C   UNL     1       2.242   5.271  -1.371  0.00  0.00    +0.323 C 
ATOM      2  O   UNL     1       1.707   4.364  -0.761  0.00  0.00    -0.250 OA
ENDROOT
BRANCH   1   3
ATOM      3  O   UNL     1       1.392   6.108  -1.955  0.00  0.00    -0.452 OA
BRANCH   3   8
ATOM      4  C   UNL     1      -3.077   5.090  -3.544  0.00  0.00    +0.090 C 
ATOM      5  N   UNL     1      -2.037   5.414  -3.338  0.00  0.00    -0.274 NA
ATOM      6  C   UNL     1      -1.214   5.713  -4.616  0.00  0.00    +0.061 C 
ATOM      7  C   UNL     1       0.072   6.475  -3.899  0.00  0.00    +0.060 C 
ATOM      8  C   UNL     1       0.055   5.592  -2.508  0.00  0.00    +0.172 C 
ATOM      9  C   UNL     1      -0.831   6.762  -1.779  0.00  0.00    +0.060 C 
ATOM     10  C   UNL     1      -2.120   7.044  -4.946  0.00  0.00    +0.017 C 
ATOM     11  C   UNL     1      -1.753   7.790  -3.780  0.00  0.00    +0.017 C 
ATOM     12  C   UNL     1      -2.255   6.764  -2.604  0.00  0.00    +0.061 C 
ENDBRANCH   3   8
ENDBRANCH   1   3
BRANCH   1  13
ATOM     13  C   UNL     1       3.699   5.726  -0.887  0.00  0.00    +0.154 C 
BRANCH  13  14
ATOM     14  C   UNL     1       4.196   6.130  -2.360  0.00  0.00    -0.009 A 
ATOM     15  C   UNL     1       4.349   5.090  -3.252  0.00  0.00    -0.004 A 
ATOM     16  C   UNL     1       4.552   5.408  -4.590  0.00  0.00    -0.000 A 
ATOM     17  C   UNL     1       4.669   6.742  -4.960  0.00  0.00    -0.000 A 
ATOM     18  C   UNL     1       4.819   7.698  -3.992  0.00  0.00    -0.000 A 
ATOM     19  C   UNL     1       4.576   7.347  -2.685  0.00  0.00    -0.004 A 
ENDBRANCH  13  14
BRANCH  13  20
ATOM     20  C   UNL     1       3.135   7.219  -0.498  0.00  0.00    +0.198 C 
ATOM     21  O   UNL     1       2.977   7.126   0.840  0.00  0.00    -0.219 OA
ENDBRANCH  13  20
ENDBRANCH   1  13
TORSDOF 5
ENDMDL
MODEL 6
REMARK VINA RESULT:      -7.2      3.306      5.093
REMARK  Name = 
REMARK  5 active torsions:
REMARK  status: ('A' for Active; 'I' for Inactive)
REMARK    1  A    between atoms: C_8  and  O_9
REMARK    2  A    between atoms: O_9  and  C_10
REMARK    3  A    between atoms: C_10  and  C_12
REMARK    4  A    between atoms: C_12  and  C_13
REMARK    5  A    between atoms: C_12  and  C_15
REMARK                            x       y       z     vdW  Elec       q    Type
REMARK                         _______ _______ _______ _____ _____    ______ ____
ROOT
ATOM      1  C   UNL     1       1.985   4.364  -7.052  0.00  0.00    +0.323 C 
ATOM      2  O   UNL     1       2.092   3.287  -6.494  0.00  0.00    -0.250 OA
ENDROOT
BRANCH   1   3
ATOM      3  O   UNL     1       1.548   5.342  -6.265  0.00  0.00    -0.452 OA
BRANCH   3   8
ATOM      4  C   UNL     1      -2.328   5.344  -3.348  0.00  0.00    +0.090 C 
ATOM      5  N   UNL     1      -1.545   5.447  -4.126  0.00  0.00    -0.274 NA
ATOM      6  C   UNL     1      -2.106   5.727  -5.542  0.00  0.00    +0.061 C 
ATOM      7  C   UNL     1      -0.686   6.156  -6.282  0.00  0.00    +0.060 C 
ATOM      8  C   UNL     1       0.284   5.144  -5.415  0.00  0.00    +0.172 C 
ATOM      9  C   UNL     1       0.642   6.370  -4.388  0.00  0.00    +0.060 C 
ATOM     10  C   UNL     1      -2.603   7.230  -5.100  0.00  0.00    +0.017 C 
ATOM     11  C   UNL     1      -1.302   7.764  -4.829  0.00  0.00    +0.017 C 
ATOM     12  C   UNL     1      -0.794   6.726  -3.667  0.00  0.00    +0.061 C 
ENDBRANCH   3   8
ENDBRANCH   1   3
BRANCH   1  13
ATOM     13  C   UNL     1       2.927   4.637  -8.317  0.00  0.00    +0.154 C 
BRANCH  13  14
ATOM     14  C   UNL     1       1.718   5.076  -9.278  0.00  0.00    -0.009 A 
ATOM     15  C   UNL     1       1.485   6.431  -9.374  0.00  0.00    -0.004 A 
ATOM     16  C   UNL     1       0.608   6.870 -10.362  0.00  0.00    -0.000 A 
ATOM     17  C   UNL     1      -0.048   5.934 -11.150  0.00  0.00    -0.000 A 
ATOM     18  C   UNL     1      -0.010   4.612 -10.797  0.00  0.00    -0.000 A 
ATOM     19  C   UNL     1       0.894   4.217  -9.840  0.00  0.00    -0.004 A 
ENDBRANCH  13  14
BRANCH  13  20
ATOM     20  C   UNL     1       3.259   6.153  -7.780  0.00  0.00    +0.198 C 
ATOM     21  O   UNL     1       4.513   6.018  -7.298  0.00  0.00    -0.219 OA
ENDBRANCH  13  20
ENDBRANCH   1  13
TORSDOF 5
ENDMDL
MODEL 7
REMARK VINA RESULT:      -7.1      3.327      5.449
REMARK  Name = 
REMARK  5 active torsions:
REMARK  status: ('A' for Active; 'I' for Inactive)
REMARK    1  A    between atoms: C_8  and  O_9
REMARK    2  A    between atoms: O_9  and  C_10
REMARK    3  A    between atoms: C_10  and  C_12
REMARK    4  A    between atoms: C_12  and  C_13
REMARK    5  A    between atoms: C_12  and  C_15
REMARK                            x       y       z     vdW  Elec       q    Type
REMARK                         _______ _______ _______ _____ _____    ______ ____
ROOT
ATOM      1  C   UNL     1       1.968   5.081  -6.211  0.00  0.00    +0.323 C 
ATOM      2  O   UNL     1       1.760   3.881  -6.215  0.00  0.00    -0.250 OA
ENDROOT
BRANCH   1   3
ATOM      3  O   UNL     1       3.116   5.432  -5.642  0.00  0.00    -0.452 OA
BRANCH   3   8
ATOM      4  C   UNL     1       4.270   4.847  -0.967  0.00  0.00    +0.090 C 
ATOM      5  N   UNL     1       3.861   5.073  -1.972  0.00  0.00    -0.274 NA
ATOM      6  C   UNL     1       2.331   5.312  -1.982  0.00  0.00    +0.061 C 
ATOM      7  C   UNL     1       2.198   5.943  -3.509  0.00  0.00    +0.060 C 
ATOM      8  C   UNL     1       3.405   5.047  -4.183  0.00  0.00    +0.172 C 
ATOM      9  C   UNL     1       4.453   6.283  -3.943  0.00  0.00    +0.060 C 
ATOM     10  C   UNL     1       2.497   6.725  -1.159  0.00  0.00    +0.017 C 
ATOM     11  C   UNL     1       3.243   7.418  -2.165  0.00  0.00    +0.017 C 
ATOM     12  C   UNL     1       4.541   6.428  -2.306  0.00  0.00    +0.061 C 
ENDBRANCH   3   8
ENDBRANCH   1   3
BRANCH   1  13
ATOM     13  C   UNL     1       1.281   5.952  -7.366  0.00  0.00    +0.154 C 
BRANCH  13  14
ATOM     14  C   UNL     1      -0.086   6.176  -6.552  0.00  0.00    -0.009 A 
ATOM     15  C   UNL     1      -1.190   5.502  -7.029  0.00  0.00    -0.004 A 
ATOM     16  C   UNL     1      -2.331   5.480  -6.233  0.00  0.00    -0.000 A 
ATOM     17  C   UNL     1      -2.339   6.193  -5.041  0.00  0.00    -0.000 A 
ATOM     18  C   UNL     1      -1.333   7.085  -4.783  0.00  0.00    -0.000 A 
ATOM     19  C   UNL     1      -0.210   7.049  -5.575  0.00  0.00    -0.004 A 
ENDBRANCH  13  14
BRANCH  13  20
ATOM     20  C   UNL     1       2.014   7.314  -6.815  0.00  0.00    +0.198 C 
ATOM     21  O   UNL     1       2.104   8.063  -7.936  0.00  0.00    -0.219 OA
ENDBRANCH  13  20
ENDBRANCH   1  13
TORSDOF 5
ENDMDL
MODEL 8
REMARK VINA RESULT:      -6.9      3.051      4.902
REMARK  Name = 
REMARK  5 active torsions:
REMARK  status: ('A' for Active; 'I' for Inactive)
REMARK    1  A    between atoms: C_8  and  O_9
REMARK    2  A    between atoms: O_9  and  C_10
REMARK    3  A    between atoms: C_10  and  C_12
REMARK    4  A    between atoms: C_12  and  C_13
REMARK    5  A    between atoms: C_12  and  C_15
REMARK                            x       y       z     vdW  Elec       q    Type
REMARK                         _______ _______ _______ _____ _____    ______ ____
ROOT
ATOM      1  C   UNL     1       1.783   6.525  -7.293  0.00  0.00    +0.323 C 
ATOM      2  O   UNL     1       1.540   7.383  -8.121  0.00  0.00    -0.250 OA
ENDROOT
BRANCH   1   3
ATOM      3  O   UNL     1       0.704   6.005  -6.717  0.00  0.00    -0.452 OA
BRANCH   3   8
ATOM      4  C   UNL     1      -2.068   8.018  -3.283  0.00  0.00    +0.090 C 
ATOM      5  N   UNL     1      -1.429   7.413  -3.957  0.00  0.00    -0.274 NA
ATOM      6  C   UNL     1      -0.601   6.329  -3.222  0.00  0.00    +0.061 C 
ATOM      7  C   UNL     1      -0.107   5.466  -4.548  0.00  0.00    +0.060 C 
ATOM      8  C   UNL     1       0.002   6.752  -5.573  0.00  0.00    +0.172 C 
ATOM      9  C   UNL     1      -1.504   6.430  -6.132  0.00  0.00    +0.060 C 
ATOM     10  C   UNL     1      -1.953   5.465  -2.870  0.00  0.00    +0.017 C 
ATOM     11  C   UNL     1      -2.315   5.162  -4.222  0.00  0.00    +0.017 C 
ATOM     12  C   UNL     1      -2.480   6.675  -4.830  0.00  0.00    +0.061 C 
ENDBRANCH   3   8
ENDBRANCH   1   3
BRANCH   1  13
ATOM     13  C   UNL     1       3.146   5.703  -7.461  0.00  0.00    +0.154 C 
BRANCH  13  14
ATOM     14  C   UNL     1       3.628   5.955  -5.950  0.00  0.00    -0.009 A 
ATOM     15  C   UNL     1       3.699   4.838  -5.144  0.00  0.00    -0.004 A 
ATOM     16  C   UNL     1       4.325   4.970  -3.909  0.00  0.00    -0.000 A 
ATOM     17  C   UNL     1       4.778   6.219  -3.507  0.00  0.00    -0.000 A 
ATOM     18  C   UNL     1       4.399   7.331  -4.211  0.00  0.00    -0.000 A 
ATOM     19  C   UNL     1       3.814   7.155  -5.442  0.00  0.00    -0.004 A 
ENDBRANCH  13  14
BRANCH  13  20
ATOM     20  C   UNL     1       2.369   4.291  -7.143  0.00  0.00    +0.198 C 
ATOM     21  O   UNL     1       2.535   3.608  -8.296  0.00  0.00    -0.219 OA
ENDBRANCH  13  20
ENDBRANCH   1  13
TORSDOF 5
ENDMDL
MODEL 9
REMARK VINA RESULT:      -6.7      3.586      6.767
REMARK  Name = 
REMARK  5 active torsions:
REMARK  status: ('A' for Active; 'I' for Inactive)
REMARK    1  A    between atoms: C_8  and  O_9
REMARK    2  A    between atoms: O_9  and  C_10
REMARK    3  A    between atoms: C_10  and  C_12
REMARK    4  A    between atoms: C_12  and  C_13
REMARK    5  A    between atoms: C_12  and  C_15
REMARK                            x       y       z     vdW  Elec       q    Type
REMARK                         _______ _______ _______ _____ _____    ______ ____
ROOT
ATOM      1  C   UNL     1      -0.226   6.944  -5.310  0.00  0.00    +0.323 C 
ATOM      2  O   UNL     1      -1.021   7.821  -5.026  0.00  0.00    -0.250 OA
ENDROOT
BRANCH   1   3
ATOM      3  O   UNL     1       1.043   7.336  -5.293  0.00  0.00    -0.452 OA
BRANCH   3   8
ATOM      4  C   UNL     1       4.962   4.703  -4.179  0.00  0.00    +0.090 C 
ATOM      5  N   UNL     1       4.117   5.411  -4.293  0.00  0.00    -0.274 NA
ATOM      6  C   UNL     1       3.747   6.155  -2.986  0.00  0.00    +0.061 C 
ATOM      7  C   UNL     1       2.753   7.309  -3.642  0.00  0.00    +0.060 C 
ATOM      8  C   UNL     1       2.147   6.365  -4.848  0.00  0.00    +0.172 C 
ATOM      9  C   UNL     1       3.262   6.975  -5.882  0.00  0.00    +0.060 C 
ATOM     10  C   UNL     1       5.150   7.009  -3.018  0.00  0.00    +0.017 C 
ATOM     11  C   UNL     1       4.888   7.718  -4.234  0.00  0.00    +0.017 C 
ATOM     12  C   UNL     1       4.702   6.464  -5.272  0.00  0.00    +0.061 C 
ENDBRANCH   3   8
ENDBRANCH   1   3
BRANCH   1  13
ATOM     13  C   UNL     1      -0.660   5.431  -5.016  0.00  0.00    +0.154 C 
BRANCH  13  14
ATOM     14  C   UNL     1      -1.492   5.798  -3.692  0.00  0.00    -0.009 A 
ATOM     15  C   UNL     1      -0.761   5.893  -2.527  0.00  0.00    -0.004 A 
ATOM     16  C   UNL     1      -1.391   6.430  -1.409  0.00  0.00    -0.000 A 
ATOM     17  C   UNL     1      -2.734   6.772  -1.487  0.00  0.00    -0.000 A 
ATOM     18  C   UNL     1      -3.472   6.364  -2.565  0.00  0.00    -0.000 A 
ATOM     19  C   UNL     1      -2.805   5.871  -3.662  0.00  0.00    -0.004 A 
ENDBRANCH  13  14
BRANCH  13  20
ATOM     20  C   UNL     1      -1.934   5.566  -6.043  0.00  0.00    +0.198 C 
ATOM     21  O   UNL     1      -1.394   5.186  -7.221  0.00  0.00    -0.219 OA
ENDBRANCH  13  20
ENDBRANCH   1  13
TORSDOF 5
ENDMDL
