MODEL 1
REMARK VINA RESULT:      -8.4      0.000      0.000
REMARK  Name = 
REMARK  2 active torsions:
REMARK  status: ('A' for Active; 'I' for Inactive)
REMARK    1  A    between atoms: C_6  and  N_7
REMARK    2  A    between atoms: C_20  and  C_21
REMARK                            x       y       z     vdW  Elec       q    Type
REMARK                         _______ _______ _______ _____ _____    ______ ____
ROOT
ATOM      1  C   UNL     1       2.479   7.246  -4.209  0.00  0.00    +0.028 C 
ATOM      2  C   UNL     1       3.035   5.692  -4.389  0.00  0.00    +0.129 C 
ATOM      3  N   UNL     1       2.285   5.474  -5.765  0.00  0.00    -0.321 N 
ATOM      4  C   UNL     1       1.020   5.775  -5.870  0.00  0.00    +0.099 A 
ATOM      5  C   UNL     1       0.468   5.660  -7.144  0.00  0.00    +0.060 A 
ATOM      6  C   UNL     1       1.253   5.559  -8.264  0.00  0.00    +0.205 A 
ATOM      7  C   UNL     1       2.611   5.332  -8.094  0.00  0.00    +0.136 A 
ATOM      8  O   UNL     1       0.757   5.335  -9.390  0.00  0.00    -0.286 OA
ATOM      9  C   UNL     1      -0.881   5.374  -7.322  0.00  0.00    +0.036 A 
ATOM     10  C   UNL     1      -1.769   5.677  -6.330  0.00  0.00    +0.157 A 
ATOM     11  F   UNL     1      -3.093   5.500  -6.528  0.00  0.00    -0.203 F 
ATOM     12  C   UNL     1      -1.236   5.929  -5.084  0.00  0.00    +0.112 A 
ATOM     13  C   UNL     1       0.133   6.025  -4.856  0.00  0.00    +0.170 A 
ATOM     14  O   UNL     1       0.693   5.798  -3.596  0.00  0.00    -0.471 OA
ATOM     15  C   UNL     1       3.137   5.308  -6.808  0.00  0.00    +0.086 A 
ATOM     16  C   UNL     1       1.823   5.009  -3.491  0.00  0.00    +0.228 C 
ENDROOT
BRANCH  12  17
ATOM     17  N   UNL     1      -2.074   6.347  -4.029  0.00  0.00    -0.301 N 
ATOM     18  C   UNL     1      -2.093   7.667  -3.474  0.00  0.00    +0.108 C 
ATOM     19  C   UNL     1      -2.092   7.734  -1.990  0.00  0.00    +0.094 C 
ATOM     20  N   UNL     1      -1.825   6.541  -1.292  0.00  0.00    -0.269 NA
ATOM     21  C   UNL     1      -0.616   6.506  -0.533  0.00  0.00    +0.090 C 
ATOM     22  C   UNL     1      -2.295   5.322  -1.809  0.00  0.00    +0.094 C 
ATOM     23  C   UNL     1      -2.711   5.301  -3.241  0.00  0.00    +0.108 C 
ENDBRANCH  12  17
BRANCH   7  24
ATOM     24  C   UNL     1       3.411   4.793  -9.201  0.00  0.00    +0.392 C 
ATOM     25  O   UNL     1       3.953   5.616 -10.184  0.00  0.00    -0.240 OA
ATOM     26  O   UNL     1       3.921   3.663  -9.074  0.00  0.00    -0.240 OA
ENDBRANCH   7  24
TORSDOF 2
ENDMDL
MODEL 2
REMARK VINA RESULT:      -8.3      3.023      5.352
REMARK  Name = 
REMARK  2 active torsions:
REMARK  status: ('A' for Active; 'I' for Inactive)
REMARK    1  A    between atoms: C_6  and  N_7
REMARK    2  A    between atoms: C_20  and  C_21
REMARK                            x       y       z     vdW  Elec       q    Type
REMARK                         _______ _______ _______ _____ _____    ______ ____
ROOT
ATOM      1  C   UNL     1       0.439   4.543 -11.303  0.00  0.00    +0.028 C 
ATOM      2  C   UNL     1       0.815   5.967 -12.071  0.00  0.00    +0.129 C 
ATOM      3  N   UNL     1       2.307   5.976 -11.544  0.00  0.00    -0.321 N 
ATOM      4  C   UNL     1       2.550   5.784 -10.276  0.00  0.00    +0.099 A 
ATOM      5  C   UNL     1       3.893   5.694  -9.918  0.00  0.00    +0.060 A 
ATOM      6  C   UNL     1       4.877   5.490 -10.852  0.00  0.00    +0.205 A 
ATOM      7  C   UNL     1       4.542   5.612 -12.193  0.00  0.00    +0.136 A 
ATOM      8  O   UNL     1       6.087   5.530 -10.543  0.00  0.00    -0.286 OA
ATOM      9  C   UNL     1       4.329   6.069  -8.652  0.00  0.00    +0.036 A 
ATOM     10  C   UNL     1       3.448   6.061  -7.609  0.00  0.00    +0.157 A 
ATOM     11  F   UNL     1       3.878   6.323  -6.356  0.00  0.00    -0.203 F 
ATOM     12  C   UNL     1       2.109   6.014  -7.935  0.00  0.00    +0.112 A 
ATOM     13  C   UNL     1       1.658   5.833  -9.238  0.00  0.00    +0.170 A 
ATOM     14  O   UNL     1       0.390   6.253  -9.650  0.00  0.00    -0.471 OA
ATOM     15  C   UNL     1       3.217   5.843 -12.542  0.00  0.00    +0.086 A 
ATOM     16  C   UNL     1       0.258   6.932 -10.845  0.00  0.00    +0.228 C 
ENDROOT
BRANCH  12  17
ATOM     17  N   UNL     1       1.138   5.902  -6.918  0.00  0.00    -0.301 N 
ATOM     18  C   UNL     1       0.483   7.008  -6.288  0.00  0.00    +0.108 C 
ATOM     19  C   UNL     1       0.403   6.943  -4.807  0.00  0.00    +0.094 C 
ATOM     20  N   UNL     1       1.178   5.959  -4.163  0.00  0.00    -0.269 NA
ATOM     21  C   UNL     1       2.235   6.429  -3.327  0.00  0.00    +0.090 C 
ATOM     22  C   UNL     1       1.353   4.710  -4.782  0.00  0.00    +0.094 C 
ATOM     23  C   UNL     1       1.043   4.618  -6.238  0.00  0.00    +0.108 C 
ENDBRANCH  12  17
BRANCH   7  24
ATOM     24  C   UNL     1       5.592   5.836 -13.196  0.00  0.00    +0.392 C 
ATOM     25  O   UNL     1       6.214   7.072 -13.343  0.00  0.00    -0.240 OA
ATOM     26  O   UNL     1       6.191   4.849 -13.664  0.00  0.00    -0.240 OA
ENDBRANCH   7  24
TORSDOF 2
ENDMDL
MODEL 3
REMARK VINA RESULT:      -8.2      2.559      6.475
REMARK  Name = 
REMARK  2 active torsions:
REMARK  status: ('A' for Active; 'I' for Inactive)
REMARK    1  A    between atoms: C_6  and  N_7
REMARK    2  A    between atoms: C_20  and  C_21
REMARK                            x       y       z     vdW  Elec       q    Type
REMARK                         _______ _______ _______ _____ _____    ______ ____
ROOT
ATOM      1  C   UNL     1       4.400   5.041  -4.066  0.00  0.00    +0.028 C 
ATOM      2  C   UNL     1       4.079   6.585  -3.546  0.00  0.00    +0.129 C 
ATOM      3  N   UNL     1       2.530   6.312  -3.366  0.00  0.00    -0.321 N 
ATOM      4  C   UNL     1       1.853   5.748  -4.329  0.00  0.00    +0.099 A 
ATOM      5  C   UNL     1       0.525   5.441  -4.044  0.00  0.00    +0.060 A 
ATOM      6  C   UNL     1       0.048   5.423  -2.758  0.00  0.00    +0.205 A 
ATOM      7  C   UNL     1       0.850   5.950  -1.755  0.00  0.00    +0.136 A 
ATOM      8  O   UNL     1      -1.168   5.265  -2.516  0.00  0.00    -0.286 OA
ATOM      9  C   UNL     1      -0.437   5.401  -5.047  0.00  0.00    +0.036 A 
ATOM     10  C   UNL     1      -0.053   5.175  -6.337  0.00  0.00    +0.157 A 
ATOM     11  F   UNL     1      -0.982   5.032  -7.306  0.00  0.00    -0.203 F 
ATOM     12  C   UNL     1       1.287   5.342  -6.618  0.00  0.00    +0.112 A 
ATOM     13  C   UNL     1       2.239   5.579  -5.633  0.00  0.00    +0.170 A 
ATOM     14  O   UNL     1       3.455   6.209  -5.911  0.00  0.00    -0.471 OA
ATOM     15  C   UNL     1       2.130   6.388  -2.071  0.00  0.00    +0.086 A 
ATOM     16  C   UNL     1       3.905   7.208  -5.070  0.00  0.00    +0.228 C 
ENDROOT
BRANCH  12  17
ATOM     17  N   UNL     1       1.782   5.032  -7.903  0.00  0.00    -0.301 N 
ATOM     18  C   UNL     1       2.490   3.833  -8.238  0.00  0.00    +0.108 C 
ATOM     19  C   UNL     1       3.718   4.024  -9.050  0.00  0.00    +0.094 C 
ATOM     20  N   UNL     1       4.197   5.340  -9.194  0.00  0.00    -0.269 NA
ATOM     21  C   UNL     1       5.462   5.625  -8.597  0.00  0.00    +0.090 C 
ATOM     22  C   UNL     1       3.278   6.399  -9.289  0.00  0.00    +0.094 C 
ATOM     23  C   UNL     1       1.877   6.130  -8.854  0.00  0.00    +0.108 C 
ENDBRANCH  12  17
BRANCH   7  24
ATOM     24  C   UNL     1       0.255   6.355  -0.475  0.00  0.00    +0.392 C 
ATOM     25  O   UNL     1       0.975   6.312   0.715  0.00  0.00    -0.240 OA
ATOM     26  O   UNL     1      -0.758   7.080  -0.489  0.00  0.00    -0.240 OA
ENDBRANCH   7  24
TORSDOF 2
ENDMDL
MODEL 4
REMARK VINA RESULT:      -8.1      2.262      6.355
REMARK  Name = 
REMARK  2 active torsions:
REMARK  status: ('A' for Active; 'I' for Inactive)
REMARK    1  A    between atoms: C_6  and  N_7
REMARK    2  A    between atoms: C_20  and  C_21
REMARK                            x       y       z     vdW  Elec       q    Type
REMARK                         _______ _______ _______ _____ _____    ______ ____
ROOT
ATOM      1  C   UNL     1       3.249   4.725  -4.205  0.00  0.00    +0.028 C 
ATOM      2  C   UNL     1       2.917   6.244  -3.622  0.00  0.00    +0.129 C 
ATOM      3  N   UNL     1       1.363   6.120  -3.895  0.00  0.00    -0.321 N 
ATOM      4  C   UNL     1       0.938   5.716  -5.061  0.00  0.00    +0.099 A 
ATOM      5  C   UNL     1      -0.437   5.528  -5.179  0.00  0.00    +0.060 A 
ATOM      6  C   UNL     1      -1.252   5.450  -4.079  0.00  0.00    +0.205 A 
ATOM      7  C   UNL     1      -0.722   5.801  -2.845  0.00  0.00    +0.136 A 
ATOM      8  O   UNL     1      -2.496   5.401  -4.191  0.00  0.00    -0.286 OA
ATOM      9  C   UNL     1      -1.083   5.676  -6.401  0.00  0.00    +0.036 A 
ATOM     10  C   UNL     1      -0.374   5.523  -7.558  0.00  0.00    +0.157 A 
ATOM     11  F   UNL     1      -1.006   5.561  -8.751  0.00  0.00    -0.203 F 
ATOM     12  C   UNL     1       1.000   5.570  -7.449  0.00  0.00    +0.112 A 
ATOM     13  C   UNL     1       1.656   5.620  -6.225  0.00  0.00    +0.170 A 
ATOM     14  O   UNL     1       2.946   6.140  -6.094  0.00  0.00    -0.471 OA
ATOM     15  C   UNL     1       0.626   6.127  -2.755  0.00  0.00    +0.086 A 
ATOM     16  C   UNL     1       3.223   7.010  -5.057  0.00  0.00    +0.228 C 
ENDROOT
BRANCH  12  17
ATOM     17  N   UNL     1       1.806   5.321  -8.580  0.00  0.00    -0.301 N 
ATOM     18  C   UNL     1       2.504   4.097  -8.832  0.00  0.00    +0.108 C 
ATOM     19  C   UNL     1       3.917   4.246  -9.266  0.00  0.00    +0.094 C 
ATOM     20  N   UNL     1       4.495   5.525  -9.146  0.00  0.00    -0.269 NA
ATOM     21  C   UNL     1       5.565   5.653  -8.210  0.00  0.00    +0.090 C 
ATOM     22  C   UNL     1       3.702   6.661  -9.378  0.00  0.00    +0.094 C 
ATOM     23  C   UNL     1       2.222   6.479  -9.359  0.00  0.00    +0.108 C 
ENDBRANCH  12  17
BRANCH   7  24
ATOM     24  C   UNL     1      -1.615   6.155  -1.735  0.00  0.00    +0.392 C 
ATOM     25  O   UNL     1      -2.128   7.440  -1.587  0.00  0.00    -0.240 OA
ATOM     26  O   UNL     1      -2.213   5.241  -1.135  0.00  0.00    -0.240 OA
ENDBRANCH   7  24
TORSDOF 2
ENDMDL
MODEL 5
REMARK VINA RESULT:      -8.0      3.295      6.487
REMARK  Name = 
REMARK  2 active torsions:
REMARK  status: ('A' for Active; 'I' for Inactive)
REMARK    1  A    between atoms: C_6  and  N_7
REMARK    2  A    between atoms: C_20  and  C_21
REMARK                            x       y       z     vdW  Elec       q    Type
REMARK                         _______ _______ _______ _____ _____    ______ ____
ROOT
ATOM      1  C   UNL     1       4.358   4.330  -8.996  0.00  0.00    +0.028 C 
ATOM      2  C   UNL     1       4.849   5.771  -8.333  0.00  0.00    +0.129 C 
ATOM      3  N   UNL     1       3.779   5.717  -7.168  0.00  0.00    -0.321 N 
ATOM      4  C   UNL     1       2.528   5.470  -7.445  0.00  0.00    +0.099 A 
ATOM      5  C   UNL     1       1.677   5.328  -6.352  0.00  0.00    +0.060 A 
ATOM      6  C   UNL     1       2.158   5.132  -5.083  0.00  0.00    +0.205 A 
ATOM      7  C   UNL     1       3.516   5.315  -4.862  0.00  0.00    +0.136 A 
ATOM      8  O   UNL     1       1.398   5.125  -4.091  0.00  0.00    -0.286 OA
ATOM      9  C   UNL     1       0.325   5.641  -6.445  0.00  0.00    +0.036 A 
ATOM     10  C   UNL     1      -0.287   5.617  -7.665  0.00  0.00    +0.157 A 
ATOM     11  F   UNL     1      -1.619   5.818  -7.759  0.00  0.00    -0.203 F 
ATOM     12  C   UNL     1       0.540   5.621  -8.768  0.00  0.00    +0.112 A 
ATOM     13  C   UNL     1       1.922   5.503  -8.673  0.00  0.00    +0.170 A 
ATOM     14  O   UNL     1       2.778   5.975  -9.672  0.00  0.00    -0.471 OA
ATOM     15  C   UNL     1       4.345   5.597  -5.940  0.00  0.00    +0.086 A 
ATOM     16  C   UNL     1       3.896   6.703  -9.316  0.00  0.00    +0.228 C 
ENDROOT
BRANCH  12  17
ATOM     17  N   UNL     1      -0.010   5.497 -10.062  0.00  0.00    -0.301 N 
ATOM     18  C   UNL     1       0.094   4.330 -10.885  0.00  0.00    +0.108 C 
ATOM     19  C   UNL     1       0.470   4.579 -12.300  0.00  0.00    +0.094 C 
ATOM     20  N   UNL     1       0.924   5.872 -12.627  0.00  0.00    -0.269 NA
ATOM     21  C   UNL     1       2.287   5.981 -13.040  0.00  0.00    +0.090 C 
ATOM     22  C   UNL     1       0.356   6.983 -11.982  0.00  0.00    +0.094 C 
ATOM     23  C   UNL     1      -0.410   6.728 -10.727  0.00  0.00    +0.108 C 
ENDBRANCH  12  17
BRANCH   7  24
ATOM     24  C   UNL     1       4.015   5.548  -3.500  0.00  0.00    +0.392 C 
ATOM     25  O   UNL     1       4.075   4.527  -2.556  0.00  0.00    -0.240 OA
ATOM     26  O   UNL     1       4.726   6.549  -3.287  0.00  0.00    -0.240 OA
ENDBRANCH   7  24
TORSDOF 2
ENDMDL
MODEL 6
REMARK VINA RESULT:      -8.0      3.198      5.631
REMARK  Name = 
REMARK  2 active torsions:
REMARK  status: ('A' for Active; 'I' for Inactive)
REMARK    1  A    between atoms: C_6  and  N_7
REMARK    2  A    between atoms: C_20  and  C_21
REMARK                            x       y       z     vdW  Elec       q    Type
REMARK                         _______ _______ _______ _____ _____    ______ ____
ROOT
ATOM      1  C   UNL     1       5.098   7.577 -10.798  0.00  0.00    +0.028 C 
ATOM      2  C   UNL     1       5.392   6.138 -11.573  0.00  0.00    +0.129 C 
ATOM      3  N   UNL     1       3.873   5.695 -11.546  0.00  0.00    -0.321 N 
ATOM      4  C   UNL     1       3.197   5.758 -10.431  0.00  0.00    +0.099 A 
ATOM      5  C   UNL     1       1.841   5.459 -10.521  0.00  0.00    +0.060 A 
ATOM      6  C   UNL     1       1.188   5.422 -11.727  0.00  0.00    +0.205 A 
ATOM      7  C   UNL     1       1.950   5.454 -12.886  0.00  0.00    +0.136 A 
ATOM      8  O   UNL     1       0.002   5.037 -11.815  0.00  0.00    -0.286 OA
ATOM      9  C   UNL     1       1.146   4.925  -9.441  0.00  0.00    +0.036 A 
ATOM     10  C   UNL     1       1.613   5.132  -8.175  0.00  0.00    +0.157 A 
ATOM     11  F   UNL     1       0.896   4.709  -7.111  0.00  0.00    -0.203 F 
ATOM     12  C   UNL     1       2.918   5.561  -8.062  0.00  0.00    +0.112 A 
ATOM     13  C   UNL     1       3.691   5.914  -9.163  0.00  0.00    +0.170 A 
ATOM     14  O   UNL     1       5.088   5.878  -9.131  0.00  0.00    -0.471 OA
ATOM     15  C   UNL     1       3.328   5.613 -12.786  0.00  0.00    +0.086 A 
ATOM     16  C   UNL     1       5.774   5.314 -10.188  0.00  0.00    +0.228 C 
ENDROOT
BRANCH  12  17
ATOM     17  N   UNL     1       3.445   5.894  -6.797  0.00  0.00    -0.301 N 
ATOM     18  C   UNL     1       4.035   4.959  -5.886  0.00  0.00    +0.108 C 
ATOM     19  C   UNL     1       3.591   5.078  -4.474  0.00  0.00    +0.094 C 
ATOM     20  N   UNL     1       2.478   5.901  -4.217  0.00  0.00    -0.269 NA
ATOM     21  C   UNL     1       1.303   5.249  -3.736  0.00  0.00    +0.090 C 
ATOM     22  C   UNL     1       2.301   7.072  -4.972  0.00  0.00    +0.094 C 
ATOM     23  C   UNL     1       3.068   7.188  -6.246  0.00  0.00    +0.108 C 
ENDBRANCH  12  17
BRANCH   7  24
ATOM     24  C   UNL     1       1.378   4.992 -14.157  0.00  0.00    +0.392 C 
ATOM     25  O   UNL     1       0.943   5.883 -15.133  0.00  0.00    -0.240 OA
ATOM     26  O   UNL     1       1.612   3.825 -14.528  0.00  0.00    -0.240 OA
ENDBRANCH   7  24
TORSDOF 2
ENDMDL
MODEL 7
REMARK VINA RESULT:      -7.8      2.996      7.153
REMARK  Name = 
REMARK  2 active torsions:
REMARK  status: ('A' for Active; 'I' for Inactive)
REMARK    1  A    between atoms: C_6  and  N_7
REMARK    2  A    between atoms: C_20  and  C_21
REMARK                            x       y       z     vdW  Elec       q    Type
REMARK                         _______ _______ _______ _____ _____    ______ ____
ROOT
ATOM      1  C   UNL     1      -0.200   7.234  -5.511  0.00  0.00    +0.028 C 
ATOM      2  C   UNL     1      -0.494   5.759  -4.806  0.00  0.00    +0.129 C 
ATOM      3  N   UNL     1       1.005   5.573  -4.333  0.00  0.00    -0.321 N 
ATOM      4  C   UNL     1       1.982   5.757  -5.180  0.00  0.00    +0.099 A 
ATOM      5  C   UNL     1       3.269   5.683  -4.653  0.00  0.00    +0.060 A 
ATOM      6  C   UNL     1       3.501   5.744  -3.303  0.00  0.00    +0.205 A 
ATOM      7  C   UNL     1       2.414   5.639  -2.446  0.00  0.00    +0.136 A 
ATOM      8  O   UNL     1       4.642   5.558  -2.828  0.00  0.00    -0.286 OA
ATOM      9  C   UNL     1       4.346   5.282  -5.435  0.00  0.00    +0.036 A 
ATOM     10  C   UNL     1       4.281   5.422  -6.791  0.00  0.00    +0.157 A 
ATOM     11  F   UNL     1       5.356   5.132  -7.556  0.00  0.00    -0.203 F 
ATOM     12  C   UNL     1       3.028   5.631  -7.329  0.00  0.00    +0.112 A 
ATOM     13  C   UNL     1       1.899   5.842  -6.545  0.00  0.00    +0.170 A 
ATOM     14  O   UNL     1       0.609   5.577  -7.014  0.00  0.00    -0.471 OA
ATOM     15  C   UNL     1       1.134   5.569  -2.982  0.00  0.00    +0.086 A 
ATOM     16  C   UNL     1      -0.278   4.897  -6.204  0.00  0.00    +0.228 C 
ENDROOT
BRANCH  12  17
ATOM     17  N   UNL     1       2.886   5.885  -8.709  0.00  0.00    -0.301 N 
ATOM     18  C   UNL     1       2.784   4.874  -9.719  0.00  0.00    +0.108 C 
ATOM     19  C   UNL     1       3.630   5.088 -10.921  0.00  0.00    +0.094 C 
ATOM     20  N   UNL     1       4.611   6.095 -10.846  0.00  0.00    -0.269 NA
ATOM     21  C   UNL     1       5.971   5.663 -10.901  0.00  0.00    +0.090 C 
ATOM     22  C   UNL     1       4.337   7.268 -10.125  0.00  0.00    +0.094 C 
ATOM     23  C   UNL     1       3.195   7.232  -9.166  0.00  0.00    +0.108 C 
ENDBRANCH  12  17
BRANCH   7  24
ATOM     24  C   UNL     1       2.618   5.264  -1.041  0.00  0.00    +0.392 C 
ATOM     25  O   UNL     1       2.979   6.201  -0.077  0.00  0.00    -0.240 OA
ATOM     26  O   UNL     1       2.118   4.200  -0.627  0.00  0.00    -0.240 OA
ENDBRANCH   7  24
TORSDOF 2
ENDMDL
MODEL 8
REMARK VINA RESULT:      -7.8      2.971      6.633
REMARK  Name = 
REMARK  2 active torsions:
REMARK  status: ('A' for Active; 'I' for Inactive)
REMARK    1  A    between atoms: C_6  and  N_7
REMARK    2  A    between atoms: C_20  and  C_21
REMARK                            x       y       z     vdW  Elec       q    Type
REMARK                         _______ _______ _______ _____ _____    ______ ____
ROOT
ATOM      1  C   UNL     1       5.255   5.404  -3.873  0.00  0.00    +0.028 C 
ATOM      2  C   UNL     1       5.181   7.035  -3.567  0.00  0.00    +0.129 C 
ATOM      3  N   UNL     1       3.928   6.901  -2.609  0.00  0.00    -0.321 N 
ATOM      4  C   UNL     1       2.885   6.219  -2.995  0.00  0.00    +0.099 A 
ATOM      5  C   UNL     1       1.876   6.057  -2.049  0.00  0.00    +0.060 A 
ATOM      6  C   UNL     1       2.090   6.304  -0.717  0.00  0.00    +0.205 A 
ATOM      7  C   UNL     1       3.262   6.949  -0.350  0.00  0.00    +0.136 A 
ATOM      8  O   UNL     1       1.153   6.274   0.110  0.00  0.00    -0.286 OA
ATOM      9  C   UNL     1       0.548   5.901  -2.430  0.00  0.00    +0.036 A 
ATOM     10  C   UNL     1       0.259   5.421  -3.675  0.00  0.00    +0.157 A 
ATOM     11  F   UNL     1      -1.021   5.166  -4.023  0.00  0.00    -0.203 F 
ATOM     12  C   UNL     1       1.284   5.444  -4.597  0.00  0.00    +0.112 A 
ATOM     13  C   UNL     1       2.588   5.792  -4.263  0.00  0.00    +0.170 A 
ATOM     14  O   UNL     1       3.493   6.279  -5.210  0.00  0.00    -0.471 OA
ATOM     15  C   UNL     1       4.210   7.237  -1.325  0.00  0.00    +0.086 A 
ATOM     16  C   UNL     1       4.266   7.382  -4.902  0.00  0.00    +0.228 C 
ENDROOT
BRANCH  12  17
ATOM     17  N   UNL     1       1.098   4.875  -5.874  0.00  0.00    -0.301 N 
ATOM     18  C   UNL     1       1.864   3.787  -6.404  0.00  0.00    +0.108 C 
ATOM     19  C   UNL     1       2.341   3.963  -7.799  0.00  0.00    +0.094 C 
ATOM     20  N   UNL     1       2.219   5.248  -8.363  0.00  0.00    -0.269 NA
ATOM     21  C   UNL     1       3.438   5.927  -8.666  0.00  0.00    +0.090 C 
ATOM     22  C   UNL     1       1.105   6.038  -8.036  0.00  0.00    +0.094 C 
ATOM     23  C   UNL     1       0.318   5.647  -6.831  0.00  0.00    +0.108 C 
ENDBRANCH  12  17
BRANCH   7  24
ATOM     24  C   UNL     1       3.357   7.618   0.954  0.00  0.00    +0.392 C 
ATOM     25  O   UNL     1       4.093   7.077   2.004  0.00  0.00    -0.240 OA
ATOM     26  O   UNL     1       3.097   8.834   1.022  0.00  0.00    -0.240 OA
ENDBRANCH   7  24
TORSDOF 2
ENDMDL
MODEL 9
REMARK VINA RESULT:      -7.7      3.905      8.476
REMARK  Name = 
REMARK  2 active torsions:
REMARK  status: ('A' for Active; 'I' for Inactive)
REMARK    1  A    between atoms: C_6  and  N_7
REMARK    2  A    between atoms: C_20  and  C_21
REMARK                            x       y       z     vdW  Elec       q    Type
REMARK                         _______ _______ _______ _____ _____    ______ ____
ROOT
ATOM      1  C   UNL     1       0.658   6.994 -10.110  0.00  0.00    +0.028 C 
ATOM      2  C   UNL     1       0.238   5.516  -9.481  0.00  0.00    +0.129 C 
ATOM      3  N   UNL     1       1.352   5.563  -8.357  0.00  0.00    -0.321 N 
ATOM      4  C   UNL     1       2.583   5.858  -8.675  0.00  0.00    +0.099 A 
ATOM      5  C   UNL     1       3.473   5.989  -7.613  0.00  0.00    +0.060 A 
ATOM      6  C   UNL     1       3.039   6.125  -6.319  0.00  0.00    +0.205 A 
ATOM      7  C   UNL     1       1.697   5.893  -6.051  0.00  0.00    +0.136 A 
ATOM      8  O   UNL     1       3.839   6.122  -5.358  0.00  0.00    -0.286 OA
ATOM      9  C   UNL     1       4.829   5.722  -7.770  0.00  0.00    +0.036 A 
ATOM     10  C   UNL     1       5.389   5.806  -9.012  0.00  0.00    +0.157 A 
ATOM     11  F   UNL     1       6.722   5.651  -9.166  0.00  0.00    -0.203 F 
ATOM     12  C   UNL     1       4.519   5.815 -10.081  0.00  0.00    +0.112 A 
ATOM     13  C   UNL     1       3.139   5.886  -9.927  0.00  0.00    +0.170 A 
ATOM     14  O   UNL     1       2.257   5.423 -10.908  0.00  0.00    -0.471 OA
ATOM     15  C   UNL     1       0.833   5.622  -7.105  0.00  0.00    +0.086 A 
ATOM     16  C   UNL     1       1.176   4.648 -10.533  0.00  0.00    +0.228 C 
ENDROOT
BRANCH  12  17
ATOM     17  N   UNL     1       5.011   6.001 -11.390  0.00  0.00    -0.301 N 
ATOM     18  C   UNL     1       5.365   4.942 -12.288  0.00  0.00    +0.108 C 
ATOM     19  C   UNL     1       6.660   5.112 -12.993  0.00  0.00    +0.094 C 
ATOM     20  N   UNL     1       7.512   6.137 -12.538  0.00  0.00    -0.269 NA
ATOM     21  C   UNL     1       8.749   5.725 -11.958  0.00  0.00    +0.090 C 
ATOM     22  C   UNL     1       6.951   7.339 -12.074  0.00  0.00    +0.094 C 
ATOM     23  C   UNL     1       5.501   7.329 -11.727  0.00  0.00    +0.108 C 
ENDBRANCH  12  17
BRANCH   7  24
ATOM     24  C   UNL     1       1.262   5.598  -4.679  0.00  0.00    +0.392 C 
ATOM     25  O   UNL     1       1.348   6.543  -3.663  0.00  0.00    -0.240 OA
ATOM     26  O   UNL     1       0.479   4.646  -4.493  0.00  0.00    -0.240 OA
ENDBRANCH   7  24
TORSDOF 2
ENDMDL
