MODEL 1
REMARK VINA RESULT:      -8.6      0.000      0.000
REMARK  Name = 
REMARK  7 active torsions:
REMARK  status: ('A' for Active; 'I' for Inactive)
REMARK    1  A    between atoms: C_2  and  O_3
REMARK    2  A    between atoms: O_3  and  C_4
REMARK    3  A    between atoms: C_10  and  C_11
REMARK    4  A    between atoms: N_15  and  C_16
REMARK    5  A    between atoms: C_16  and  C_17
REMARK    6  A    between atoms: C_20  and  C_21
REMARK    7  A    between atoms: C_26  and  C_27
REMARK                            x       y       z     vdW  Elec       q    Type
REMARK                         _______ _______ _______ _____ _____    ______ ____
ROOT
ATOM      1  C   UNL     1       2.491   6.862  -6.374  0.00  0.00    +0.001 A 
ATOM      2  C   UNL     1       2.182   7.741  -7.406  0.00  0.00    -0.002 A 
ATOM      3  C   UNL     1       2.358   7.358  -8.731  0.00  0.00    -0.000 A 
ATOM      4  C   UNL     1       2.796   6.080  -9.057  0.00  0.00    -0.001 A 
ATOM      5  C   UNL     1       3.439   5.401  -8.029  0.00  0.00    -0.000 A 
ATOM      6  C   UNL     1       3.389   5.859  -6.719  0.00  0.00    -0.002 A 
ENDROOT
BRANCH   4   7
ATOM      7  C   UNL     1       2.211   5.319 -10.167  0.00  0.00    -0.006 A 
ATOM      8  C   UNL     1       2.658   5.561 -11.460  0.00  0.00    -0.015 A 
ATOM      9  C   UNL     1       1.797   5.419 -12.542  0.00  0.00    -0.007 A 
ATOM     10  C   UNL     1       0.430   5.261 -12.354  0.00  0.00    -0.001 A 
ATOM     11  C   UNL     1       0.030   4.809 -11.109  0.00  0.00    -0.000 A 
ATOM     12  C   UNL     1       0.953   4.735 -10.074  0.00  0.00    -0.001 A 
BRANCH   8  13
ATOM     13  C   UNL     1       4.080   5.856 -11.635  0.00  0.00    +0.044 A 
ATOM     14  N   UNL     1       4.735   7.001 -11.353  0.00  0.00    -0.289 NA
ATOM     15  N   UNL     1       5.950   6.851 -11.818  0.00  0.00    -0.218 NA
ATOM     16  N   UNL     1       6.134   5.626 -12.305  0.00  0.00    -0.218 NA
ATOM     17  N   UNL     1       4.922   5.082 -12.363  0.00  0.00    -0.289 NA
ENDBRANCH   8  13
ENDBRANCH   4   7
BRANCH   1  18
ATOM     18  C   UNL     1       2.604   7.380  -4.980  0.00  0.00    +0.137 C 
BRANCH  18  20
ATOM     19  C   UNL     1       0.532   6.266  -4.201  0.00  0.00    +0.301 A 
ATOM     20  N   UNL     1       1.869   6.429  -4.151  0.00  0.00    -0.277 N 
ATOM     21  C   UNL     1       2.357   5.961  -2.979  0.00  0.00    +0.088 A 
ATOM     22  C   UNL     1       1.258   5.381  -2.363  0.00  0.00    +0.102 A 
ATOM     23  C   UNL     1       1.499   4.624  -1.224  0.00  0.00    +0.021 A 
ATOM     24  C   UNL     1       2.799   4.249  -0.922  0.00  0.00    +0.002 A 
ATOM     25  C   UNL     1       3.875   4.809  -1.593  0.00  0.00    +0.008 A 
ATOM     26  C   UNL     1       3.649   5.509  -2.751  0.00  0.00    +0.097 A 
ATOM     27  N   UNL     1       0.143   5.611  -3.096  0.00  0.00    -0.194 NA
BRANCH  26  28
ATOM     28  C   UNL     1       4.699   5.582  -3.751  0.00  0.00    +0.389 C 
ATOM     29  O   UNL     1       5.556   6.679  -3.707  0.00  0.00    -0.240 OA
ATOM     30  O   UNL     1       5.222   4.490  -4.118  0.00  0.00    -0.240 OA
ENDBRANCH  26  28
BRANCH  19  31
ATOM     31  O   UNL     1      -0.198   6.548  -5.360  0.00  0.00    -0.448 OA
BRANCH  31  33
ATOM     32  C   UNL     1      -1.102   5.299  -7.147  0.00  0.00    +0.051 C 
ATOM     33  C   UNL     1      -1.265   5.663  -5.689  0.00  0.00    +0.209 C 
ENDBRANCH  31  33
ENDBRANCH  19  31
ENDBRANCH  18  20
ENDBRANCH   1  18
TORSDOF 7
ENDMDL
MODEL 2
REMARK VINA RESULT:      -8.5      2.784      4.757
REMARK  Name = 
REMARK  7 active torsions:
REMARK  status: ('A' for Active; 'I' for Inactive)
REMARK    1  A    between atoms: C_2  and  O_3
REMARK    2  A    between atoms: O_3  and  C_4
REMARK    3  A    between atoms: C_10  and  C_11
REMARK    4  A    between atoms: N_15  and  C_16
REMARK    5  A    between atoms: C_16  and  C_17
REMARK    6  A    between atoms: C_20  and  C_21
REMARK    7  A    between atoms: C_26  and  C_27
REMARK                            x       y       z     vdW  Elec       q    Type
REMARK                         _______ _______ _______ _____ _____    ______ ____
ROOT
ATOM      1  C   UNL     1       0.648   5.337  -4.745  0.00  0.00    +0.001 A 
ATOM      2  C   UNL     1       0.877   4.288  -5.628  0.00  0.00    -0.002 A 
ATOM      3  C   UNL     1       1.340   4.542  -6.914  0.00  0.00    -0.000 A 
ATOM      4  C   UNL     1       1.631   5.836  -7.330  0.00  0.00    -0.001 A 
ATOM      5  C   UNL     1       1.037   6.841  -6.577  0.00  0.00    -0.000 A 
ATOM      6  C   UNL     1       0.442   6.569  -5.352  0.00  0.00    -0.002 A 
ENDROOT
BRANCH   4   7
ATOM      7  C   UNL     1       2.822   6.144  -8.131  0.00  0.00    -0.006 A 
ATOM      8  C   UNL     1       2.820   5.841  -9.487  0.00  0.00    -0.015 A 
ATOM      9  C   UNL     1       3.999   5.489 -10.133  0.00  0.00    -0.007 A 
ATOM     10  C   UNL     1       5.153   5.207  -9.414  0.00  0.00    -0.001 A 
ATOM     11  C   UNL     1       5.213   5.710  -8.127  0.00  0.00    -0.000 A 
ATOM     12  C   UNL     1       4.080   6.275  -7.555  0.00  0.00    -0.001 A 
BRANCH   8  13
ATOM     13  C   UNL     1       1.562   6.018 -10.212  0.00  0.00    +0.044 A 
ATOM     14  N   UNL     1       0.801   7.127 -10.306  0.00  0.00    -0.289 NA
ATOM     15  N   UNL     1      -0.297   6.768 -10.921  0.00  0.00    -0.218 NA
ATOM     16  N   UNL     1      -0.240   5.496 -11.309  0.00  0.00    -0.218 NA
ATOM     17  N   UNL     1       0.828   4.988 -10.702  0.00  0.00    -0.289 NA
ENDBRANCH   8  13
ENDBRANCH   4   7
BRANCH   1  18
ATOM     18  C   UNL     1      -0.139   5.089  -3.502  0.00  0.00    +0.137 C 
BRANCH  18  20
ATOM     19  C   UNL     1       1.825   5.821  -2.179  0.00  0.00    +0.301 A 
ATOM     20  N   UNL     1       0.510   5.887  -2.466  0.00  0.00    -0.277 N 
ATOM     21  C   UNL     1      -0.173   6.412  -1.423  0.00  0.00    +0.088 A 
ATOM     22  C   UNL     1       0.816   6.787  -0.526  0.00  0.00    +0.102 A 
ATOM     23  C   UNL     1       0.424   7.556   0.563  0.00  0.00    +0.021 A 
ATOM     24  C   UNL     1      -0.833   8.142   0.561  0.00  0.00    +0.002 A 
ATOM     25  C   UNL     1      -1.783   7.784  -0.383  0.00  0.00    +0.008 A 
ATOM     26  C   UNL     1      -1.391   7.074  -1.490  0.00  0.00    +0.097 A 
ATOM     27  N   UNL     1       2.027   6.382  -0.977  0.00  0.00    -0.194 NA
BRANCH  26  28
ATOM     28  C   UNL     1      -2.156   7.198  -2.718  0.00  0.00    +0.389 C 
ATOM     29  O   UNL     1      -3.430   6.635  -2.743  0.00  0.00    -0.240 OA
ATOM     30  O   UNL     1      -2.014   8.265  -3.380  0.00  0.00    -0.240 OA
ENDBRANCH  26  28
BRANCH  19  31
ATOM     31  O   UNL     1       2.766   5.437  -3.141  0.00  0.00    -0.448 OA
BRANCH  31  33
ATOM     32  C   UNL     1       3.891   7.304  -4.043  0.00  0.00    +0.051 C 
ATOM     33  C   UNL     1       4.022   6.109  -3.127  0.00  0.00    +0.209 C 
ENDBRANCH  31  33
ENDBRANCH  19  31
ENDBRANCH  18  20
ENDBRANCH   1  18
TORSDOF 7
ENDMDL
MODEL 3
REMARK VINA RESULT:      -8.3      2.571      7.802
REMARK  Name = 
REMARK  7 active torsions:
REMARK  status: ('A' for Active; 'I' for Inactive)
REMARK    1  A    between atoms: C_2  and  O_3
REMARK    2  A    between atoms: O_3  and  C_4
REMARK    3  A    between atoms: C_10  and  C_11
REMARK    4  A    between atoms: N_15  and  C_16
REMARK    5  A    between atoms: C_16  and  C_17
REMARK    6  A    between atoms: C_20  and  C_21
REMARK    7  A    between atoms: C_26  and  C_27
REMARK                            x       y       z     vdW  Elec       q    Type
REMARK                         _______ _______ _______ _____ _____    ______ ____
ROOT
ATOM      1  C   UNL     1       3.591   5.627  -7.222  0.00  0.00    +0.001 A 
ATOM      2  C   UNL     1       2.869   4.514  -6.804  0.00  0.00    -0.002 A 
ATOM      3  C   UNL     1       1.996   4.609  -5.726  0.00  0.00    -0.000 A 
ATOM      4  C   UNL     1       1.787   5.819  -5.075  0.00  0.00    -0.001 A 
ATOM      5  C   UNL     1       2.782   6.769  -5.269  0.00  0.00    -0.000 A 
ATOM      6  C   UNL     1       3.748   6.611  -6.254  0.00  0.00    -0.002 A 
ENDROOT
BRANCH   4   7
ATOM      7  C   UNL     1       0.448   6.254  -4.657  0.00  0.00    -0.006 A 
ATOM      8  C   UNL     1      -0.104   5.719  -3.500  0.00  0.00    -0.015 A 
ATOM      9  C   UNL     1      -1.479   5.549  -3.388  0.00  0.00    -0.007 A 
ATOM     10  C   UNL     1      -2.310   5.687  -4.492  0.00  0.00    -0.001 A 
ATOM     11  C   UNL     1      -1.805   6.415  -5.554  0.00  0.00    -0.000 A 
ATOM     12  C   UNL     1      -0.466   6.785  -5.560  0.00  0.00    -0.001 A 
BRANCH   8  13
ATOM     13  C   UNL     1       0.804   5.454  -2.384  0.00  0.00    +0.044 A 
ATOM     14  N   UNL     1       0.846   4.371  -1.581  0.00  0.00    -0.289 NA
ATOM     15  N   UNL     1       1.709   4.648  -0.638  0.00  0.00    -0.218 NA
ATOM     16  N   UNL     1       2.294   5.825  -0.846  0.00  0.00    -0.218 NA
ATOM     17  N   UNL     1       1.593   6.400  -1.819  0.00  0.00    -0.289 NA
ENDBRANCH   8  13
ENDBRANCH   4   7
BRANCH   1  18
ATOM     18  C   UNL     1       4.741   5.445  -8.154  0.00  0.00    +0.137 C 
BRANCH  18  20
ATOM     19  C   UNL     1       2.922   6.013  -9.738  0.00  0.00    +0.301 A 
ATOM     20  N   UNL     1       4.222   5.764  -9.480  0.00  0.00    -0.277 N 
ATOM     21  C   UNL     1       4.867   5.411 -10.615  0.00  0.00    +0.088 A 
ATOM     22  C   UNL     1       3.918   5.584 -11.611  0.00  0.00    +0.102 A 
ATOM     23  C   UNL     1       4.358   5.499 -12.926  0.00  0.00    +0.021 A 
ATOM     24  C   UNL     1       5.719   5.534 -13.188  0.00  0.00    +0.002 A 
ATOM     25  C   UNL     1       6.645   5.412 -12.163  0.00  0.00    +0.008 A 
ATOM     26  C   UNL     1       6.225   5.553 -10.864  0.00  0.00    +0.097 A 
ATOM     27  N   UNL     1       2.724   5.908 -11.061  0.00  0.00    -0.194 NA
BRANCH  26  28
ATOM     28  C   UNL     1       7.167   6.019  -9.862  0.00  0.00    +0.389 C 
ATOM     29  O   UNL     1       8.006   5.074  -9.277  0.00  0.00    -0.240 OA
ATOM     30  O   UNL     1       7.668   7.167 -10.033  0.00  0.00    -0.240 OA
ENDBRANCH  26  28
BRANCH  19  31
ATOM     31  O   UNL     1       2.065   6.523  -8.757  0.00  0.00    -0.448 OA
BRANCH  31  33
ATOM     32  C   UNL     1      -0.037   5.457  -8.853  0.00  0.00    +0.051 C 
ATOM     33  C   UNL     1       0.708   6.743  -9.128  0.00  0.00    +0.209 C 
ENDBRANCH  31  33
ENDBRANCH  19  31
ENDBRANCH  18  20
ENDBRANCH   1  18
TORSDOF 7
ENDMDL
MODEL 4
REMARK VINA RESULT:      -8.3      3.341      8.364
REMARK  Name = 
REMARK  7 active torsions:
REMARK  status: ('A' for Active; 'I' for Inactive)
REMARK    1  A    between atoms: C_2  and  O_3
REMARK    2  A    between atoms: O_3  and  C_4
REMARK    3  A    between atoms: C_10  and  C_11
REMARK    4  A    between atoms: N_15  and  C_16
REMARK    5  A    between atoms: C_16  and  C_17
REMARK    6  A    between atoms: C_20  and  C_21
REMARK    7  A    between atoms: C_26  and  C_27
REMARK                            x       y       z     vdW  Elec       q    Type
REMARK                         _______ _______ _______ _____ _____    ______ ____
ROOT
ATOM      1  C   UNL     1       4.077   5.256 -10.494  0.00  0.00    +0.001 A 
ATOM      2  C   UNL     1       3.965   4.335  -9.458  0.00  0.00    -0.002 A 
ATOM      3  C   UNL     1       3.434   4.720  -8.232  0.00  0.00    -0.000 A 
ATOM      4  C   UNL     1       2.958   6.010  -8.029  0.00  0.00    -0.001 A 
ATOM      5  C   UNL     1       3.431   6.958  -8.927  0.00  0.00    -0.000 A 
ATOM      6  C   UNL     1       4.095   6.584 -10.088  0.00  0.00    -0.002 A 
ENDROOT
BRANCH   4   7
ATOM      7  C   UNL     1       1.712   6.271  -7.297  0.00  0.00    -0.006 A 
ATOM      8  C   UNL     1       1.690   6.093  -5.919  0.00  0.00    -0.015 A 
ATOM      9  C   UNL     1       0.525   5.686  -5.279  0.00  0.00    -0.007 A 
ATOM     10  C   UNL     1      -0.568   5.228  -6.004  0.00  0.00    -0.001 A 
ATOM     11  C   UNL     1      -0.625   5.606  -7.333  0.00  0.00    -0.000 A 
ATOM     12  C   UNL     1       0.471   6.225  -7.920  0.00  0.00    -0.001 A 
BRANCH   8  13
ATOM     13  C   UNL     1       2.896   6.457  -5.176  0.00  0.00    +0.044 A 
ATOM     14  N   UNL     1       3.660   7.560  -5.312  0.00  0.00    -0.289 NA
ATOM     15  N   UNL     1       4.709   7.375  -4.551  0.00  0.00    -0.218 NA
ATOM     16  N   UNL     1       4.612   6.243  -3.859  0.00  0.00    -0.218 NA
ATOM     17  N   UNL     1       3.583   5.590  -4.392  0.00  0.00    -0.289 NA
ENDBRANCH   8  13
ENDBRANCH   4   7
BRANCH   1  18
ATOM     18  C   UNL     1       4.926   4.928 -11.676  0.00  0.00    +0.137 C 
BRANCH  18  20
ATOM     19  C   UNL     1       3.014   5.453 -13.163  0.00  0.00    +0.301 A 
ATOM     20  N   UNL     1       4.304   5.615 -12.804  0.00  0.00    -0.277 N 
ATOM     21  C   UNL     1       5.023   6.104 -13.841  0.00  0.00    +0.088 A 
ATOM     22  C   UNL     1       4.075   6.357 -14.820  0.00  0.00    +0.102 A 
ATOM     23  C   UNL     1       4.494   7.070 -15.937  0.00  0.00    +0.021 A 
ATOM     24  C   UNL     1       5.715   7.725 -15.902  0.00  0.00    +0.002 A 
ATOM     25  C   UNL     1       6.621   7.489 -14.880  0.00  0.00    +0.008 A 
ATOM     26  C   UNL     1       6.198   6.837 -13.750  0.00  0.00    +0.097 A 
ATOM     27  N   UNL     1       2.860   5.917 -14.413  0.00  0.00    -0.194 NA
BRANCH  26  28
ATOM     28  C   UNL     1       6.876   7.089 -12.490  0.00  0.00    +0.389 C 
ATOM     29  O   UNL     1       8.166   6.587 -12.342  0.00  0.00    -0.240 OA
ATOM     30  O   UNL     1       6.649   8.198 -11.927  0.00  0.00    -0.240 OA
ENDBRANCH  26  28
BRANCH  19  31
ATOM     31  O   UNL     1       2.036   5.085 -12.233  0.00  0.00    -0.448 OA
BRANCH  31  33
ATOM     32  C   UNL     1      -0.141   5.154 -11.327  0.00  0.00    +0.051 C 
ATOM     33  C   UNL     1       0.881   5.912 -12.143  0.00  0.00    +0.209 C 
ENDBRANCH  31  33
ENDBRANCH  19  31
ENDBRANCH  18  20
ENDBRANCH   1  18
TORSDOF 7
ENDMDL
MODEL 5
REMARK VINA RESULT:      -8.1      2.315      8.626
REMARK  Name = 
REMARK  7 active torsions:
REMARK  status: ('A' for Active; 'I' for Inactive)
REMARK    1  A    between atoms: C_2  and  O_3
REMARK    2  A    between atoms: O_3  and  C_4
REMARK    3  A    between atoms: C_10  and  C_11
REMARK    4  A    between atoms: N_15  and  C_16
REMARK    5  A    between atoms: C_16  and  C_17
REMARK    6  A    between atoms: C_20  and  C_21
REMARK    7  A    between atoms: C_26  and  C_27
REMARK                            x       y       z     vdW  Elec       q    Type
REMARK                         _______ _______ _______ _____ _____    ______ ____
ROOT
ATOM      1  C   UNL     1       2.169   6.685  -8.497  0.00  0.00    +0.001 A 
ATOM      2  C   UNL     1       2.268   7.583  -7.440  0.00  0.00    -0.002 A 
ATOM      3  C   UNL     1       2.109   7.146  -6.130  0.00  0.00    -0.000 A 
ATOM      4  C   UNL     1       1.898   5.802  -5.842  0.00  0.00    -0.001 A 
ATOM      5  C   UNL     1       1.434   5.040  -6.908  0.00  0.00    -0.000 A 
ATOM      6  C   UNL     1       1.456   5.528  -8.208  0.00  0.00    -0.002 A 
ENDROOT
BRANCH   4   7
ATOM      7  C   UNL     1       2.565   5.136  -4.717  0.00  0.00    -0.006 A 
ATOM      8  C   UNL     1       2.100   5.364  -3.427  0.00  0.00    -0.015 A 
ATOM      9  C   UNL     1       2.975   5.341  -2.348  0.00  0.00    -0.007 A 
ATOM     10  C   UNL     1       4.351   5.323  -2.541  0.00  0.00    -0.001 A 
ATOM     11  C   UNL     1       4.791   4.883  -3.777  0.00  0.00    -0.000 A 
ATOM     12  C   UNL     1       3.876   4.686  -4.803  0.00  0.00    -0.001 A 
BRANCH   8  13
ATOM     13  C   UNL     1       0.655   5.513  -3.251  0.00  0.00    +0.044 A 
ATOM     14  N   UNL     1      -0.141   6.508  -3.690  0.00  0.00    -0.289 NA
ATOM     15  N   UNL     1      -1.320   6.294  -3.163  0.00  0.00    -0.218 NA
ATOM     16  N   UNL     1      -1.343   5.154  -2.477  0.00  0.00    -0.218 NA
ATOM     17  N   UNL     1      -0.072   4.775  -2.376  0.00  0.00    -0.289 NA
ENDBRANCH   8  13
ENDBRANCH   4   7
BRANCH   1  18
ATOM     18  C   UNL     1       2.023   7.204  -9.888  0.00  0.00    +0.137 C 
BRANCH  18  20
ATOM     19  C   UNL     1       4.177   6.173 -10.552  0.00  0.00    +0.301 A 
ATOM     20  N   UNL     1       2.848   6.331 -10.717  0.00  0.00    -0.277 N 
ATOM     21  C   UNL     1       2.482   5.960 -11.966  0.00  0.00    +0.088 A 
ATOM     22  C   UNL     1       3.643   5.441 -12.518  0.00  0.00    +0.102 A 
ATOM     23  C   UNL     1       3.524   4.780 -13.734  0.00  0.00    +0.021 A 
ATOM     24  C   UNL     1       2.265   4.423 -14.191  0.00  0.00    +0.002 A 
ATOM     25  C   UNL     1       1.121   4.918 -13.583  0.00  0.00    +0.008 A 
ATOM     26  C   UNL     1       1.225   5.520 -12.355  0.00  0.00    +0.097 A 
ATOM     27  N   UNL     1       4.680   5.616 -11.665  0.00  0.00    -0.194 NA
BRANCH  26  28
ATOM     28  C   UNL     1       0.082   5.501 -11.458  0.00  0.00    +0.389 C 
ATOM     29  O   UNL     1      -0.791   6.585 -11.505  0.00  0.00    -0.240 OA
ATOM     30  O   UNL     1      -0.448   4.378 -11.225  0.00  0.00    -0.240 OA
ENDBRANCH  26  28
BRANCH  19  31
ATOM     31  O   UNL     1       4.788   6.362  -9.308  0.00  0.00    -0.448 OA
BRANCH  31  33
ATOM     32  C   UNL     1       7.053   5.702  -9.251  0.00  0.00    +0.051 C 
ATOM     33  C   UNL     1       5.647   5.326  -8.841  0.00  0.00    +0.209 C 
ENDBRANCH  31  33
ENDBRANCH  19  31
ENDBRANCH  18  20
ENDBRANCH   1  18
TORSDOF 7
ENDMDL
MODEL 6
REMARK VINA RESULT:      -8.1      2.030      4.293
REMARK  Name = 
REMARK  7 active torsions:
REMARK  status: ('A' for Active; 'I' for Inactive)
REMARK    1  A    between atoms: C_2  and  O_3
REMARK    2  A    between atoms: O_3  and  C_4
REMARK    3  A    between atoms: C_10  and  C_11
REMARK    4  A    between atoms: N_15  and  C_16
REMARK    5  A    between atoms: C_16  and  C_17
REMARK    6  A    between atoms: C_20  and  C_21
REMARK    7  A    between atoms: C_26  and  C_27
REMARK                            x       y       z     vdW  Elec       q    Type
REMARK                         _______ _______ _______ _____ _____    ______ ____
ROOT
ATOM      1  C   UNL     1       1.865   4.725  -6.985  0.00  0.00    +0.001 A 
ATOM      2  C   UNL     1       2.448   3.759  -7.798  0.00  0.00    -0.002 A 
ATOM      3  C   UNL     1       3.154   4.133  -8.936  0.00  0.00    -0.000 A 
ATOM      4  C   UNL     1       3.337   5.472  -9.260  0.00  0.00    -0.001 A 
ATOM      5  C   UNL     1       2.441   6.348  -8.660  0.00  0.00    -0.000 A 
ATOM      6  C   UNL     1       1.625   5.941  -7.613  0.00  0.00    -0.002 A 
ENDROOT
BRANCH   4   7
ATOM      7  C   UNL     1       4.622   5.982  -9.754  0.00  0.00    -0.006 A 
ATOM      8  C   UNL     1       4.942   5.817 -11.096  0.00  0.00    -0.015 A 
ATOM      9  C   UNL     1       6.265   5.657 -11.490  0.00  0.00    -0.007 A 
ATOM     10  C   UNL     1       7.268   5.428 -10.557  0.00  0.00    -0.001 A 
ATOM     11  C   UNL     1       6.993   5.805  -9.255  0.00  0.00    -0.000 A 
ATOM     12  C   UNL     1       5.704   6.187  -8.907  0.00  0.00    -0.001 A 
BRANCH   8  13
ATOM     13  C   UNL     1       3.852   5.931 -12.065  0.00  0.00    +0.044 A 
ATOM     14  N   UNL     1       2.657   6.535 -11.910  0.00  0.00    -0.289 NA
ATOM     15  N   UNL     1       1.959   6.247 -12.979  0.00  0.00    -0.218 NA
ATOM     16  N   UNL     1       2.683   5.559 -13.858  0.00  0.00    -0.218 NA
ATOM     17  N   UNL     1       3.787   5.204 -13.207  0.00  0.00    -0.289 NA
ENDBRANCH   8  13
ENDBRANCH   4   7
BRANCH   1  18
ATOM     18  C   UNL     1       0.858   4.313  -5.965  0.00  0.00    +0.137 C 
BRANCH  18  20
ATOM     19  C   UNL     1       2.503   5.002  -4.245  0.00  0.00    +0.301 A 
ATOM     20  N   UNL     1       1.248   4.996  -4.735  0.00  0.00    -0.277 N 
ATOM     21  C   UNL     1       0.360   5.292  -3.758  0.00  0.00    +0.088 A 
ATOM     22  C   UNL     1       1.153   5.609  -2.666  0.00  0.00    +0.102 A 
ATOM     23  C   UNL     1       0.516   6.163  -1.562  0.00  0.00    +0.021 A 
ATOM     24  C   UNL     1      -0.782   6.630  -1.693  0.00  0.00    +0.002 A 
ATOM     25  C   UNL     1      -1.532   6.341  -2.823  0.00  0.00    +0.008 A 
ATOM     26  C   UNL     1      -0.900   5.847  -3.936  0.00  0.00    +0.097 A 
ATOM     27  N   UNL     1       2.456   5.387  -2.960  0.00  0.00    -0.194 NA
BRANCH  26  28
ATOM     28  C   UNL     1      -1.478   6.091  -5.245  0.00  0.00    +0.389 C 
ATOM     29  O   UNL     1      -2.504   5.247  -5.664  0.00  0.00    -0.240 OA
ATOM     30  O   UNL     1      -1.570   7.295  -5.619  0.00  0.00    -0.240 OA
ENDBRANCH  26  28
BRANCH  19  31
ATOM     31  O   UNL     1       3.616   4.855  -5.080  0.00  0.00    -0.448 OA
BRANCH  31  33
ATOM     32  C   UNL     1       4.340   7.077  -5.407  0.00  0.00    +0.051 C 
ATOM     33  C   UNL     1       4.721   5.725  -4.850  0.00  0.00    +0.209 C 
ENDBRANCH  31  33
ENDBRANCH  19  31
ENDBRANCH  18  20
ENDBRANCH   1  18
TORSDOF 7
ENDMDL
MODEL 7
REMARK VINA RESULT:      -8.1      2.280      4.390
REMARK  Name = 
REMARK  7 active torsions:
REMARK  status: ('A' for Active; 'I' for Inactive)
REMARK    1  A    between atoms: C_2  and  O_3
REMARK    2  A    between atoms: O_3  and  C_4
REMARK    3  A    between atoms: C_10  and  C_11
REMARK    4  A    between atoms: N_15  and  C_16
REMARK    5  A    between atoms: C_16  and  C_17
REMARK    6  A    between atoms: C_20  and  C_21
REMARK    7  A    between atoms: C_26  and  C_27
REMARK                            x       y       z     vdW  Elec       q    Type
REMARK                         _______ _______ _______ _____ _____    ______ ____
ROOT
ATOM      1  C   UNL     1       1.764   4.909  -7.003  0.00  0.00    +0.001 A 
ATOM      2  C   UNL     1       1.779   6.299  -7.038  0.00  0.00    -0.002 A 
ATOM      3  C   UNL     1       2.693   6.971  -7.841  0.00  0.00    -0.000 A 
ATOM      4  C   UNL     1       3.575   6.277  -8.662  0.00  0.00    -0.001 A 
ATOM      5  C   UNL     1       3.779   4.948  -8.312  0.00  0.00    -0.000 A 
ATOM      6  C   UNL     1       2.954   4.308  -7.396  0.00  0.00    -0.002 A 
ENDROOT
BRANCH   4   7
ATOM      7  C   UNL     1       3.864   6.713 -10.034  0.00  0.00    -0.006 A 
ATOM      8  C   UNL     1       3.122   6.180 -11.081  0.00  0.00    -0.015 A 
ATOM      9  C   UNL     1       3.695   6.011 -12.336  0.00  0.00    -0.007 A 
ATOM     10  C   UNL     1       5.064   6.148 -12.523  0.00  0.00    -0.001 A 
ATOM     11  C   UNL     1       5.745   6.874 -11.563  0.00  0.00    -0.000 A 
ATOM     12  C   UNL     1       5.098   7.243 -10.390  0.00  0.00    -0.001 A 
BRANCH   8  13
ATOM     13  C   UNL     1       1.705   5.917 -10.834  0.00  0.00    +0.044 A 
ATOM     14  N   UNL     1       1.090   4.725 -10.689  0.00  0.00    -0.289 NA
ATOM     15  N   UNL     1      -0.193   4.978 -10.643  0.00  0.00    -0.218 NA
ATOM     16  N   UNL     1      -0.430   6.288 -10.660  0.00  0.00    -0.218 NA
ATOM     17  N   UNL     1       0.734   6.853 -10.970  0.00  0.00    -0.289 NA
ENDBRANCH   8  13
ENDBRANCH   4   7
BRANCH   1  18
ATOM     18  C   UNL     1       1.014   4.211  -5.919  0.00  0.00    +0.137 C 
BRANCH  18  20
ATOM     19  C   UNL     1       2.382   5.196  -4.102  0.00  0.00    +0.301 A 
ATOM     20  N   UNL     1       1.199   5.034  -4.727  0.00  0.00    -0.277 N 
ATOM     21  C   UNL     1       0.179   5.337  -3.891  0.00  0.00    +0.088 A 
ATOM     22  C   UNL     1       0.808   5.820  -2.753  0.00  0.00    +0.102 A 
ATOM     23  C   UNL     1       0.002   6.413  -1.789  0.00  0.00    +0.021 A 
ATOM     24  C   UNL     1      -1.304   6.748  -2.111  0.00  0.00    +0.002 A 
ATOM     25  C   UNL     1      -1.887   6.292  -3.283  0.00  0.00    +0.008 A 
ATOM     26  C   UNL     1      -1.089   5.759  -4.263  0.00  0.00    +0.097 A 
ATOM     27  N   UNL     1       2.150   5.690  -2.876  0.00  0.00    -0.194 NA
BRANCH  26  28
ATOM     28  C   UNL     1      -1.523   5.831  -5.648  0.00  0.00    +0.389 C 
ATOM     29  O   UNL     1      -2.652   5.099  -6.008  0.00  0.00    -0.240 OA
ATOM     30  O   UNL     1      -1.372   6.937  -6.241  0.00  0.00    -0.240 OA
ENDBRANCH  26  28
BRANCH  19  31
ATOM     31  O   UNL     1       3.595   5.075  -4.788  0.00  0.00    -0.448 OA
BRANCH  31  33
ATOM     32  C   UNL     1       4.781   7.115  -4.797  0.00  0.00    +0.051 C 
ATOM     33  C   UNL     1       4.731   5.719  -4.219  0.00  0.00    +0.209 C 
ENDBRANCH  31  33
ENDBRANCH  19  31
ENDBRANCH  18  20
ENDBRANCH   1  18
TORSDOF 7
ENDMDL
MODEL 8
REMARK VINA RESULT:      -7.9      2.525      8.571
REMARK  Name = 
REMARK  7 active torsions:
REMARK  status: ('A' for Active; 'I' for Inactive)
REMARK    1  A    between atoms: C_2  and  O_3
REMARK    2  A    between atoms: O_3  and  C_4
REMARK    3  A    between atoms: C_10  and  C_11
REMARK    4  A    between atoms: N_15  and  C_16
REMARK    5  A    between atoms: C_16  and  C_17
REMARK    6  A    between atoms: C_20  and  C_21
REMARK    7  A    between atoms: C_26  and  C_27
REMARK                            x       y       z     vdW  Elec       q    Type
REMARK                         _______ _______ _______ _____ _____    ______ ____
ROOT
ATOM      1  C   UNL     1       1.320   6.484  -7.492  0.00  0.00    +0.001 A 
ATOM      2  C   UNL     1       1.155   7.497  -6.553  0.00  0.00    -0.002 A 
ATOM      3  C   UNL     1       0.661   7.207  -5.286  0.00  0.00    -0.000 A 
ATOM      4  C   UNL     1       0.370   5.901  -4.911  0.00  0.00    -0.001 A 
ATOM      5  C   UNL     1       0.187   5.015  -5.966  0.00  0.00    -0.000 A 
ATOM      6  C   UNL     1       0.545   5.354  -7.264  0.00  0.00    -0.002 A 
ENDROOT
BRANCH   4   7
ATOM      7  C   UNL     1       0.721   5.378  -3.585  0.00  0.00    -0.006 A 
ATOM      8  C   UNL     1      -0.059   5.737  -2.492  0.00  0.00    -0.015 A 
ATOM      9  C   UNL     1       0.510   5.854  -1.229  0.00  0.00    -0.007 A 
ATOM     10  C   UNL     1       1.889   5.844  -1.060  0.00  0.00    -0.001 A 
ATOM     11  C   UNL     1       2.629   5.280  -2.084  0.00  0.00    -0.000 A 
ATOM     12  C   UNL     1       2.007   4.950  -3.281  0.00  0.00    -0.001 A 
BRANCH   8  13
ATOM     13  C   UNL     1      -1.498   5.873  -2.709  0.00  0.00    +0.044 A 
ATOM     14  N   UNL     1      -2.249   6.992  -2.657  0.00  0.00    -0.289 NA
ATOM     15  N   UNL     1      -3.494   6.603  -2.762  0.00  0.00    -0.218 NA
ATOM     16  N   UNL     1      -3.576   5.291  -2.971  0.00  0.00    -0.218 NA
ATOM     17  N   UNL     1      -2.352   4.820  -2.747  0.00  0.00    -0.289 NA
ENDBRANCH   8  13
ENDBRANCH   4   7
BRANCH   1  18
ATOM     18  C   UNL     1       1.539   6.841  -8.923  0.00  0.00    +0.137 C 
BRANCH  18  20
ATOM     19  C   UNL     1       3.773   5.876  -8.452  0.00  0.00    +0.301 A 
ATOM     20  N   UNL     1       2.772   6.160  -9.309  0.00  0.00    -0.277 N 
ATOM     21  C   UNL     1       3.226   6.151 -10.583  0.00  0.00    +0.088 A 
ATOM     22  C   UNL     1       4.538   5.716 -10.471  0.00  0.00    +0.102 A 
ATOM     23  C   UNL     1       5.203   5.403 -11.650  0.00  0.00    +0.021 A 
ATOM     24  C   UNL     1       4.475   5.262 -12.821  0.00  0.00    +0.002 A 
ATOM     25  C   UNL     1       3.148   5.657 -12.886  0.00  0.00    +0.008 A 
ATOM     26  C   UNL     1       2.469   5.912 -11.722  0.00  0.00    +0.097 A 
ATOM     27  N   UNL     1       4.875   5.594  -9.165  0.00  0.00    -0.194 NA
BRANCH  26  28
ATOM     28  C   UNL     1       1.028   5.738 -11.690  0.00  0.00    +0.389 C 
ATOM     29  O   UNL     1       0.244   6.760 -12.221  0.00  0.00    -0.240 OA
ATOM     30  O   UNL     1       0.586   4.565 -11.852  0.00  0.00    -0.240 OA
ENDBRANCH  26  28
BRANCH  19  31
ATOM     31  O   UNL     1       3.538   5.694  -7.086  0.00  0.00    -0.448 OA
BRANCH  31  33
ATOM     32  C   UNL     1       4.483   6.748  -5.198  0.00  0.00    +0.051 C 
ATOM     33  C   UNL     1       4.675   5.659  -6.229  0.00  0.00    +0.209 C 
ENDBRANCH  31  33
ENDBRANCH  19  31
ENDBRANCH  18  20
ENDBRANCH   1  18
TORSDOF 7
ENDMDL
MODEL 9
REMARK VINA RESULT:      -7.9      1.632      2.014
REMARK  Name = 
REMARK  7 active torsions:
REMARK  status: ('A' for Active; 'I' for Inactive)
REMARK    1  A    between atoms: C_2  and  O_3
REMARK    2  A    between atoms: O_3  and  C_4
REMARK    3  A    between atoms: C_10  and  C_11
REMARK    4  A    between atoms: N_15  and  C_16
REMARK    5  A    between atoms: C_16  and  C_17
REMARK    6  A    between atoms: C_20  and  C_21
REMARK    7  A    between atoms: C_26  and  C_27
REMARK                            x       y       z     vdW  Elec       q    Type
REMARK                         _______ _______ _______ _____ _____    ______ ____
ROOT
ATOM      1  C   UNL     1       3.406   6.153  -5.578  0.00  0.00    +0.001 A 
ATOM      2  C   UNL     1       2.908   7.198  -6.349  0.00  0.00    -0.002 A 
ATOM      3  C   UNL     1       3.068   7.188  -7.730  0.00  0.00    -0.000 A 
ATOM      4  C   UNL     1       3.680   6.120  -8.375  0.00  0.00    -0.001 A 
ATOM      5  C   UNL     1       4.476   5.322  -7.562  0.00  0.00    -0.000 A 
ATOM      6  C   UNL     1       4.427   5.427  -6.178  0.00  0.00    -0.002 A 
ENDROOT
BRANCH   4   7
ATOM      7  C   UNL     1       3.159   5.571  -9.633  0.00  0.00    -0.006 A 
ATOM      8  C   UNL     1       3.615   6.095 -10.837  0.00  0.00    -0.015 A 
ATOM      9  C   UNL     1       2.783   6.132 -11.949  0.00  0.00    -0.007 A 
ATOM     10  C   UNL     1       1.424   5.868 -11.837  0.00  0.00    -0.001 A 
ATOM     11  C   UNL     1       1.028   5.152 -10.722  0.00  0.00    -0.000 A 
ATOM     12  C   UNL     1       1.935   4.917  -9.697  0.00  0.00    -0.001 A 
BRANCH   8  13
ATOM     13  C   UNL     1       5.021   6.493 -10.906  0.00  0.00    +0.044 A 
ATOM     14  N   UNL     1       6.115   5.725 -10.729  0.00  0.00    -0.289 NA
ATOM     15  N   UNL     1       7.139   6.541 -10.730  0.00  0.00    -0.218 NA
ATOM     16  N   UNL     1       6.762   7.790 -10.991  0.00  0.00    -0.218 NA
ATOM     17  N   UNL     1       5.434   7.784 -10.909  0.00  0.00    -0.289 NA
ENDBRANCH   8  13
ENDBRANCH   4   7
BRANCH   1  18
ATOM     18  C   UNL     1       3.514   6.322  -4.100  0.00  0.00    +0.137 C 
BRANCH  18  20
ATOM     19  C   UNL     1       1.270   5.290  -4.301  0.00  0.00    +0.301 A 
ATOM     20  N   UNL     1       2.228   5.887  -3.564  0.00  0.00    -0.277 N 
ATOM     21  C   UNL     1       1.693   6.418  -2.440  0.00  0.00    +0.088 A 
ATOM     22  C   UNL     1       0.371   6.002  -2.465  0.00  0.00    +0.102 A 
ATOM     23  C   UNL     1      -0.382   6.221  -1.318  0.00  0.00    +0.021 A 
ATOM     24  C   UNL     1       0.262   6.568  -0.141  0.00  0.00    +0.002 A 
ATOM     25  C   UNL     1       1.600   6.930  -0.142  0.00  0.00    +0.008 A 
ATOM     26  C   UNL     1       2.364   6.663  -1.250  0.00  0.00    +0.097 A 
ATOM     27  N   UNL     1       0.113   5.351  -3.624  0.00  0.00    -0.194 NA
BRANCH  26  28
ATOM     28  C   UNL     1       3.794   6.464  -1.093  0.00  0.00    +0.389 C 
ATOM     29  O   UNL     1       4.605   7.597  -1.093  0.00  0.00    -0.240 OA
ATOM     30  O   UNL     1       4.165   5.522  -0.337  0.00  0.00    -0.240 OA
ENDBRANCH  26  28
BRANCH  19  31
ATOM     31  O   UNL     1       1.582   4.550  -5.446  0.00  0.00    -0.448 OA
BRANCH  31  33
ATOM     32  C   UNL     1      -0.093   5.456  -6.839  0.00  0.00    +0.051 C 
ATOM     33  C   UNL     1       0.501   4.177  -6.295  0.00  0.00    +0.209 C 
ENDBRANCH  31  33
ENDBRANCH  19  31
ENDBRANCH  18  20
ENDBRANCH   1  18
TORSDOF 7
ENDMDL
