MODEL 1
REMARK VINA RESULT:      -7.7      0.000      0.000
REMARK  Name = 
REMARK  1 active torsions:
REMARK  status: ('A' for Active; 'I' for Inactive)
REMARK    1  A    between atoms: C_8  and  C_9
REMARK                            x       y       z     vdW  Elec       q    Type
REMARK                         _______ _______ _______ _____ _____    ______ ____
ROOT
ATOM      1  N   UNL     1       5.424   5.972 -11.988  0.00  0.00    -0.086 NA
ATOM      2  C   UNL     1       4.286   5.610 -11.195  0.00  0.00    +0.259 A 
ATOM      3  N   UNL     1       4.379   5.418  -9.859  0.00  0.00    -0.190 NA
ATOM      4  C   UNL     1       3.234   5.181  -9.178  0.00  0.00    +0.187 A 
ATOM      5  C   UNL     1       2.022   5.497  -9.778  0.00  0.00    +0.152 A 
ATOM      6  N   UNL     1       0.901   5.597  -9.026  0.00  0.00    -0.236 NA
ATOM      7  C   UNL     1       1.032   5.278  -7.715  0.00  0.00    +0.116 A 
ATOM      8  C   UNL     1       2.080   4.447  -7.336  0.00  0.00    +0.189 A 
ATOM      9  N   UNL     1       1.861   3.537  -6.250  0.00  0.00    -0.106 NA
ATOM     10  C   UNL     1       1.915   5.614 -11.157  0.00  0.00    +0.193 A 
ATOM     11  N   UNL     1       0.666   5.445 -11.834  0.00  0.00    -0.105 NA
ATOM     12  N   UNL     1       3.241   4.463  -8.028  0.00  0.00    -0.205 NA
ATOM     13  N   UNL     1       3.092   5.679 -11.827  0.00  0.00    -0.191 NA
ENDROOT
BRANCH   7  14
ATOM     14  C   UNL     1      -0.006   5.661  -6.752  0.00  0.00    +0.021 A 
ATOM     15  C   UNL     1      -1.336   5.373  -7.023  0.00  0.00    +0.002 A 
ATOM     16  C   UNL     1      -2.230   5.636  -5.995  0.00  0.00    +0.000 A 
ATOM     17  C   UNL     1      -1.817   6.338  -4.870  0.00  0.00    +0.000 A 
ATOM     18  C   UNL     1      -0.700   7.125  -5.015  0.00  0.00    +0.000 A 
ATOM     19  C   UNL     1       0.232   6.743  -5.943  0.00  0.00    +0.002 A 
ENDBRANCH   7  14
TORSDOF 1
ENDMDL
MODEL 2
REMARK VINA RESULT:      -7.5      5.059      7.143
REMARK  Name = 
REMARK  1 active torsions:
REMARK  status: ('A' for Active; 'I' for Inactive)
REMARK    1  A    between atoms: C_8  and  C_9
REMARK                            x       y       z     vdW  Elec       q    Type
REMARK                         _______ _______ _______ _____ _____    ______ ____
ROOT
ATOM      1  N   UNL     1       4.769   7.002   0.510  0.00  0.00    -0.086 NA
ATOM      2  C   UNL     1       3.797   6.437  -0.379  0.00  0.00    +0.259 A 
ATOM      3  N   UNL     1       2.474   6.677  -0.234  0.00  0.00    -0.190 NA
ATOM      4  C   UNL     1       1.640   6.187  -1.180  0.00  0.00    +0.187 A 
ATOM      5  C   UNL     1       2.172   5.796  -2.402  0.00  0.00    +0.152 A 
ATOM      6  N   UNL     1       1.359   5.627  -3.471  0.00  0.00    -0.236 NA
ATOM      7  C   UNL     1       0.031   5.765  -3.237  0.00  0.00    +0.116 A 
ATOM      8  C   UNL     1      -0.438   5.581  -1.942  0.00  0.00    +0.189 A 
ATOM      9  N   UNL     1      -1.737   4.999  -1.771  0.00  0.00    -0.106 NA
ATOM     10  C   UNL     1       3.517   5.473  -2.527  0.00  0.00    +0.193 A 
ATOM     11  N   UNL     1       3.995   4.624  -3.575  0.00  0.00    -0.105 NA
ATOM     12  N   UNL     1       0.352   5.883  -0.887  0.00  0.00    -0.205 NA
ATOM     13  N   UNL     1       4.299   5.831  -1.479  0.00  0.00    -0.191 NA
ENDROOT
BRANCH   7  14
ATOM     14  C   UNL     1      -0.904   5.936  -4.355  0.00  0.00    +0.021 A 
ATOM     15  C   UNL     1      -0.614   5.366  -5.587  0.00  0.00    +0.002 A 
ATOM     16  C   UNL     1      -1.620   5.451  -6.539  0.00  0.00    +0.000 A 
ATOM     17  C   UNL     1      -2.736   6.245  -6.311  0.00  0.00    +0.000 A 
ATOM     18  C   UNL     1      -2.594   7.248  -5.384  0.00  0.00    +0.000 A 
ATOM     19  C   UNL     1      -1.693   7.058  -4.371  0.00  0.00    +0.002 A 
ENDBRANCH   7  14
TORSDOF 1
ENDMDL
MODEL 3
REMARK VINA RESULT:      -7.4      1.948      6.411
REMARK  Name = 
REMARK  1 active torsions:
REMARK  status: ('A' for Active; 'I' for Inactive)
REMARK    1  A    between atoms: C_8  and  C_9
REMARK                            x       y       z     vdW  Elec       q    Type
REMARK                         _______ _______ _______ _____ _____    ______ ____
ROOT
ATOM      1  N   UNL     1      -1.725   5.657  -6.796  0.00  0.00    -0.086 NA
ATOM      2  C   UNL     1      -0.463   5.380  -7.416  0.00  0.00    +0.259 A 
ATOM      3  N   UNL     1      -0.128   5.905  -8.617  0.00  0.00    -0.190 NA
ATOM      4  C   UNL     1       1.124   5.673  -9.076  0.00  0.00    +0.187 A 
ATOM      5  C   UNL     1       2.095   5.243  -8.180  0.00  0.00    +0.152 A 
ATOM      6  N   UNL     1       3.405   5.325  -8.512  0.00  0.00    -0.236 NA
ATOM      7  C   UNL     1       3.675   5.748  -9.771  0.00  0.00    +0.116 A 
ATOM      8  C   UNL     1       2.696   5.599 -10.746  0.00  0.00    +0.189 A 
ATOM      9  N   UNL     1       3.116   5.319 -12.088  0.00  0.00    -0.106 NA
ATOM     10  C   UNL     1       1.745   4.631  -6.984  0.00  0.00    +0.193 A 
ATOM     11  N   UNL     1       2.643   3.758  -6.292  0.00  0.00    -0.105 NA
ATOM     12  N   UNL     1       1.389   5.653 -10.405  0.00  0.00    -0.205 NA
ATOM     13  N   UNL     1       0.439   4.741  -6.637  0.00  0.00    -0.191 NA
ENDROOT
BRANCH   7  14
ATOM     14  C   UNL     1       5.027   6.190 -10.130  0.00  0.00    +0.021 A 
ATOM     15  C   UNL     1       6.119   5.715  -9.416  0.00  0.00    +0.002 A 
ATOM     16  C   UNL     1       7.364   6.068  -9.916  0.00  0.00    +0.000 A 
ATOM     17  C   UNL     1       7.470   7.008 -10.933  0.00  0.00    +0.000 A 
ATOM     18  C   UNL     1       6.410   7.869 -11.083  0.00  0.00    +0.000 A 
ATOM     19  C   UNL     1       5.170   7.424 -10.713  0.00  0.00    +0.002 A 
ENDBRANCH   7  14
TORSDOF 1
ENDMDL
MODEL 4
REMARK VINA RESULT:      -7.4      3.089      6.528
REMARK  Name = 
REMARK  1 active torsions:
REMARK  status: ('A' for Active; 'I' for Inactive)
REMARK    1  A    between atoms: C_8  and  C_9
REMARK                            x       y       z     vdW  Elec       q    Type
REMARK                         _______ _______ _______ _____ _____    ______ ____
ROOT
ATOM      1  N   UNL     1      -2.377   4.963  -1.893  0.00  0.00    -0.086 NA
ATOM      2  C   UNL     1      -1.661   5.424  -3.045  0.00  0.00    +0.259 A 
ATOM      3  N   UNL     1      -0.310   5.486  -3.068  0.00  0.00    -0.190 NA
ATOM      4  C   UNL     1       0.283   5.834  -4.234  0.00  0.00    +0.187 A 
ATOM      5  C   UNL     1      -0.455   5.756  -5.408  0.00  0.00    +0.152 A 
ATOM      6  N   UNL     1       0.177   5.763  -6.605  0.00  0.00    -0.236 NA
ATOM      7  C   UNL     1       1.519   5.947  -6.569  0.00  0.00    +0.116 A 
ATOM      8  C   UNL     1       2.074   6.576  -5.461  0.00  0.00    +0.189 A 
ATOM      9  N   UNL     1       3.220   7.414  -5.663  0.00  0.00    -0.106 NA
ATOM     10  C   UNL     1      -1.843   5.774  -5.384  0.00  0.00    +0.193 A 
ATOM     11  N   UNL     1      -2.612   6.185  -6.518  0.00  0.00    -0.105 NA
ATOM     12  N   UNL     1       1.494   6.443  -4.247  0.00  0.00    -0.205 NA
ATOM     13  N   UNL     1      -2.404   5.588  -4.164  0.00  0.00    -0.191 NA
ENDROOT
BRANCH   7  14
ATOM     14  C   UNL     1       2.340   5.644  -7.747  0.00  0.00    +0.021 A 
ATOM     15  C   UNL     1       2.144   6.355  -8.923  0.00  0.00    +0.002 A 
ATOM     16  C   UNL     1       3.060   6.107  -9.935  0.00  0.00    +0.000 A 
ATOM     17  C   UNL     1       3.964   5.058  -9.821  0.00  0.00    +0.000 A 
ATOM     18  C   UNL     1       3.625   4.051  -8.951  0.00  0.00    +0.000 A 
ATOM     19  C   UNL     1       2.838   4.373  -7.878  0.00  0.00    +0.002 A 
ENDBRANCH   7  14
TORSDOF 1
ENDMDL
MODEL 5
REMARK VINA RESULT:      -7.3      2.834      6.770
REMARK  Name = 
REMARK  1 active torsions:
REMARK  status: ('A' for Active; 'I' for Inactive)
REMARK    1  A    between atoms: C_8  and  C_9
REMARK                            x       y       z     vdW  Elec       q    Type
REMARK                         _______ _______ _______ _____ _____    ______ ____
ROOT
ATOM      1  N   UNL     1       0.123   5.904  -2.343  0.00  0.00    -0.086 NA
ATOM      2  C   UNL     1       1.071   5.538  -3.352  0.00  0.00    +0.259 A 
ATOM      3  N   UNL     1       0.712   5.384  -4.647  0.00  0.00    -0.190 NA
ATOM      4  C   UNL     1       1.693   5.139  -5.546  0.00  0.00    +0.187 A 
ATOM      5  C   UNL     1       3.008   5.410  -5.191  0.00  0.00    +0.152 A 
ATOM      6  N   UNL     1       3.962   5.503  -6.147  0.00  0.00    -0.236 NA
ATOM      7  C   UNL     1       3.566   5.224  -7.412  0.00  0.00    +0.116 A 
ATOM      8  C   UNL     1       2.441   4.428  -7.596  0.00  0.00    +0.189 A 
ATOM      9  N   UNL     1       2.416   3.544  -8.724  0.00  0.00    -0.106 NA
ATOM     10  C   UNL     1       3.388   5.486  -3.857  0.00  0.00    +0.193 A 
ATOM     11  N   UNL     1       4.741   5.269  -3.444  0.00  0.00    -0.105 NA
ATOM     12  N   UNL     1       1.440   4.454  -6.688  0.00  0.00    -0.205 NA
ATOM     13  N   UNL     1       2.368   5.561  -2.967  0.00  0.00    -0.191 NA
ENDROOT
BRANCH   7  14
ATOM     14  C   UNL     1       4.405   5.608  -8.553  0.00  0.00    +0.021 A 
ATOM     15  C   UNL     1       5.779   5.424  -8.489  0.00  0.00    +0.002 A 
ATOM     16  C   UNL     1       6.474   5.675  -9.664  0.00  0.00    +0.000 A 
ATOM     17  C   UNL     1       5.836   6.275 -10.742  0.00  0.00    +0.000 A 
ATOM     18  C   UNL     1       4.702   6.997 -10.457  0.00  0.00    +0.000 A 
ATOM     19  C   UNL     1       3.962   6.618  -9.369  0.00  0.00    +0.002 A 
ENDBRANCH   7  14
TORSDOF 1
ENDMDL
MODEL 6
REMARK VINA RESULT:      -7.3      1.747      2.141
REMARK  Name = 
REMARK  1 active torsions:
REMARK  status: ('A' for Active; 'I' for Inactive)
REMARK    1  A    between atoms: C_8  and  C_9
REMARK                            x       y       z     vdW  Elec       q    Type
REMARK                         _______ _______ _______ _____ _____    ______ ____
ROOT
ATOM      1  N   UNL     1       6.308   5.513  -9.108  0.00  0.00    -0.086 NA
ATOM      2  C   UNL     1       5.019   5.277  -8.528  0.00  0.00    +0.259 A 
ATOM      3  N   UNL     1       4.731   5.638  -7.256  0.00  0.00    -0.190 NA
ATOM      4  C   UNL     1       3.459   5.470  -6.828  0.00  0.00    +0.187 A 
ATOM      5  C   UNL     1       2.455   5.292  -7.772  0.00  0.00    +0.152 A 
ATOM      6  N   UNL     1       1.158   5.460  -7.419  0.00  0.00    -0.236 NA
ATOM      7  C   UNL     1       0.925   5.704  -6.107  0.00  0.00    +0.116 A 
ATOM      8  C   UNL     1       1.875   5.300  -5.177  0.00  0.00    +0.189 A 
ATOM      9  N   UNL     1       1.417   4.857  -3.892  0.00  0.00    -0.106 NA
ATOM     10  C   UNL     1       2.747   4.844  -9.053  0.00  0.00    +0.193 A 
ATOM     11  N   UNL     1       1.767   4.192  -9.866  0.00  0.00    -0.105 NA
ATOM     12  N   UNL     1       3.183   5.268  -5.517  0.00  0.00    -0.205 NA
ATOM     13  N   UNL     1       4.060   4.868  -9.390  0.00  0.00    -0.191 NA
ENDROOT
BRANCH   7  14
ATOM     14  C   UNL     1      -0.376   6.225  -5.670  0.00  0.00    +0.021 A 
ATOM     15  C   UNL     1      -1.535   5.801  -6.306  0.00  0.00    +0.002 A 
ATOM     16  C   UNL     1      -2.724   6.228  -5.733  0.00  0.00    +0.000 A 
ATOM     17  C   UNL     1      -2.714   7.186  -4.728  0.00  0.00    +0.000 A 
ATOM     18  C   UNL     1      -1.601   7.989  -4.659  0.00  0.00    +0.000 A 
ATOM     19  C   UNL     1      -0.413   7.472  -5.099  0.00  0.00    +0.002 A 
ENDBRANCH   7  14
TORSDOF 1
ENDMDL
MODEL 7
REMARK VINA RESULT:      -7.1      2.573      4.210
REMARK  Name = 
REMARK  1 active torsions:
REMARK  status: ('A' for Active; 'I' for Inactive)
REMARK    1  A    between atoms: C_8  and  C_9
REMARK                            x       y       z     vdW  Elec       q    Type
REMARK                         _______ _______ _______ _____ _____    ______ ____
ROOT
ATOM      1  N   UNL     1       7.323   4.989 -13.868  0.00  0.00    -0.086 NA
ATOM      2  C   UNL     1       6.666   5.409 -12.665  0.00  0.00    +0.259 A 
ATOM      3  N   UNL     1       5.332   5.267 -12.495  0.00  0.00    -0.190 NA
ATOM      4  C   UNL     1       4.815   5.595 -11.288  0.00  0.00    +0.187 A 
ATOM      5  C   UNL     1       5.673   5.706 -10.202  0.00  0.00    +0.152 A 
ATOM      6  N   UNL     1       5.175   5.695  -8.942  0.00  0.00    -0.236 NA
ATOM      7  C   UNL     1       3.825   5.670  -8.836  0.00  0.00    +0.116 A 
ATOM      8  C   UNL     1       3.066   6.134  -9.904  0.00  0.00    +0.189 A 
ATOM      9  N   UNL     1       1.829   6.799  -9.615  0.00  0.00    -0.106 NA
ATOM     10  C   UNL     1       7.031   5.932 -10.382  0.00  0.00    +0.193 A 
ATOM     11  N   UNL     1       7.839   6.528  -9.362  0.00  0.00    -0.105 NA
ATOM     12  N   UNL     1       3.532   6.013 -11.168  0.00  0.00    -0.205 NA
ATOM     13  N   UNL     1       7.485   5.756 -11.647  0.00  0.00    -0.191 NA
ENDROOT
BRANCH   7  14
ATOM     14  C   UNL     1       3.188   5.323  -7.561  0.00  0.00    +0.021 A 
ATOM     15  C   UNL     1       3.742   5.773  -6.371  0.00  0.00    +0.002 A 
ATOM     16  C   UNL     1       2.995   5.524  -5.228  0.00  0.00    +0.000 A 
ATOM     17  C   UNL     1       1.885   4.692  -5.284  0.00  0.00    +0.000 A 
ATOM     18  C   UNL     1       1.836   3.805  -6.332  0.00  0.00    +0.000 A 
ATOM     19  C   UNL     1       2.464   4.159  -7.496  0.00  0.00    +0.002 A 
ENDBRANCH   7  14
TORSDOF 1
ENDMDL
MODEL 8
REMARK VINA RESULT:      -6.9      2.785      3.989
REMARK  Name = 
REMARK  1 active torsions:
REMARK  status: ('A' for Active; 'I' for Inactive)
REMARK    1  A    between atoms: C_8  and  C_9
REMARK                            x       y       z     vdW  Elec       q    Type
REMARK                         _______ _______ _______ _____ _____    ______ ____
ROOT
ATOM      1  N   UNL     1       3.014   5.213 -14.377  0.00  0.00    -0.086 NA
ATOM      2  C   UNL     1       3.354   5.600 -13.040  0.00  0.00    +0.259 A 
ATOM      3  N   UNL     1       2.408   5.924 -12.129  0.00  0.00    -0.190 NA
ATOM      4  C   UNL     1       2.816   6.177 -10.864  0.00  0.00    +0.187 A 
ATOM      5  C   UNL     1       4.080   5.753 -10.472  0.00  0.00    +0.152 A 
ATOM      6  N   UNL     1       4.390   5.679  -9.156  0.00  0.00    -0.236 NA
ATOM      7  C   UNL     1       3.446   6.128  -8.295  0.00  0.00    +0.116 A 
ATOM      8  C   UNL     1       2.501   7.036  -8.760  0.00  0.00    +0.189 A 
ATOM      9  N   UNL     1       2.022   8.036  -7.851  0.00  0.00    -0.106 NA
ATOM     10  C   UNL     1       5.072   5.499 -11.409  0.00  0.00    +0.193 A 
ATOM     11  N   UNL     1       6.462   5.549 -11.070  0.00  0.00    -0.105 NA
ATOM     12  N   UNL     1       2.110   7.002 -10.053  0.00  0.00    -0.205 NA
ATOM     13  N   UNL     1       4.649   5.420 -12.695  0.00  0.00    -0.191 NA
ENDROOT
BRANCH   7  14
ATOM     14  C   UNL     1       3.526   5.795  -6.868  0.00  0.00    +0.021 A 
ATOM     15  C   UNL     1       4.727   5.957  -6.191  0.00  0.00    +0.002 A 
ATOM     16  C   UNL     1       4.674   5.762  -4.818  0.00  0.00    +0.000 A 
ATOM     17  C   UNL     1       3.533   5.232  -4.229  0.00  0.00    +0.000 A 
ATOM     18  C   UNL     1       2.699   4.511  -5.050  0.00  0.00    +0.000 A 
ATOM     19  C   UNL     1       2.673   4.839  -6.379  0.00  0.00    +0.002 A 
ENDBRANCH   7  14
TORSDOF 1
ENDMDL
MODEL 9
REMARK VINA RESULT:      -6.7      2.652      6.137
REMARK  Name = 
REMARK  1 active torsions:
REMARK  status: ('A' for Active; 'I' for Inactive)
REMARK    1  A    between atoms: C_8  and  C_9
REMARK                            x       y       z     vdW  Elec       q    Type
REMARK                         _______ _______ _______ _____ _____    ______ ____
ROOT
ATOM      1  N   UNL     1      -0.267   4.724  -1.860  0.00  0.00    -0.086 NA
ATOM      2  C   UNL     1      -0.169   5.284  -3.175  0.00  0.00    +0.259 A 
ATOM      3  N   UNL     1       0.919   5.088  -3.955  0.00  0.00    -0.190 NA
ATOM      4  C   UNL     1       0.879   5.568  -5.220  0.00  0.00    +0.187 A 
ATOM      5  C   UNL     1      -0.352   5.899  -5.770  0.00  0.00    +0.152 A 
ATOM      6  N   UNL     1      -0.474   6.053  -7.110  0.00  0.00    -0.236 NA
ATOM      7  C   UNL     1       0.671   5.961  -7.827  0.00  0.00    +0.116 A 
ATOM      8  C   UNL     1       1.879   6.205  -7.184  0.00  0.00    +0.189 A 
ATOM      9  N   UNL     1       2.930   6.829  -7.934  0.00  0.00    -0.106 NA
ATOM     10  C   UNL     1      -1.446   6.179  -4.962  0.00  0.00    +0.193 A 
ATOM     11  N   UNL     1      -2.541   6.976  -5.424  0.00  0.00    -0.105 NA
ATOM     12  N   UNL     1       2.015   5.918  -5.870  0.00  0.00    -0.205 NA
ATOM     13  N   UNL     1      -1.306   5.837  -3.658  0.00  0.00    -0.191 NA
ENDROOT
BRANCH   7  14
ATOM     14  C   UNL     1       0.622   5.778  -9.282  0.00  0.00    +0.021 A 
ATOM     15  C   UNL     1       0.359   6.866 -10.103  0.00  0.00    +0.002 A 
ATOM     16  C   UNL     1       0.478   6.632 -11.466  0.00  0.00    +0.000 A 
ATOM     17  C   UNL     1       0.639   5.338 -11.944  0.00  0.00    +0.000 A 
ATOM     18  C   UNL     1       0.222   4.324 -11.116  0.00  0.00    +0.000 A 
ATOM     19  C   UNL     1       0.262   4.546  -9.766  0.00  0.00    +0.002 A 
ENDBRANCH   7  14
TORSDOF 1
ENDMDL
