MODEL 1
REMARK VINA RESULT:      -7.0      0.000      0.000
REMARK  Name = 
REMARK  10 active torsions:
REMARK  status: ('A' for Active; 'I' for Inactive)
REMARK    1  A    between atoms: C_2  and  O_3
REMARK    2  A    between atoms: O_3  and  C_4
REMARK    3  A    between atoms: C_4  and  C_6
REMARK    4  A    between atoms: C_7  and  C_8
REMARK    5  A    between atoms: C_8  and  O_9
REMARK    6  A    between atoms: O_9  and  C_10
REMARK    7  A    between atoms: C_10  and  C_11
REMARK    8  A    between atoms: C_16  and  C_17
REMARK    9  A    between atoms: C_17  and  O_19
REMARK   10  A    between atoms: C_21  and  C_22
REMARK                            x       y       z     vdW  Elec       q    Type
REMARK                         _______ _______ _______ _____ _____    ______ ____
ROOT
ATOM      1  C   UNL     1       1.871   6.188  -5.016  0.00  0.00    +0.075 C 
ATOM      2  C   UNL     1       0.699   6.796  -4.085  0.00  0.00    +0.082 C 
ATOM      3  C   UNL     1       0.681   5.612  -2.971  0.00  0.00    +0.073 C 
ATOM      4  C   UNL     1       1.916   5.573  -2.457  0.00  0.00    +0.051 C 
ATOM      5  C   UNL     1       2.217   5.536  -1.015  0.00  0.00    +0.049 C 
ATOM      6  N   UNL     1       2.725   4.823  -3.374  0.00  0.00    -0.219 NA
ATOM      7  C   UNL     1       2.388   5.053  -4.749  0.00  0.00    +0.080 C 
ENDROOT
BRANCH   2   8
ATOM      8  C   UNL     1      -0.510   6.119  -4.936  0.00  0.00    -0.003 A 
ATOM      9  C   UNL     1      -1.678   6.881  -4.913  0.00  0.00    +0.054 A 
ATOM     10 CL   UNL     1      -1.748   8.556  -4.362  0.00  0.00    -0.083 Cl
ATOM     11  C   UNL     1      -2.694   6.382  -5.725  0.00  0.00    +0.011 A 
ATOM     12  C   UNL     1      -2.396   5.576  -6.819  0.00  0.00    +0.001 A 
ATOM     13  C   UNL     1      -1.070   5.347  -7.171  0.00  0.00    -0.000 A 
ATOM     14  C   UNL     1      -0.152   5.687  -6.212  0.00  0.00    -0.003 A 
ENDBRANCH   2   8
BRANCH   1  15
ATOM     15  C   UNL     1       2.507   7.223  -5.850  0.00  0.00    +0.339 C 
ATOM     16  O   UNL     1       2.160   7.410  -7.029  0.00  0.00    -0.245 OA
BRANCH  15  17
ATOM     17  O   UNL     1       3.846   7.549  -5.598  0.00  0.00    -0.446 OA
BRANCH  17  19
ATOM     18  C   UNL     1       5.539   7.063  -4.062  0.00  0.00    +0.051 C 
ATOM     19  C   UNL     1       4.332   7.844  -4.295  0.00  0.00    +0.209 C 
ENDBRANCH  17  19
ENDBRANCH  15  17
ENDBRANCH   1  15
BRANCH   3  20
ATOM     20  C   UNL     1      -0.400   5.690  -1.998  0.00  0.00    +0.339 C 
ATOM     21  O   UNL     1      -1.353   4.855  -2.050  0.00  0.00    -0.245 OA
BRANCH  20  22
ATOM     22  O   UNL     1      -0.693   6.958  -1.495  0.00  0.00    -0.442 OA
ATOM     23  C   UNL     1      -1.984   7.305  -0.999  0.00  0.00    +0.256 C 
ENDBRANCH  20  22
ENDBRANCH   3  20
BRANCH   7  24
ATOM     24  C   UNL     1       3.164   4.415  -5.860  0.00  0.00    +0.185 C 
BRANCH  24  25
ATOM     25  O   UNL     1       2.166   3.677  -6.524  0.00  0.00    -0.346 OA
BRANCH  25  26
ATOM     26  C   UNL     1       2.357   3.794  -7.900  0.00  0.00    +0.163 C 
BRANCH  26  27
ATOM     27  C   UNL     1       3.665   4.500  -8.107  0.00  0.00    +0.141 C 
ATOM     28  N   UNL     1       3.961   4.602  -9.535  0.00  0.00    -0.129 NA
ENDBRANCH  26  27
ENDBRANCH  25  26
ENDBRANCH  24  25
ENDBRANCH   7  24
TORSDOF 10
ENDMDL
MODEL 2
REMARK VINA RESULT:      -6.9      1.640      2.658
REMARK  Name = 
REMARK  10 active torsions:
REMARK  status: ('A' for Active; 'I' for Inactive)
REMARK    1  A    between atoms: C_2  and  O_3
REMARK    2  A    between atoms: O_3  and  C_4
REMARK    3  A    between atoms: C_4  and  C_6
REMARK    4  A    between atoms: C_7  and  C_8
REMARK    5  A    between atoms: C_8  and  O_9
REMARK    6  A    between atoms: O_9  and  C_10
REMARK    7  A    between atoms: C_10  and  C_11
REMARK    8  A    between atoms: C_16  and  C_17
REMARK    9  A    between atoms: C_17  and  O_19
REMARK   10  A    between atoms: C_21  and  C_22
REMARK                            x       y       z     vdW  Elec       q    Type
REMARK                         _______ _______ _______ _____ _____    ______ ____
ROOT
ATOM      1  C   UNL     1       1.757   5.931  -6.394  0.00  0.00    +0.075 C 
ATOM      2  C   UNL     1       1.100   6.535  -5.046  0.00  0.00    +0.082 C 
ATOM      3  C   UNL     1       1.547   5.336  -4.042  0.00  0.00    +0.073 C 
ATOM      4  C   UNL     1       2.882   5.283  -4.105  0.00  0.00    +0.051 C 
ATOM      5  C   UNL     1       3.769   5.224  -2.930  0.00  0.00    +0.049 C 
ATOM      6  N   UNL     1       3.214   4.540  -5.286  0.00  0.00    -0.219 NA
ATOM      7  C   UNL     1       2.325   4.790  -6.384  0.00  0.00    +0.080 C 
ENDROOT
BRANCH   2   8
ATOM      8  C   UNL     1      -0.363   5.876  -5.306  0.00  0.00    -0.003 A 
ATOM      9  C   UNL     1      -1.408   6.718  -4.925  0.00  0.00    +0.054 A 
ATOM     10 CL   UNL     1      -1.207   8.433  -4.564  0.00  0.00    -0.083 Cl
ATOM     11  C   UNL     1      -2.673   6.226  -5.239  0.00  0.00    +0.011 A 
ATOM     12  C   UNL     1      -2.842   5.313  -6.276  0.00  0.00    +0.001 A 
ATOM     13  C   UNL     1      -1.758   4.964  -7.075  0.00  0.00    -0.000 A 
ATOM     14  C   UNL     1      -0.533   5.316  -6.571  0.00  0.00    -0.003 A 
ENDBRANCH   2   8
BRANCH   1  15
ATOM     15  C   UNL     1       1.987   6.974  -7.410  0.00  0.00    +0.339 C 
ATOM     16  O   UNL     1       2.649   7.994  -7.155  0.00  0.00    -0.245 OA
BRANCH  15  17
ATOM     17  O   UNL     1       1.011   7.167  -8.396  0.00  0.00    -0.446 OA
BRANCH  17  19
ATOM     18  C   UNL     1       0.164   5.874 -10.149  0.00  0.00    +0.051 C 
ATOM     19  C   UNL     1       1.212   6.805  -9.757  0.00  0.00    +0.209 C 
ENDBRANCH  17  19
ENDBRANCH  15  17
ENDBRANCH   1  15
BRANCH   3  20
ATOM     20  C   UNL     1       0.985   5.408  -2.700  0.00  0.00    +0.339 C 
ATOM     21  O   UNL     1       0.055   4.614  -2.365  0.00  0.00    -0.245 OA
BRANCH  20  22
ATOM     22  O   UNL     1       1.003   6.660  -2.085  0.00  0.00    -0.442 OA
ATOM     23  C   UNL     1       1.254   6.824  -0.692  0.00  0.00    +0.256 C 
ENDBRANCH  20  22
ENDBRANCH   3  20
BRANCH   7  24
ATOM     24  C   UNL     1       2.546   4.162  -7.726  0.00  0.00    +0.185 C 
BRANCH  24  25
ATOM     25  O   UNL     1       3.897   4.472  -7.971  0.00  0.00    -0.346 OA
BRANCH  25  26
ATOM     26  C   UNL     1       4.092   4.592  -9.345  0.00  0.00    +0.163 C 
BRANCH  26  27
ATOM     27  C   UNL     1       4.930   5.818  -9.569  0.00  0.00    +0.141 C 
ATOM     28  N   UNL     1       6.308   5.569  -9.151  0.00  0.00    -0.129 NA
ENDBRANCH  26  27
ENDBRANCH  25  26
ENDBRANCH  24  25
ENDBRANCH   7  24
TORSDOF 10
ENDMDL
MODEL 3
REMARK VINA RESULT:      -6.4      3.863      7.588
REMARK  Name = 
REMARK  10 active torsions:
REMARK  status: ('A' for Active; 'I' for Inactive)
REMARK    1  A    between atoms: C_2  and  O_3
REMARK    2  A    between atoms: O_3  and  C_4
REMARK    3  A    between atoms: C_4  and  C_6
REMARK    4  A    between atoms: C_7  and  C_8
REMARK    5  A    between atoms: C_8  and  O_9
REMARK    6  A    between atoms: O_9  and  C_10
REMARK    7  A    between atoms: C_10  and  C_11
REMARK    8  A    between atoms: C_16  and  C_17
REMARK    9  A    between atoms: C_17  and  O_19
REMARK   10  A    between atoms: C_21  and  C_22
REMARK                            x       y       z     vdW  Elec       q    Type
REMARK                         _______ _______ _______ _____ _____    ______ ____
ROOT
ATOM      1  C   UNL     1       2.934   6.028  -8.556  0.00  0.00    +0.075 C 
ATOM      2  C   UNL     1       3.409   6.579  -9.999  0.00  0.00    +0.082 C 
ATOM      3  C   UNL     1       2.816   5.358 -10.893  0.00  0.00    +0.073 C 
ATOM      4  C   UNL     1       1.501   5.328 -10.650  0.00  0.00    +0.051 C 
ATOM      5  C   UNL     1       0.462   5.248 -11.692  0.00  0.00    +0.049 C 
ATOM      6  N   UNL     1       1.324   4.628  -9.411  0.00  0.00    -0.219 NA
ATOM      7  C   UNL     1       2.356   4.897  -8.452  0.00  0.00    +0.080 C 
ENDROOT
BRANCH   2   8
ATOM      8  C   UNL     1       4.886   5.906  -9.918  0.00  0.00    -0.003 A 
ATOM      9  C   UNL     1       5.854   6.647 -10.594  0.00  0.00    +0.054 A 
ATOM     10 CL   UNL     1       5.612   8.305 -11.149  0.00  0.00    -0.083 Cl
ATOM     11  C   UNL     1       7.148   6.154 -10.448  0.00  0.00    +0.011 A 
ATOM     12  C   UNL     1       7.492   5.384  -9.342  0.00  0.00    +0.001 A 
ATOM     13  C   UNL     1       6.569   5.188  -8.319  0.00  0.00    -0.000 A 
ATOM     14  C   UNL     1       5.277   5.515  -8.638  0.00  0.00    -0.003 A 
ENDBRANCH   2   8
BRANCH   1  15
ATOM     15  C   UNL     1       2.855   7.105  -7.552  0.00  0.00    +0.339 C 
ATOM     16  O   UNL     1       2.339   8.204  -7.818  0.00  0.00    -0.245 OA
BRANCH  15  17
ATOM     17  O   UNL     1       3.853   7.173  -6.572  0.00  0.00    -0.446 OA
BRANCH  17  19
ATOM     18  C   UNL     1       4.767   7.550  -4.455  0.00  0.00    +0.051 C 
ATOM     19  C   UNL     1       3.565   7.165  -5.179  0.00  0.00    +0.209 C 
ENDBRANCH  17  19
ENDBRANCH  15  17
ENDBRANCH   1  15
BRANCH   3  20
ATOM     20  C   UNL     1       3.192   5.379 -12.301  0.00  0.00    +0.339 C 
ATOM     21  O   UNL     1       4.217   4.740 -12.688  0.00  0.00    -0.245 OA
BRANCH  20  22
ATOM     22  O   UNL     1       2.851   6.527 -13.017  0.00  0.00    -0.442 OA
ATOM     23  C   UNL     1       2.465   6.486 -14.389  0.00  0.00    +0.256 C 
ENDBRANCH  20  22
ENDBRANCH   3  20
BRANCH   7  24
ATOM     24  C   UNL     1       2.311   4.314  -7.073  0.00  0.00    +0.185 C 
BRANCH  24  25
ATOM     25  O   UNL     1       0.927   4.269  -6.822  0.00  0.00    -0.346 OA
BRANCH  25  26
ATOM     26  C   UNL     1       0.673   4.840  -5.577  0.00  0.00    +0.163 C 
BRANCH  26  27
ATOM     27  C   UNL     1      -0.631   5.577  -5.684  0.00  0.00    +0.141 C 
ATOM     28  N   UNL     1      -1.270   5.285  -6.966  0.00  0.00    -0.129 NA
ENDBRANCH  26  27
ENDBRANCH  25  26
ENDBRANCH  24  25
ENDBRANCH   7  24
TORSDOF 10
ENDMDL
MODEL 4
REMARK VINA RESULT:      -6.4      2.056      3.963
REMARK  Name = 
REMARK  10 active torsions:
REMARK  status: ('A' for Active; 'I' for Inactive)
REMARK    1  A    between atoms: C_2  and  O_3
REMARK    2  A    between atoms: O_3  and  C_4
REMARK    3  A    between atoms: C_4  and  C_6
REMARK    4  A    between atoms: C_7  and  C_8
REMARK    5  A    between atoms: C_8  and  O_9
REMARK    6  A    between atoms: O_9  and  C_10
REMARK    7  A    between atoms: C_10  and  C_11
REMARK    8  A    between atoms: C_16  and  C_17
REMARK    9  A    between atoms: C_17  and  O_19
REMARK   10  A    between atoms: C_21  and  C_22
REMARK                            x       y       z     vdW  Elec       q    Type
REMARK                         _______ _______ _______ _____ _____    ______ ____
ROOT
ATOM      1  C   UNL     1       1.559   5.615  -5.374  0.00  0.00    +0.075 C 
ATOM      2  C   UNL     1       0.604   5.340  -4.100  0.00  0.00    +0.082 C 
ATOM      3  C   UNL     1      -0.579   6.382  -4.499  0.00  0.00    +0.073 C 
ATOM      4  C   UNL     1      -1.026   5.991  -5.697  0.00  0.00    +0.051 C 
ATOM      5  C   UNL     1      -2.448   5.823  -6.043  0.00  0.00    +0.049 C 
ATOM      6  N   UNL     1      -0.112   6.513  -6.672  0.00  0.00    -0.219 NA
ATOM      7  C   UNL     1       1.253   6.505  -6.234  0.00  0.00    +0.080 C 
ENDROOT
BRANCH   2   8
ATOM      8  C   UNL     1       1.343   6.426  -3.143  0.00  0.00    -0.003 A 
ATOM      9  C   UNL     1       1.568   5.944  -1.854  0.00  0.00    +0.054 A 
ATOM     10 CL   UNL     1       1.427   4.244  -1.402  0.00  0.00    -0.083 Cl
ATOM     11  C   UNL     1       2.300   6.811  -1.046  0.00  0.00    +0.011 A 
ATOM     12  C   UNL     1       3.157   7.751  -1.608  0.00  0.00    +0.001 A 
ATOM     13  C   UNL     1       3.367   7.762  -2.984  0.00  0.00    -0.000 A 
ATOM     14  C   UNL     1       2.460   7.037  -3.711  0.00  0.00    -0.003 A 
ENDBRANCH   2   8
BRANCH   1  15
ATOM     15  C   UNL     1       2.489   4.498  -5.618  0.00  0.00    +0.339 C 
ATOM     16  O   UNL     1       2.145   3.500  -6.274  0.00  0.00    -0.245 OA
BRANCH  15  17
ATOM     17  O   UNL     1       3.472   4.230  -4.658  0.00  0.00    -0.446 OA
BRANCH  17  19
ATOM     18  C   UNL     1       5.313   4.916  -3.391  0.00  0.00    +0.051 C 
ATOM     19  C   UNL     1       4.791   4.759  -4.741  0.00  0.00    +0.209 C 
ENDBRANCH  17  19
ENDBRANCH  15  17
ENDBRANCH   1  15
BRANCH   3  20
ATOM     20  C   UNL     1      -1.605   6.578  -3.482  0.00  0.00    +0.339 C 
ATOM     21  O   UNL     1      -1.852   7.746  -3.055  0.00  0.00    -0.245 OA
BRANCH  20  22
ATOM     22  O   UNL     1      -1.807   5.521  -2.594  0.00  0.00    -0.442 OA
ATOM     23  C   UNL     1      -2.026   5.724  -1.200  0.00  0.00    +0.256 C 
ENDBRANCH  20  22
ENDBRANCH   3  20
BRANCH   7  24
ATOM     24  C   UNL     1       2.365   6.946  -7.136  0.00  0.00    +0.185 C 
BRANCH  24  25
ATOM     25  O   UNL     1       1.773   6.821  -8.407  0.00  0.00    -0.346 OA
BRANCH  25  26
ATOM     26  C   UNL     1       2.741   6.401  -9.318  0.00  0.00    +0.163 C 
BRANCH  26  27
ATOM     27  C   UNL     1       2.607   4.912  -9.452  0.00  0.00    +0.141 C 
ATOM     28  N   UNL     1       3.875   4.261  -9.129  0.00  0.00    -0.129 NA
ENDBRANCH  26  27
ENDBRANCH  25  26
ENDBRANCH  24  25
ENDBRANCH   7  24
TORSDOF 10
ENDMDL
MODEL 5
REMARK VINA RESULT:      -6.1      2.718      5.891
REMARK  Name = 
REMARK  10 active torsions:
REMARK  status: ('A' for Active; 'I' for Inactive)
REMARK    1  A    between atoms: C_2  and  O_3
REMARK    2  A    between atoms: O_3  and  C_4
REMARK    3  A    between atoms: C_4  and  C_6
REMARK    4  A    between atoms: C_7  and  C_8
REMARK    5  A    between atoms: C_8  and  O_9
REMARK    6  A    between atoms: O_9  and  C_10
REMARK    7  A    between atoms: C_10  and  C_11
REMARK    8  A    between atoms: C_16  and  C_17
REMARK    9  A    between atoms: C_17  and  O_19
REMARK   10  A    between atoms: C_21  and  C_22
REMARK                            x       y       z     vdW  Elec       q    Type
REMARK                         _______ _______ _______ _____ _____    ______ ____
ROOT
ATOM      1  C   UNL     1       1.837   5.883  -2.672  0.00  0.00    +0.075 C 
ATOM      2  C   UNL     1       2.334   5.446  -4.146  0.00  0.00    +0.082 C 
ATOM      3  C   UNL     1       2.974   6.875  -4.582  0.00  0.00    +0.073 C 
ATOM      4  C   UNL     1       3.916   7.149  -3.673  0.00  0.00    +0.051 C 
ATOM      5  C   UNL     1       5.284   7.589  -3.996  0.00  0.00    +0.049 C 
ATOM      6  N   UNL     1       3.243   7.696  -2.530  0.00  0.00    -0.219 NA
ATOM      7  C   UNL     1       1.970   7.086  -2.273  0.00  0.00    +0.080 C 
ENDROOT
BRANCH   2   8
ATOM      8  C   UNL     1       0.914   5.774  -4.867  0.00  0.00    -0.003 A 
ATOM      9  C   UNL     1       0.703   5.011  -6.015  0.00  0.00    +0.054 A 
ATOM     10 CL   UNL     1       1.660   3.590  -6.440  0.00  0.00    -0.083 Cl
ATOM     11  C   UNL     1      -0.553   5.190  -6.590  0.00  0.00    +0.011 A 
ATOM     12  C   UNL     1      -1.628   5.625  -5.823  0.00  0.00    +0.001 A 
ATOM     13  C   UNL     1      -1.480   5.786  -4.449  0.00  0.00    -0.000 A 
ATOM     14  C   UNL     1      -0.182   5.800  -4.007  0.00  0.00    -0.003 A 
ENDBRANCH   2   8
BRANCH   1  15
ATOM     15  C   UNL     1       1.652   4.720  -1.784  0.00  0.00    +0.339 C 
ATOM     16  O   UNL     1       0.520   4.301  -1.491  0.00  0.00    -0.245 OA
BRANCH  15  17
ATOM     17  O   UNL     1       2.616   4.480  -0.797  0.00  0.00    -0.446 OA
BRANCH  17  19
ATOM     18  C   UNL     1       4.690   5.499  -0.448  0.00  0.00    +0.051 C 
ATOM     19  C   UNL     1       4.005   4.384  -1.086  0.00  0.00    +0.209 C 
ENDBRANCH  17  19
ENDBRANCH  15  17
ENDBRANCH   1  15
BRANCH   3  20
ATOM     20  C   UNL     1       3.400   6.968  -5.973  0.00  0.00    +0.339 C 
ATOM     21  O   UNL     1       2.756   7.703  -6.780  0.00  0.00    -0.245 OA
BRANCH  20  22
ATOM     22  O   UNL     1       4.033   5.843  -6.504  0.00  0.00    -0.442 OA
ATOM     23  C   UNL     1       4.280   5.692  -7.899  0.00  0.00    +0.256 C 
ENDBRANCH  20  22
ENDBRANCH   3  20
BRANCH   7  24
ATOM     24  C   UNL     1       1.147   7.471  -1.083  0.00  0.00    +0.185 C 
BRANCH  24  25
ATOM     25  O   UNL     1       2.132   7.909  -0.178  0.00  0.00    -0.346 OA
BRANCH  25  26
ATOM     26  C   UNL     1       1.532   8.176   1.051  0.00  0.00    +0.163 C 
BRANCH  26  27
ATOM     27  C   UNL     1       1.315   9.660   1.125  0.00  0.00    +0.141 C 
ATOM     28  N   UNL     1      -0.115   9.958   1.165  0.00  0.00    -0.129 NA
ENDBRANCH  26  27
ENDBRANCH  25  26
ENDBRANCH  24  25
ENDBRANCH   7  24
TORSDOF 10
ENDMDL
MODEL 6
REMARK VINA RESULT:      -5.8      2.655      5.625
REMARK  Name = 
REMARK  10 active torsions:
REMARK  status: ('A' for Active; 'I' for Inactive)
REMARK    1  A    between atoms: C_2  and  O_3
REMARK    2  A    between atoms: O_3  and  C_4
REMARK    3  A    between atoms: C_4  and  C_6
REMARK    4  A    between atoms: C_7  and  C_8
REMARK    5  A    between atoms: C_8  and  O_9
REMARK    6  A    between atoms: O_9  and  C_10
REMARK    7  A    between atoms: C_10  and  C_11
REMARK    8  A    between atoms: C_16  and  C_17
REMARK    9  A    between atoms: C_17  and  O_19
REMARK   10  A    between atoms: C_21  and  C_22
REMARK                            x       y       z     vdW  Elec       q    Type
REMARK                         _______ _______ _______ _____ _____    ______ ____
ROOT
ATOM      1  C   UNL     1       1.205   5.563  -5.600  0.00  0.00    +0.075 C 
ATOM      2  C   UNL     1       2.681   4.910  -5.684  0.00  0.00    +0.082 C 
ATOM      3  C   UNL     1       3.370   5.800  -4.510  0.00  0.00    +0.073 C 
ATOM      4  C   UNL     1       2.656   5.564  -3.404  0.00  0.00    +0.051 C 
ATOM      5  C   UNL     1       3.239   5.232  -2.092  0.00  0.00    +0.049 C 
ATOM      6  N   UNL     1       1.490   6.396  -3.476  0.00  0.00    -0.219 NA
ATOM      7  C   UNL     1       0.969   6.531  -4.806  0.00  0.00    +0.080 C 
ENDROOT
BRANCH   2   8
ATOM      8  C   UNL     1       3.202   5.911  -6.854  0.00  0.00    -0.003 A 
ATOM      9  C   UNL     1       3.427   5.255  -8.064  0.00  0.00    +0.054 A 
ATOM     10 CL   UNL     1       2.862   3.620  -8.416  0.00  0.00    -0.083 Cl
ATOM     11  C   UNL     1       3.766   6.105  -9.114  0.00  0.00    +0.011 A 
ATOM     12  C   UNL     1       3.381   7.442  -9.096  0.00  0.00    +0.001 A 
ATOM     13  C   UNL     1       2.564   7.914  -8.074  0.00  0.00    -0.000 A 
ATOM     14  C   UNL     1       2.461   7.084  -6.988  0.00  0.00    -0.003 A 
ENDBRANCH   2   8
BRANCH   1  15
ATOM     15  C   UNL     1       0.176   4.674  -6.168  0.00  0.00    +0.339 C 
ATOM     16  O   UNL     1       0.347   3.446  -6.240  0.00  0.00    -0.245 OA
BRANCH  15  17
ATOM     17  O   UNL     1      -0.667   5.186  -7.163  0.00  0.00    -0.446 OA
BRANCH  17  19
ATOM     18  C   UNL     1      -0.118   4.883  -9.415  0.00  0.00    +0.051 C 
ATOM     19  C   UNL     1      -0.174   5.845  -8.323  0.00  0.00    +0.209 C 
ENDBRANCH  17  19
ENDBRANCH  15  17
ENDBRANCH   1  15
BRANCH   3  20
ATOM     20  C   UNL     1       4.812   5.639  -4.372  0.00  0.00    +0.339 C 
ATOM     21  O   UNL     1       5.294   4.496  -4.111  0.00  0.00    -0.245 OA
BRANCH  20  22
ATOM     22  O   UNL     1       5.518   6.748  -3.907  0.00  0.00    -0.442 OA
ATOM     23  C   UNL     1       5.076   8.085  -4.132  0.00  0.00    +0.256 C 
ENDBRANCH  20  22
ENDBRANCH   3  20
BRANCH   7  24
ATOM     24  C   UNL     1      -0.285   7.303  -5.077  0.00  0.00    +0.185 C 
BRANCH  24  25
ATOM     25  O   UNL     1      -1.042   7.045  -3.919  0.00  0.00    -0.346 OA
BRANCH  25  26
ATOM     26  C   UNL     1      -2.317   6.626  -4.294  0.00  0.00    +0.163 C 
BRANCH  26  27
ATOM     27  C   UNL     1      -3.045   6.244  -3.038  0.00  0.00    +0.141 C 
ATOM     28  N   UNL     1      -2.676   4.890  -2.633  0.00  0.00    -0.129 NA
ENDBRANCH  26  27
ENDBRANCH  25  26
ENDBRANCH  24  25
ENDBRANCH   7  24
TORSDOF 10
ENDMDL
MODEL 7
REMARK VINA RESULT:      -5.7      4.437      7.936
REMARK  Name = 
REMARK  10 active torsions:
REMARK  status: ('A' for Active; 'I' for Inactive)
REMARK    1  A    between atoms: C_2  and  O_3
REMARK    2  A    between atoms: O_3  and  C_4
REMARK    3  A    between atoms: C_4  and  C_6
REMARK    4  A    between atoms: C_7  and  C_8
REMARK    5  A    between atoms: C_8  and  O_9
REMARK    6  A    between atoms: O_9  and  C_10
REMARK    7  A    between atoms: C_10  and  C_11
REMARK    8  A    between atoms: C_16  and  C_17
REMARK    9  A    between atoms: C_17  and  O_19
REMARK   10  A    between atoms: C_21  and  C_22
REMARK                            x       y       z     vdW  Elec       q    Type
REMARK                         _______ _______ _______ _____ _____    ______ ____
ROOT
ATOM      1  C   UNL     1       2.796   5.667  -9.459  0.00  0.00    +0.075 C 
ATOM      2  C   UNL     1       3.073   5.162 -10.969  0.00  0.00    +0.082 C 
ATOM      3  C   UNL     1       4.396   6.064 -11.251  0.00  0.00    +0.073 C 
ATOM      4  C   UNL     1       5.285   5.716 -10.314  0.00  0.00    +0.051 C 
ATOM      5  C   UNL     1       6.696   5.387 -10.584  0.00  0.00    +0.049 C 
ATOM      6  N   UNL     1       4.937   6.435  -9.122  0.00  0.00    -0.219 NA
ATOM      7  C   UNL     1       3.522   6.575  -8.935  0.00  0.00    +0.080 C 
ENDROOT
BRANCH   2   8
ATOM      8  C   UNL     1       2.086   6.255 -11.656  0.00  0.00    -0.003 A 
ATOM      9  C   UNL     1       1.723   5.910 -12.958  0.00  0.00    +0.054 A 
ATOM     10 CL   UNL     1       1.975   4.309 -13.657  0.00  0.00    -0.083 Cl
ATOM     11  C   UNL     1       0.790   6.770 -13.531  0.00  0.00    +0.011 A 
ATOM     12  C   UNL     1      -0.068   7.519 -12.733  0.00  0.00    +0.001 A 
ATOM     13  C   UNL     1      -0.069   7.336 -11.354  0.00  0.00    -0.000 A 
ATOM     14  C   UNL     1       1.009   6.646 -10.863  0.00  0.00    -0.003 A 
ENDBRANCH   2   8
BRANCH   1  15
ATOM     15  C   UNL     1       1.974   4.708  -8.698  0.00  0.00    +0.339 C 
ATOM     16  O   UNL     1       2.137   3.482  -8.810  0.00  0.00    -0.245 OA
BRANCH  15  17
ATOM     17  O   UNL     1       0.664   5.075  -8.366  0.00  0.00    -0.446 OA
BRANCH  17  19
ATOM     18  C   UNL     1      -1.240   5.363  -7.042  0.00  0.00    +0.051 C 
ATOM     19  C   UNL     1       0.194   5.115  -7.024  0.00  0.00    +0.209 C 
ENDBRANCH  17  19
ENDBRANCH  15  17
ENDBRANCH   1  15
BRANCH   3  20
ATOM     20  C   UNL     1       4.888   6.035 -12.622  0.00  0.00    +0.339 C 
ATOM     21  O   UNL     1       5.112   4.922 -13.186  0.00  0.00    -0.245 OA
BRANCH  20  22
ATOM     22  O   UNL     1       5.667   7.120 -13.024  0.00  0.00    -0.442 OA
ATOM     23  C   UNL     1       6.529   7.064 -14.158  0.00  0.00    +0.256 C 
ENDBRANCH  20  22
ENDBRANCH   3  20
BRANCH   7  24
ATOM     24  C   UNL     1       2.957   7.234  -7.715  0.00  0.00    +0.185 C 
BRANCH  24  25
ATOM     25  O   UNL     1       3.750   6.679  -6.693  0.00  0.00    -0.346 OA
BRANCH  25  26
ATOM     26  C   UNL     1       3.223   7.051  -5.457  0.00  0.00    +0.163 C 
BRANCH  26  27
ATOM     27  C   UNL     1       3.409   5.886  -4.528  0.00  0.00    +0.141 C 
ATOM     28  N   UNL     1       3.301   4.630  -5.266  0.00  0.00    -0.129 NA
ENDBRANCH  26  27
ENDBRANCH  25  26
ENDBRANCH  24  25
ENDBRANCH   7  24
TORSDOF 10
ENDMDL
MODEL 8
REMARK VINA RESULT:      -5.7      2.576      5.724
REMARK  Name = 
REMARK  10 active torsions:
REMARK  status: ('A' for Active; 'I' for Inactive)
REMARK    1  A    between atoms: C_2  and  O_3
REMARK    2  A    between atoms: O_3  and  C_4
REMARK    3  A    between atoms: C_4  and  C_6
REMARK    4  A    between atoms: C_7  and  C_8
REMARK    5  A    between atoms: C_8  and  O_9
REMARK    6  A    between atoms: O_9  and  C_10
REMARK    7  A    between atoms: C_10  and  C_11
REMARK    8  A    between atoms: C_16  and  C_17
REMARK    9  A    between atoms: C_17  and  O_19
REMARK   10  A    between atoms: C_21  and  C_22
REMARK                            x       y       z     vdW  Elec       q    Type
REMARK                         _______ _______ _______ _____ _____    ______ ____
ROOT
ATOM      1  C   UNL     1       1.785   5.824  -2.615  0.00  0.00    +0.075 C 
ATOM      2  C   UNL     1       2.172   5.284  -4.088  0.00  0.00    +0.082 C 
ATOM      3  C   UNL     1       2.921   6.628  -4.613  0.00  0.00    +0.073 C 
ATOM      4  C   UNL     1       3.924   6.848  -3.756  0.00  0.00    +0.051 C 
ATOM      5  C   UNL     1       5.312   7.144  -4.155  0.00  0.00    +0.049 C 
ATOM      6  N   UNL     1       3.358   7.500  -2.611  0.00  0.00    -0.219 NA
ATOM      7  C   UNL     1       2.048   7.024  -2.274  0.00  0.00    +0.080 C 
ENDROOT
BRANCH   2   8
ATOM      8  C   UNL     1       0.758   5.715  -4.762  0.00  0.00    -0.003 A 
ATOM      9  C   UNL     1       0.525   5.077  -5.981  0.00  0.00    +0.054 A 
ATOM     10 CL   UNL     1       1.448   3.687  -6.554  0.00  0.00    -0.083 Cl
ATOM     11  C   UNL     1      -0.729   5.342  -6.527  0.00  0.00    +0.011 A 
ATOM     12  C   UNL     1      -1.791   5.720  -5.712  0.00  0.00    +0.001 A 
ATOM     13  C   UNL     1      -1.634   5.736  -4.330  0.00  0.00    -0.000 A 
ATOM     14  C   UNL     1      -0.335   5.677  -3.897  0.00  0.00    -0.003 A 
ENDBRANCH   2   8
BRANCH   1  15
ATOM     15  C   UNL     1       1.535   4.720  -1.670  0.00  0.00    +0.339 C 
ATOM     16  O   UNL     1       0.384   4.419  -1.314  0.00  0.00    -0.245 OA
BRANCH  15  17
ATOM     17  O   UNL     1       2.515   4.432  -0.711  0.00  0.00    -0.446 OA
BRANCH  17  19
ATOM     18  C   UNL     1       4.759   5.081  -0.658  0.00  0.00    +0.051 C 
ATOM     19  C   UNL     1       3.835   4.031  -1.057  0.00  0.00    +0.209 C 
ENDBRANCH  17  19
ENDBRANCH  15  17
ENDBRANCH   1  15
BRANCH   3  20
ATOM     20  C   UNL     1       3.290   6.624  -6.022  0.00  0.00    +0.339 C 
ATOM     21  O   UNL     1       4.318   5.985  -6.401  0.00  0.00    -0.245 OA
BRANCH  20  22
ATOM     22  O   UNL     1       2.938   7.756  -6.758  0.00  0.00    -0.442 OA
ATOM     23  C   UNL     1       2.247   7.674  -8.002  0.00  0.00    +0.256 C 
ENDBRANCH  20  22
ENDBRANCH   3  20
BRANCH   7  24
ATOM     24  C   UNL     1       1.318   7.532  -1.069  0.00  0.00    +0.185 C 
BRANCH  24  25
ATOM     25  O   UNL     1       2.340   8.206  -0.374  0.00  0.00    -0.346 OA
BRANCH  25  26
ATOM     26  C   UNL     1       2.466   7.650   0.897  0.00  0.00    +0.163 C 
BRANCH  26  27
ATOM     27  C   UNL     1       3.842   7.990   1.395  0.00  0.00    +0.141 C 
ATOM     28  N   UNL     1       4.176   7.165   2.554  0.00  0.00    -0.129 NA
ENDBRANCH  26  27
ENDBRANCH  25  26
ENDBRANCH  24  25
ENDBRANCH   7  24
TORSDOF 10
ENDMDL
MODEL 9
REMARK VINA RESULT:      -5.6      4.357      6.717
REMARK  Name = 
REMARK  10 active torsions:
REMARK  status: ('A' for Active; 'I' for Inactive)
REMARK    1  A    between atoms: C_2  and  O_3
REMARK    2  A    between atoms: O_3  and  C_4
REMARK    3  A    between atoms: C_4  and  C_6
REMARK    4  A    between atoms: C_7  and  C_8
REMARK    5  A    between atoms: C_8  and  O_9
REMARK    6  A    between atoms: O_9  and  C_10
REMARK    7  A    between atoms: C_10  and  C_11
REMARK    8  A    between atoms: C_16  and  C_17
REMARK    9  A    between atoms: C_17  and  O_19
REMARK   10  A    between atoms: C_21  and  C_22
REMARK                            x       y       z     vdW  Elec       q    Type
REMARK                         _______ _______ _______ _____ _____    ______ ____
ROOT
ATOM      1  C   UNL     1       3.478   5.582  -9.836  0.00  0.00    +0.075 C 
ATOM      2  C   UNL     1       2.027   4.881  -9.713  0.00  0.00    +0.082 C 
ATOM      3  C   UNL     1       1.322   5.641 -10.966  0.00  0.00    +0.073 C 
ATOM      4  C   UNL     1       2.060   5.342 -12.040  0.00  0.00    +0.051 C 
ATOM      5  C   UNL     1       1.509   4.878 -13.326  0.00  0.00    +0.049 C 
ATOM      6  N   UNL     1       3.192   6.222 -12.026  0.00  0.00    -0.219 NA
ATOM      7  C   UNL     1       3.688   6.489 -10.707  0.00  0.00    +0.080 C 
ENDROOT
BRANCH   2   8
ATOM      8  C   UNL     1       1.452   5.956  -8.638  0.00  0.00    -0.003 A 
ATOM      9  C   UNL     1       1.201   5.387  -7.389  0.00  0.00    +0.054 A 
ATOM     10 CL   UNL     1       1.787   3.796  -6.898  0.00  0.00    -0.083 Cl
ATOM     11  C   UNL     1       0.815   6.306  -6.417  0.00  0.00    +0.011 A 
ATOM     12  C   UNL     1       1.174   7.646  -6.525  0.00  0.00    +0.001 A 
ATOM     13  C   UNL     1       2.013   8.058  -7.555  0.00  0.00    -0.000 A 
ATOM     14  C   UNL     1       2.165   7.151  -8.572  0.00  0.00    -0.003 A 
ENDBRANCH   2   8
BRANCH   1  15
ATOM     15  C   UNL     1       4.532   4.785  -9.183  0.00  0.00    +0.339 C 
ATOM     16  O   UNL     1       4.488   3.544  -9.161  0.00  0.00    -0.245 OA
BRANCH  15  17
ATOM     17  O   UNL     1       5.206   5.345  -8.091  0.00  0.00    -0.446 OA
BRANCH  17  19
ATOM     18  C   UNL     1       4.654   6.282  -6.022  0.00  0.00    +0.051 C 
ATOM     19  C   UNL     1       4.874   5.036  -6.743  0.00  0.00    +0.209 C 
ENDBRANCH  17  19
ENDBRANCH  15  17
ENDBRANCH   1  15
BRANCH   3  20
ATOM     20  C   UNL     1      -0.111   5.413 -11.106  0.00  0.00    +0.339 C 
ATOM     21  O   UNL     1      -0.553   4.228 -11.192  0.00  0.00    -0.245 OA
BRANCH  20  22
ATOM     22  O   UNL     1      -0.837   6.411 -11.756  0.00  0.00    -0.442 OA
ATOM     23  C   UNL     1      -0.530   7.796 -11.614  0.00  0.00    +0.256 C 
ENDBRANCH  20  22
ENDBRANCH   3  20
BRANCH   7  24
ATOM     24  C   UNL     1       4.908   7.330 -10.487  0.00  0.00    +0.185 C 
BRANCH  24  25
ATOM     25  O   UNL     1       5.655   7.065 -11.651  0.00  0.00    -0.346 OA
BRANCH  25  26
ATOM     26  C   UNL     1       7.001   6.947 -11.308  0.00  0.00    +0.163 C 
BRANCH  26  27
ATOM     27  C   UNL     1       7.324   5.481 -11.282  0.00  0.00    +0.141 C 
ATOM     28  N   UNL     1       7.467   4.972 -12.644  0.00  0.00    -0.129 NA
ENDBRANCH  26  27
ENDBRANCH  25  26
ENDBRANCH  24  25
ENDBRANCH   7  24
TORSDOF 10
ENDMDL
