MODEL 1
REMARK VINA RESULT:      -8.8      0.000      0.000
REMARK  Name = 
REMARK  9 active torsions:
REMARK  status: ('A' for Active; 'I' for Inactive)
REMARK    1  A    between atoms: C_2  and  C_3
REMARK    2  A    between atoms: C_9  and  C_10
REMARK    3  A    between atoms: C_33  and  O_34
REMARK    4  A    between atoms: C_41  and  C_42
REMARK    5  A    between atoms: N_44  and  C_45
REMARK    6  A    between atoms: C_45  and  C_46
REMARK    7  A    between atoms: N_48  and  S_49
REMARK    8  A    between atoms: S_49  and  C_52
REMARK    9  A    between atoms: C_57  and  C_58
REMARK                            x       y       z     vdW  Elec       q    Type
REMARK                         _______ _______ _______ _____ _____    ______ ____
ROOT
ATOM      1  C   UNL     1       4.096   7.459  -4.554  0.00  0.00    +0.069 C 
ATOM      2  C   UNL     1       2.970   7.397  -5.827  0.00  0.00    +0.157 C 
ATOM      3  N   UNL     1       1.925   6.565  -5.004  0.00  0.00    -0.268 N 
ATOM      4  C   UNL     1       0.931   5.828  -5.484  0.00  0.00    +0.246 C 
ATOM      5  C   UNL     1      -0.602   5.960  -5.044  0.00  0.00    +0.174 C 
ATOM      6  N   UNL     1      -0.765   7.518  -5.198  0.00  0.00    -0.161 NA
ATOM      7  C   UNL     1      -2.083   7.941  -4.837  0.00  0.00    +0.421 C 
ATOM      8  O   UNL     1      -3.023   7.114  -4.290  0.00  0.00    -0.437 OA
ATOM      9  C   UNL     1      -2.455   5.909  -3.489  0.00  0.00    +0.171 C 
ATOM     10  C   UNL     1      -2.531   6.810  -2.039  0.00  0.00    +0.044 C 
ATOM     11  C   UNL     1      -1.916   5.538  -1.203  0.00  0.00    +0.004 C 
ATOM     12  C   UNL     1      -1.220   6.107  -0.023  0.00  0.00    +0.000 C 
ATOM     13  C   UNL     1       0.201   6.160  -0.385  0.00  0.00    +0.006 C 
ATOM     14  C   UNL     1       0.847   4.931  -0.992  0.00  0.00    +0.073 C 
ATOM     15  C   UNL     1       2.316   5.291  -1.373  0.00  0.00    +0.303 C 
ATOM     16  C   UNL     1       2.602   6.596  -0.822  0.00  0.00    +0.172 A 
ATOM     17  C   UNL     1       3.471   7.541  -1.417  0.00  0.00    +0.244 A 
ATOM     18  O   UNL     1       4.032   7.012  -2.470  0.00  0.00    -0.461 OA
ATOM     19  N   UNL     1       4.341   8.265  -0.654  0.00  0.00    -0.209 NA
ATOM     20  C   UNL     1       4.336   8.137   0.698  0.00  0.00    +0.105 A 
ATOM     21  C   UNL     1       3.074   7.843   1.207  0.00  0.00    +0.099 A 
ATOM     22  C   UNL     1       2.831   8.191   2.503  0.00  0.00    +0.024 A 
ATOM     23  C   UNL     1       3.806   8.910   3.197  0.00  0.00    +0.039 A 
ATOM     24  C   UNL     1       5.134   8.689   2.817  0.00  0.00    +0.140 A 
ATOM     25  C   UNL     1       5.426   8.346   1.509  0.00  0.00    +0.058 A 
ATOM     26  N   UNL     1       2.438   6.887   0.508  0.00  0.00    -0.238 NA
ATOM     27  F   UNL     1       2.785   4.646  -0.163  0.00  0.00    -0.198 F 
ATOM     28  F   UNL     1       3.057   4.369  -1.914  0.00  0.00    -0.198 F 
ATOM     29  C   UNL     1      -3.873   5.863  -2.533  0.00  0.00    +0.047 C 
ATOM     30  O   UNL     1      -2.572   8.992  -5.355  0.00  0.00    -0.225 OA
ATOM     31  O   UNL     1       1.224   4.787  -6.121  0.00  0.00    -0.273 OA
ATOM     32  C   UNL     1       1.937   7.197  -3.729  0.00  0.00    +0.137 C 
ATOM     33  C   UNL     1       3.320   6.280  -3.600  0.00  0.00    +0.189 C 
ENDROOT
BRANCH   5  34
ATOM     34  C   UNL     1      -1.110   5.654  -6.590  0.00  0.00    +0.027 C 
ATOM     35  C   UNL     1      -1.057   4.299  -6.991  0.00  0.00    +0.002 C 
ATOM     36  C   UNL     1      -0.365   6.588  -7.455  0.00  0.00    +0.002 C 
ATOM     37  C   UNL     1      -2.610   5.839  -6.591  0.00  0.00    +0.002 C 
ENDBRANCH   5  34
BRANCH   2  38
ATOM     38  C   UNL     1       3.573   6.177  -6.660  0.00  0.00    +0.260 C 
ATOM     39  N   UNL     1       4.251   6.835  -7.730  0.00  0.00    -0.198 NA
ATOM     40  O   UNL     1       3.783   5.104  -6.395  0.00  0.00    -0.272 OA
BRANCH  39  41
ATOM     41  C   UNL     1       4.367   6.166  -8.998  0.00  0.00    +0.155 C 
ATOM     42  C   UNL     1       5.812   6.361  -9.737  0.00  0.00    +0.096 C 
ATOM     43  C   UNL     1       5.584   5.100  -8.672  0.00  0.00    +0.037 C 
BRANCH  42  44
ATOM     44  C   UNL     1       5.601   5.436 -11.088  0.00  0.00    +0.321 C 
ATOM     45  F   UNL     1       6.766   4.845 -11.372  0.00  0.00    -0.198 F 
ATOM     46  F   UNL     1       4.805   5.770 -11.951  0.00  0.00    -0.198 F 
ENDBRANCH  42  44
BRANCH  41  47
ATOM     47  C   UNL     1       3.214   5.714  -9.557  0.00  0.00    +0.280 C 
ATOM     48  N   UNL     1       2.643   6.442 -10.657  0.00  0.00    -0.062 NA
ATOM     49  O   UNL     1       3.068   4.462  -9.723  0.00  0.00    -0.270 OA
BRANCH  48  50
ATOM     50  S   UNL     1       0.991   6.105 -11.093  0.00  0.00    +0.072 S 
ATOM     51  O   UNL     1       0.454   4.903 -10.390  0.00  0.00    -0.153 OA
ATOM     52  O   UNL     1       0.171   7.290 -10.648  0.00  0.00    -0.153 OA
BRANCH  50  53
ATOM     53  C   UNL     1       0.982   5.962 -12.852  0.00  0.00    +0.131 C 
ATOM     54  C   UNL     1       0.672   4.568 -13.377  0.00  0.00    +0.026 C 
ATOM     55  C   UNL     1       2.098   5.147 -13.484  0.00  0.00    +0.026 C 
ATOM     56  C   UNL     1       0.558   7.136 -13.684  0.00  0.00    +0.026 C 
ENDBRANCH  50  53
ENDBRANCH  48  50
ENDBRANCH  41  47
ENDBRANCH  39  41
ENDBRANCH   2  38
BRANCH  24  57
ATOM     57  O   UNL     1       6.181   8.663   3.709  0.00  0.00    -0.471 OA
ATOM     58  C   UNL     1       7.513   8.386   3.370  0.00  0.00    +0.252 C 
ENDBRANCH  24  57
BRANCH   1  60
ATOM     59  C   UNL     1       6.474   6.896  -4.593  0.00  0.00    +0.000 C 
ATOM     60  C   UNL     1       5.259   6.503  -5.101  0.00  0.00    +0.006 C 
ENDBRANCH   1  60
TORSDOF 9
ENDMDL
MODEL 2
REMARK VINA RESULT:      -8.7      1.748      2.735
REMARK  Name = 
REMARK  9 active torsions:
REMARK  status: ('A' for Active; 'I' for Inactive)
REMARK    1  A    between atoms: C_2  and  C_3
REMARK    2  A    between atoms: C_9  and  C_10
REMARK    3  A    between atoms: C_33  and  O_34
REMARK    4  A    between atoms: C_41  and  C_42
REMARK    5  A    between atoms: N_44  and  C_45
REMARK    6  A    between atoms: C_45  and  C_46
REMARK    7  A    between atoms: N_48  and  S_49
REMARK    8  A    between atoms: S_49  and  C_52
REMARK    9  A    between atoms: C_57  and  C_58
REMARK                            x       y       z     vdW  Elec       q    Type
REMARK                         _______ _______ _______ _____ _____    ______ ____
ROOT
ATOM      1  C   UNL     1       4.061   7.303  -4.768  0.00  0.00    +0.069 C 
ATOM      2  C   UNL     1       2.815   7.373  -5.923  0.00  0.00    +0.157 C 
ATOM      3  N   UNL     1       1.792   6.598  -5.022  0.00  0.00    -0.268 N 
ATOM      4  C   UNL     1       0.699   5.957  -5.419  0.00  0.00    +0.246 C 
ATOM      5  C   UNL     1      -0.768   6.194  -4.825  0.00  0.00    +0.174 C 
ATOM      6  N   UNL     1      -0.818   7.764  -4.922  0.00  0.00    -0.161 NA
ATOM      7  C   UNL     1      -2.056   8.275  -4.420  0.00  0.00    +0.421 C 
ATOM      8  O   UNL     1      -3.002   7.507  -3.804  0.00  0.00    -0.437 OA
ATOM      9  C   UNL     1      -2.459   6.234  -3.095  0.00  0.00    +0.171 C 
ATOM     10  C   UNL     1      -2.320   7.088  -1.621  0.00  0.00    +0.044 C 
ATOM     11  C   UNL     1      -1.731   5.745  -0.885  0.00  0.00    +0.004 C 
ATOM     12  C   UNL     1      -0.880   6.217   0.235  0.00  0.00    +0.000 C 
ATOM     13  C   UNL     1       0.499   6.171  -0.266  0.00  0.00    +0.006 C 
ATOM     14  C   UNL     1       0.981   4.917  -0.966  0.00  0.00    +0.073 C 
ATOM     15  C   UNL     1       2.430   5.174  -1.483  0.00  0.00    +0.303 C 
ATOM     16  C   UNL     1       2.873   6.434  -0.929  0.00  0.00    +0.172 A 
ATOM     17  C   UNL     1       3.754   7.327  -1.583  0.00  0.00    +0.244 A 
ATOM     18  O   UNL     1       4.165   6.792  -2.701  0.00  0.00    -0.461 OA
ATOM     19  N   UNL     1       4.750   7.955  -0.892  0.00  0.00    -0.209 NA
ATOM     20  C   UNL     1       4.866   7.781   0.450  0.00  0.00    +0.105 A 
ATOM     21  C   UNL     1       3.641   7.570   1.075  0.00  0.00    +0.099 A 
ATOM     22  C   UNL     1       3.553   7.891   2.397  0.00  0.00    +0.024 A 
ATOM     23  C   UNL     1       4.647   8.508   3.009  0.00  0.00    +0.039 A 
ATOM     24  C   UNL     1       5.909   8.198   2.492  0.00  0.00    +0.140 A 
ATOM     25  C   UNL     1       6.044   7.877   1.153  0.00  0.00    +0.058 A 
ATOM     26  N   UNL     1       2.864   6.691   0.418  0.00  0.00    -0.238 NA
ATOM     27  F   UNL     1       2.961   4.454  -0.343  0.00  0.00    -0.198 F 
ATOM     28  F   UNL     1       3.038   4.216  -2.119  0.00  0.00    -0.198 F 
ATOM     29  C   UNL     1      -3.776   6.266  -2.004  0.00  0.00    +0.047 C 
ATOM     30  O   UNL     1      -2.507   9.379  -4.858  0.00  0.00    -0.225 OA
ATOM     31  O   UNL     1       0.843   4.918  -6.109  0.00  0.00    -0.273 OA
ATOM     32  C   UNL     1       1.979   7.183  -3.738  0.00  0.00    +0.137 C 
ATOM     33  C   UNL     1       3.290   6.156  -3.772  0.00  0.00    +0.189 C 
ENDROOT
BRANCH   5  34
ATOM     34  C   UNL     1      -1.447   5.981  -6.320  0.00  0.00    +0.027 C 
ATOM     35  C   UNL     1      -1.566   4.638  -6.750  0.00  0.00    +0.002 C 
ATOM     36  C   UNL     1      -0.700   6.863  -7.236  0.00  0.00    +0.002 C 
ATOM     37  C   UNL     1      -2.915   6.310  -6.173  0.00  0.00    +0.002 C 
ENDBRANCH   5  34
BRANCH   2  38
ATOM     38  C   UNL     1       3.233   6.139  -6.844  0.00  0.00    +0.260 C 
ATOM     39  N   UNL     1       3.192   6.701  -8.156  0.00  0.00    -0.198 NA
ATOM     40  O   UNL     1       3.772   5.176  -6.627  0.00  0.00    -0.272 OA
BRANCH  39  41
ATOM     41  C   UNL     1       2.871   5.849  -9.268  0.00  0.00    +0.155 C 
ATOM     42  C   UNL     1       1.367   5.211  -9.220  0.00  0.00    +0.096 C 
ATOM     43  C   UNL     1       1.622   6.688  -9.947  0.00  0.00    +0.037 C 
BRANCH  42  44
ATOM     44  C   UNL     1       1.337   4.366 -10.638  0.00  0.00    +0.321 C 
ATOM     45  F   UNL     1       1.441   5.240 -11.644  0.00  0.00    -0.198 F 
ATOM     46  F   UNL     1       0.700   3.330 -10.730  0.00  0.00    -0.198 F 
ENDBRANCH  42  44
BRANCH  41  47
ATOM     47  C   UNL     1       3.908   5.447 -10.050  0.00  0.00    +0.280 C 
ATOM     48  N   UNL     1       4.771   6.442 -10.624  0.00  0.00    -0.062 NA
ATOM     49  O   UNL     1       4.574   4.424  -9.697  0.00  0.00    -0.270 OA
BRANCH  48  50
ATOM     50  S   UNL     1       5.823   5.961 -11.926  0.00  0.00    +0.072 S 
ATOM     51  O   UNL     1       5.439   4.640 -12.505  0.00  0.00    -0.153 OA
ATOM     52  O   UNL     1       5.668   6.991 -13.016  0.00  0.00    -0.153 OA
BRANCH  50  53
ATOM     53  C   UNL     1       7.456   5.997 -11.257  0.00  0.00    +0.131 C 
ATOM     54  C   UNL     1       7.548   5.650  -9.778  0.00  0.00    +0.026 C 
ATOM     55  C   UNL     1       7.770   7.099 -10.260  0.00  0.00    +0.026 C 
ATOM     56  C   UNL     1       8.618   5.639 -12.136  0.00  0.00    +0.026 C 
ENDBRANCH  50  53
ENDBRANCH  48  50
ENDBRANCH  41  47
ENDBRANCH  39  41
ENDBRANCH   2  38
BRANCH  24  57
ATOM     57  O   UNL     1       7.033   8.059   3.274  0.00  0.00    -0.471 OA
ATOM     58  C   UNL     1       7.811   9.123   3.750  0.00  0.00    +0.252 C 
ENDBRANCH  24  57
BRANCH   1  60
ATOM     59  C   UNL     1       6.360   6.503  -4.993  0.00  0.00    +0.000 C 
ATOM     60  C   UNL     1       5.084   6.278  -5.452  0.00  0.00    +0.006 C 
ENDBRANCH   1  60
TORSDOF 9
ENDMDL
MODEL 3
REMARK VINA RESULT:      -6.2      3.321     12.190
REMARK  Name = 
REMARK  9 active torsions:
REMARK  status: ('A' for Active; 'I' for Inactive)
REMARK    1  A    between atoms: C_2  and  C_3
REMARK    2  A    between atoms: C_9  and  C_10
REMARK    3  A    between atoms: C_33  and  O_34
REMARK    4  A    between atoms: C_41  and  C_42
REMARK    5  A    between atoms: N_44  and  C_45
REMARK    6  A    between atoms: C_45  and  C_46
REMARK    7  A    between atoms: N_48  and  S_49
REMARK    8  A    between atoms: S_49  and  C_52
REMARK    9  A    between atoms: C_57  and  C_58
REMARK                            x       y       z     vdW  Elec       q    Type
REMARK                         _______ _______ _______ _____ _____    ______ ____
ROOT
ATOM      1  C   UNL     1       0.794   7.239 -10.540  0.00  0.00    +0.069 C 
ATOM      2  C   UNL     1       1.981   7.154  -9.325  0.00  0.00    +0.157 C 
ATOM      3  N   UNL     1       2.981   6.332 -10.212  0.00  0.00    -0.268 N 
ATOM      4  C   UNL     1       3.995   5.585  -9.793  0.00  0.00    +0.246 C 
ATOM      5  C   UNL     1       5.505   5.721 -10.306  0.00  0.00    +0.174 C 
ATOM      6  N   UNL     1       5.680   7.275 -10.134  0.00  0.00    -0.161 NA
ATOM      7  C   UNL     1       6.981   7.700 -10.553  0.00  0.00    +0.421 C 
ATOM      8  O   UNL     1       7.890   6.880 -11.158  0.00  0.00    -0.437 OA
ATOM      9  C   UNL     1       7.279   5.690 -11.950  0.00  0.00    +0.171 C 
ATOM     10  C   UNL     1       7.287   6.614 -13.388  0.00  0.00    +0.044 C 
ATOM     11  C   UNL     1       6.628   5.357 -14.213  0.00  0.00    +0.004 C 
ATOM     12  C   UNL     1       5.877   5.948 -15.348  0.00  0.00    +0.000 C 
ATOM     13  C   UNL     1       4.475   5.999 -14.916  0.00  0.00    +0.006 C 
ATOM     14  C   UNL     1       3.856   4.761 -14.298  0.00  0.00    +0.073 C 
ATOM     15  C   UNL     1       2.408   5.119 -13.839  0.00  0.00    +0.303 C 
ATOM     16  C   UNL     1       2.100   6.434 -14.354  0.00  0.00    +0.172 A 
ATOM     17  C   UNL     1       1.264   7.371 -13.702  0.00  0.00    +0.244 A 
ATOM     18  O   UNL     1       0.754   6.826 -12.631  0.00  0.00    -0.461 OA
ATOM     19  N   UNL     1       0.360   8.110 -14.410  0.00  0.00    -0.209 NA
ATOM     20  C   UNL     1       0.299   8.004 -15.762  0.00  0.00    +0.105 A 
ATOM     21  C   UNL     1       1.533   7.715 -16.338  0.00  0.00    +0.099 A 
ATOM     22  C   UNL     1       1.714   8.083 -17.637  0.00  0.00    +0.024 A 
ATOM     23  C   UNL     1       0.708   8.816 -18.272  0.00  0.00    +0.039 A 
ATOM     24  C   UNL     1      -0.601   8.593 -17.830  0.00  0.00    +0.140 A 
ATOM     25  C   UNL     1      -0.829   8.229 -16.515  0.00  0.00    +0.058 A 
ATOM     26  N   UNL     1       2.200   6.746 -15.686  0.00  0.00    -0.238 NA
ATOM     27  F   UNL     1       1.878   4.496 -15.035  0.00  0.00    -0.198 F 
ATOM     28  F   UNL     1       1.691   4.190 -13.278  0.00  0.00    -0.198 F 
ATOM     29  C   UNL     1       8.649   5.655 -12.975  0.00  0.00    +0.047 C 
ATOM     30  O   UNL     1       7.498   8.742 -10.043  0.00  0.00    -0.225 OA
ATOM     31  O   UNL     1       3.730   4.534  -9.160  0.00  0.00    -0.273 OA
ATOM     32  C   UNL     1       2.909   6.985 -11.475  0.00  0.00    +0.137 C 
ATOM     33  C   UNL     1       1.517   6.074 -11.550  0.00  0.00    +0.189 C 
ENDROOT
BRANCH   5  34
ATOM     34  C   UNL     1       6.087   5.388  -8.792  0.00  0.00    +0.027 C 
ATOM     35  C   UNL     1       5.963   4.042  -8.374  0.00  0.00    +0.002 C 
ATOM     36  C   UNL     1       5.468   6.378  -7.891  0.00  0.00    +0.002 C 
ATOM     37  C   UNL     1       7.594   5.465  -8.887  0.00  0.00    +0.002 C 
ENDBRANCH   5  34
BRANCH   2  38
ATOM     38  C   UNL     1       1.415   5.922  -8.483  0.00  0.00    +0.260 C 
ATOM     39  N   UNL     1       0.526   6.555  -7.563  0.00  0.00    -0.198 NA
ATOM     40  O   UNL     1       1.369   4.817  -8.689  0.00  0.00    -0.272 OA
BRANCH  39  41
ATOM     41  C   UNL     1       0.318   5.956  -6.272  0.00  0.00    +0.155 C 
ATOM     42  C   UNL     1      -1.096   6.363  -5.558  0.00  0.00    +0.096 C 
ATOM     43  C   UNL     1      -1.024   5.042  -6.571  0.00  0.00    +0.037 C 
BRANCH  42  44
ATOM     44  C   UNL     1      -1.014   5.472  -4.170  0.00  0.00    +0.321 C 
ATOM     45  F   UNL     1      -2.225   4.956  -3.937  0.00  0.00    -0.198 F 
ATOM     46  F   UNL     1      -0.250   5.790  -3.273  0.00  0.00    -0.198 F 
ENDBRANCH  42  44
BRANCH  41  47
ATOM     47  C   UNL     1       1.399   5.382  -5.683  0.00  0.00    +0.280 C 
ATOM     48  N   UNL     1       2.051   6.074  -4.605  0.00  0.00    -0.062 NA
ATOM     49  O   UNL     1       1.382   4.130  -5.468  0.00  0.00    -0.270 OA
BRANCH  48  50
ATOM     50  S   UNL     1       3.643   5.547  -4.137  0.00  0.00    +0.072 S 
ATOM     51  O   UNL     1       3.601   4.411  -3.169  0.00  0.00    -0.153 OA
ATOM     52  O   UNL     1       4.323   5.046  -5.386  0.00  0.00    -0.153 OA
BRANCH  50  53
ATOM     53  C   UNL     1       4.457   6.983  -3.512  0.00  0.00    +0.131 C 
ATOM     54  C   UNL     1       4.600   7.027  -1.998  0.00  0.00    +0.026 C 
ATOM     55  C   UNL     1       3.611   7.966  -2.720  0.00  0.00    +0.026 C 
ATOM     56  C   UNL     1       5.521   7.643  -4.338  0.00  0.00    +0.026 C 
ENDBRANCH  50  53
ENDBRANCH  48  50
ENDBRANCH  41  47
ENDBRANCH  39  41
ENDBRANCH   2  38
BRANCH  24  57
ATOM     57  O   UNL     1      -1.691   8.584 -18.670  0.00  0.00    -0.471 OA
ATOM     58  C   UNL     1      -2.697   7.609 -18.661  0.00  0.00    +0.252 C 
ENDBRANCH  24  57
BRANCH   1  60
ATOM     59  C   UNL     1      -1.525   6.469 -10.631  0.00  0.00    +0.000 C 
ATOM     60  C   UNL     1      -0.344   6.277  -9.953  0.00  0.00    +0.006 C 
ENDBRANCH   1  60
TORSDOF 9
ENDMDL
