MODEL 1
REMARK VINA RESULT:      -8.5      0.000      0.000
REMARK  Name = 
REMARK  6 active torsions:
REMARK  status: ('A' for Active; 'I' for Inactive)
REMARK    1  A    between atoms: C_5  and  C_6
REMARK    2  A    between atoms: C_6  and  C_14
REMARK    3  A    between atoms: C_7  and  C_8
REMARK    4  A    between atoms: C_8  and  N_9
REMARK    5  A    between atoms: C_18  and  C_19
REMARK    6  A    between atoms: C_20  and  C_21
REMARK                            x       y       z     vdW  Elec       q    Type
REMARK                         _______ _______ _______ _____ _____    ______ ____
ROOT
ATOM      1  C   UNL     1       3.516   6.171  -9.474  0.00  0.00    +0.015 C 
ATOM      2  C   UNL     1       4.731   6.345  -9.974  0.00  0.00    -0.007 C 
ENDROOT
BRANCH   1   7
ATOM      3  C   UNL     1       4.807   7.556  -4.484  0.00  0.00    +0.031 C 
ATOM      4  C   UNL     1       3.986   6.741  -5.420  0.00  0.00    -0.022 A 
ATOM      5  C   UNL     1       4.482   5.574  -5.989  0.00  0.00    -0.004 A 
ATOM      6  C   UNL     1       4.163   5.216  -7.292  0.00  0.00    -0.000 A 
ATOM      7  C   UNL     1       3.273   5.978  -8.038  0.00  0.00    +0.001 A 
ATOM      8  C   UNL     1       2.568   6.939  -7.339  0.00  0.00    -0.000 A 
ATOM      9  C   UNL     1       2.819   7.222  -6.001  0.00  0.00    -0.004 A 
ENDBRANCH   1   7
BRANCH   1  10
ATOM     10  C   UNL     1       2.502   5.671 -10.406  0.00  0.00    +0.081 A 
ATOM     11  N   UNL     1       2.046   6.528 -11.351  0.00  0.00    -0.245 NA
ATOM     12  C   UNL     1       0.850   6.374 -11.947  0.00  0.00    +0.082 A 
ATOM     13  C   UNL     1      -0.107   5.598 -11.309  0.00  0.00    +0.019 A 
ATOM     14  C   UNL     1       0.322   4.605 -10.458  0.00  0.00    +0.003 A 
ATOM     15  C   UNL     1       1.571   4.785  -9.878  0.00  0.00    +0.019 A 
BRANCH  12  16
ATOM     16  C   UNL     1       0.547   7.002 -13.234  0.00  0.00    +0.026 C 
ATOM     17  C   UNL     1       1.385   6.850 -14.239  0.00  0.00    +0.088 C 
BRANCH  17  18
ATOM     18  C   UNL     1       1.047   7.122 -15.628  0.00  0.00    +0.388 C 
ATOM     19  O   UNL     1       2.098   7.464 -16.484  0.00  0.00    -0.241 OA
ATOM     20  O   UNL     1       0.119   6.443 -16.157  0.00  0.00    -0.241 OA
ENDBRANCH  17  18
ENDBRANCH  12  16
ENDBRANCH   1  10
BRANCH   2  21
ATOM     21  C   UNL     1       5.264   5.601 -11.132  0.00  0.00    +0.099 C 
BRANCH  21  22
ATOM     22  N   UNL     1       5.586   6.449 -12.250  0.00  0.00    -0.269 NA
ATOM     23  C   UNL     1       6.656   7.371 -11.956  0.00  0.00    +0.072 C 
ATOM     24  C   UNL     1       7.843   6.450 -11.765  0.00  0.00    +0.019 C 
ATOM     25  C   UNL     1       7.531   5.307 -12.723  0.00  0.00    +0.019 C 
ATOM     26  C   UNL     1       6.155   5.592 -13.282  0.00  0.00    +0.072 C 
ENDBRANCH  21  22
ENDBRANCH   2  21
TORSDOF 6
ENDMDL
MODEL 2
REMARK VINA RESULT:      -8.1      6.246     10.186
REMARK  Name = 
REMARK  6 active torsions:
REMARK  status: ('A' for Active; 'I' for Inactive)
REMARK    1  A    between atoms: C_5  and  C_6
REMARK    2  A    between atoms: C_6  and  C_14
REMARK    3  A    between atoms: C_7  and  C_8
REMARK    4  A    between atoms: C_8  and  N_9
REMARK    5  A    between atoms: C_18  and  C_19
REMARK    6  A    between atoms: C_20  and  C_21
REMARK                            x       y       z     vdW  Elec       q    Type
REMARK                         _______ _______ _______ _____ _____    ______ ____
ROOT
ATOM      1  C   UNL     1       0.881   6.271  -5.917  0.00  0.00    +0.015 C 
ATOM      2  C   UNL     1      -0.364   6.510  -5.529  0.00  0.00    -0.007 C 
ENDROOT
BRANCH   1   7
ATOM      3  C   UNL     1      -0.099   7.157 -11.088  0.00  0.00    +0.031 C 
ATOM      4  C   UNL     1       0.677   6.457 -10.030  0.00  0.00    -0.022 A 
ATOM      5  C   UNL     1       0.174   5.331  -9.389  0.00  0.00    -0.004 A 
ATOM      6  C   UNL     1       0.412   5.102  -8.040  0.00  0.00    -0.000 A 
ATOM      7  C   UNL     1       1.227   5.958  -7.311  0.00  0.00    +0.001 A 
ATOM      8  C   UNL     1       1.953   6.875  -8.047  0.00  0.00    -0.000 A 
ATOM      9  C   UNL     1       1.787   7.028  -9.419  0.00  0.00    -0.004 A 
ENDBRANCH   1   7
BRANCH   1  10
ATOM     10  C   UNL     1       1.806   5.827  -4.872  0.00  0.00    +0.081 A 
ATOM     11  N   UNL     1       2.314   6.772  -4.045  0.00  0.00    -0.245 NA
ATOM     12  C   UNL     1       3.467   6.600  -3.374  0.00  0.00    +0.082 A 
ATOM     13  C   UNL     1       4.362   5.649  -3.842  0.00  0.00    +0.019 A 
ATOM     14  C   UNL     1       3.865   4.582  -4.554  0.00  0.00    +0.003 A 
ATOM     15  C   UNL     1       2.661   4.787  -5.216  0.00  0.00    +0.019 A 
BRANCH  12  16
ATOM     16  C   UNL     1       3.787   7.387  -2.183  0.00  0.00    +0.026 C 
ATOM     17  C   UNL     1       3.867   6.783  -1.014  0.00  0.00    +0.088 C 
BRANCH  17  18
ATOM     18  C   UNL     1       4.498   7.366   0.161  0.00  0.00    +0.388 C 
ATOM     19  O   UNL     1       4.233   8.713   0.423  0.00  0.00    -0.241 OA
ATOM     20  O   UNL     1       4.640   6.635   1.184  0.00  0.00    -0.241 OA
ENDBRANCH  17  18
ENDBRANCH  12  16
ENDBRANCH   1  10
BRANCH   2  21
ATOM     21  C   UNL     1      -1.004   5.874  -4.362  0.00  0.00    +0.099 C 
BRANCH  21  22
ATOM     22  N   UNL     1      -2.378   6.268  -4.185  0.00  0.00    -0.269 NA
ATOM     23  C   UNL     1      -3.092   5.399  -3.282  0.00  0.00    +0.072 C 
ATOM     24  C   UNL     1      -2.400   5.658  -1.959  0.00  0.00    +0.019 C 
ATOM     25  C   UNL     1      -1.998   7.122  -2.079  0.00  0.00    +0.019 C 
ATOM     26  C   UNL     1      -2.366   7.545  -3.484  0.00  0.00    +0.072 C 
ENDBRANCH  21  22
ENDBRANCH   2  21
TORSDOF 6
ENDMDL
MODEL 3
REMARK VINA RESULT:      -8.1      3.547      6.452
REMARK  Name = 
REMARK  6 active torsions:
REMARK  status: ('A' for Active; 'I' for Inactive)
REMARK    1  A    between atoms: C_5  and  C_6
REMARK    2  A    between atoms: C_6  and  C_14
REMARK    3  A    between atoms: C_7  and  C_8
REMARK    4  A    between atoms: C_8  and  N_9
REMARK    5  A    between atoms: C_18  and  C_19
REMARK    6  A    between atoms: C_20  and  C_21
REMARK                            x       y       z     vdW  Elec       q    Type
REMARK                         _______ _______ _______ _____ _____    ______ ____
ROOT
ATOM      1  C   UNL     1       3.930   5.921  -9.827  0.00  0.00    +0.015 C 
ATOM      2  C   UNL     1       4.432   5.678  -8.625  0.00  0.00    -0.007 C 
ENDROOT
BRANCH   1   7
ATOM      3  C   UNL     1       8.793   5.894 -12.025  0.00  0.00    +0.031 C 
ATOM      4  C   UNL     1       7.354   6.265 -12.095  0.00  0.00    -0.022 A 
ATOM      5  C   UNL     1       6.867   7.396 -11.452  0.00  0.00    -0.004 A 
ATOM      6  C   UNL     1       5.608   7.404 -10.864  0.00  0.00    -0.000 A 
ATOM      7  C   UNL     1       4.769   6.303 -10.972  0.00  0.00    +0.001 A 
ATOM      8  C   UNL     1       5.160   5.332 -11.874  0.00  0.00    -0.000 A 
ATOM      9  C   UNL     1       6.378   5.382 -12.542  0.00  0.00    -0.004 A 
ENDBRANCH   1   7
BRANCH   1  10
ATOM     10  C   UNL     1       2.515   6.296  -9.870  0.00  0.00    +0.081 A 
ATOM     11  N   UNL     1       1.665   5.623  -9.057  0.00  0.00    -0.245 NA
ATOM     12  C   UNL     1       0.346   5.536  -9.305  0.00  0.00    +0.082 A 
ATOM     13  C   UNL     1      -0.094   5.761 -10.601  0.00  0.00    +0.019 A 
ATOM     14  C   UNL     1       0.662   6.574 -11.413  0.00  0.00    +0.003 A 
ATOM     15  C   UNL     1       2.016   6.659 -11.115  0.00  0.00    +0.019 A 
BRANCH  12  16
ATOM     16  C   UNL     1      -0.614   5.212  -8.249  0.00  0.00    +0.026 C 
ATOM     17  C   UNL     1      -0.407   5.663  -7.029  0.00  0.00    +0.088 C 
BRANCH  17  18
ATOM     18  C   UNL     1      -1.430   5.705  -5.993  0.00  0.00    +0.388 C 
ATOM     19  O   UNL     1      -1.320   6.712  -5.030  0.00  0.00    -0.241 OA
ATOM     20  O   UNL     1      -2.613   5.392  -6.315  0.00  0.00    -0.241 OA
ENDBRANCH  17  18
ENDBRANCH  12  16
ENDBRANCH   1  10
BRANCH   2  21
ATOM     21  C   UNL     1       3.906   6.261  -7.375  0.00  0.00    +0.099 C 
BRANCH  21  22
ATOM     22  N   UNL     1       4.231   5.483  -6.207  0.00  0.00    -0.269 NA
ATOM     23  C   UNL     1       4.845   6.274  -5.168  0.00  0.00    +0.072 C 
ATOM     24  C   UNL     1       3.726   7.209  -4.760  0.00  0.00    +0.019 C 
ATOM     25  C   UNL     1       2.485   6.353  -4.982  0.00  0.00    +0.019 C 
ATOM     26  C   UNL     1       2.969   5.066  -5.611  0.00  0.00    +0.072 C 
ENDBRANCH  21  22
ENDBRANCH   2  21
TORSDOF 6
ENDMDL
MODEL 4
REMARK VINA RESULT:      -8.1      4.214      6.507
REMARK  Name = 
REMARK  6 active torsions:
REMARK  status: ('A' for Active; 'I' for Inactive)
REMARK    1  A    between atoms: C_5  and  C_6
REMARK    2  A    between atoms: C_6  and  C_14
REMARK    3  A    between atoms: C_7  and  C_8
REMARK    4  A    between atoms: C_8  and  N_9
REMARK    5  A    between atoms: C_18  and  C_19
REMARK    6  A    between atoms: C_20  and  C_21
REMARK                            x       y       z     vdW  Elec       q    Type
REMARK                         _______ _______ _______ _____ _____    ______ ____
ROOT
ATOM      1  C   UNL     1       0.571   6.495  -5.622  0.00  0.00    +0.015 C 
ATOM      2  C   UNL     1       1.434   6.316  -4.633  0.00  0.00    -0.007 C 
ENDROOT
BRANCH   1   7
ATOM      3  C   UNL     1      -3.418   6.614  -2.077  0.00  0.00    +0.031 C 
ATOM      4  C   UNL     1      -2.946   6.721  -3.484  0.00  0.00    -0.022 A 
ATOM      5  C   UNL     1      -2.708   5.589  -4.255  0.00  0.00    -0.004 A 
ATOM      6  C   UNL     1      -1.662   5.545  -5.167  0.00  0.00    -0.000 A 
ATOM      7  C   UNL     1      -0.871   6.664  -5.391  0.00  0.00    +0.001 A 
ATOM      8  C   UNL     1      -1.331   7.848  -4.845  0.00  0.00    -0.000 A 
ATOM      9  C   UNL     1      -2.444   7.903  -4.014  0.00  0.00    -0.004 A 
ENDBRANCH   1   7
BRANCH   1  10
ATOM     10  C   UNL     1       0.994   6.016  -6.940  0.00  0.00    +0.081 A 
ATOM     11  N   UNL     1       2.075   6.609  -7.502  0.00  0.00    -0.245 NA
ATOM     12  C   UNL     1       2.293   6.603  -8.829  0.00  0.00    +0.082 A 
ATOM     13  C   UNL     1       1.214   6.371  -9.670  0.00  0.00    +0.019 A 
ATOM     14  C   UNL     1       0.159   5.632  -9.186  0.00  0.00    +0.003 A 
ATOM     15  C   UNL     1      -0.023   5.642  -7.809  0.00  0.00    +0.019 A 
BRANCH  12  16
ATOM     16  C   UNL     1       3.624   6.835  -9.390  0.00  0.00    +0.026 C 
ATOM     17  C   UNL     1       4.566   5.931  -9.209  0.00  0.00    +0.088 C 
BRANCH  17  18
ATOM     18  C   UNL     1       5.798   5.875  -9.983  0.00  0.00    +0.388 C 
ATOM     19  O   UNL     1       5.847   6.632 -11.157  0.00  0.00    -0.241 OA
ATOM     20  O   UNL     1       6.891   5.784  -9.353  0.00  0.00    -0.241 OA
ENDBRANCH  17  18
ENDBRANCH  12  16
ENDBRANCH   1  10
BRANCH   2  21
ATOM     21  C   UNL     1       2.457   5.252  -4.608  0.00  0.00    +0.099 C 
BRANCH  21  22
ATOM     22  N   UNL     1       3.490   5.482  -3.632  0.00  0.00    -0.269 NA
ATOM     23  C   UNL     1       4.782   5.014  -4.072  0.00  0.00    +0.072 C 
ATOM     24  C   UNL     1       5.086   5.931  -5.239  0.00  0.00    +0.019 C 
ATOM     25  C   UNL     1       4.406   7.230  -4.823  0.00  0.00    +0.019 C 
ATOM     26  C   UNL     1       3.669   6.925  -3.537  0.00  0.00    +0.072 C 
ENDBRANCH  21  22
ENDBRANCH   2  21
TORSDOF 6
ENDMDL
MODEL 5
REMARK VINA RESULT:      -8.0      6.261     10.122
REMARK  Name = 
REMARK  6 active torsions:
REMARK  status: ('A' for Active; 'I' for Inactive)
REMARK    1  A    between atoms: C_5  and  C_6
REMARK    2  A    between atoms: C_6  and  C_14
REMARK    3  A    between atoms: C_7  and  C_8
REMARK    4  A    between atoms: C_8  and  N_9
REMARK    5  A    between atoms: C_18  and  C_19
REMARK    6  A    between atoms: C_20  and  C_21
REMARK                            x       y       z     vdW  Elec       q    Type
REMARK                         _______ _______ _______ _____ _____    ______ ____
ROOT
ATOM      1  C   UNL     1       0.968   6.759  -5.617  0.00  0.00    +0.015 C 
ATOM      2  C   UNL     1      -0.286   6.855  -5.198  0.00  0.00    -0.007 C 
ENDROOT
BRANCH   1   7
ATOM      3  C   UNL     1       4.018   4.640  -9.450  0.00  0.00    +0.031 C 
ATOM      4  C   UNL     1       2.956   5.596  -9.035  0.00  0.00    -0.022 A 
ATOM      5  C   UNL     1       3.270   6.826  -8.470  0.00  0.00    -0.004 A 
ATOM      6  C   UNL     1       2.490   7.375  -7.461  0.00  0.00    -0.000 A 
ATOM      7  C   UNL     1       1.325   6.743  -7.043  0.00  0.00    +0.001 A 
ATOM      8  C   UNL     1       0.886   5.701  -7.836  0.00  0.00    -0.000 A 
ATOM      9  C   UNL     1       1.623   5.221  -8.912  0.00  0.00    -0.004 A 
ENDBRANCH   1   7
BRANCH   1  10
ATOM     10  C   UNL     1       1.917   6.165  -4.674  0.00  0.00    +0.081 A 
ATOM     11  N   UNL     1       2.640   7.010  -3.899  0.00  0.00    -0.245 NA
ATOM     12  C   UNL     1       3.816   6.658  -3.350  0.00  0.00    +0.082 A 
ATOM     13  C   UNL     1       4.509   5.593  -3.910  0.00  0.00    +0.019 A 
ATOM     14  C   UNL     1       3.790   4.624  -4.571  0.00  0.00    +0.003 A 
ATOM     15  C   UNL     1       2.570   5.017  -5.105  0.00  0.00    +0.019 A 
BRANCH  12  16
ATOM     16  C   UNL     1       4.368   7.366  -2.195  0.00  0.00    +0.026 C 
ATOM     17  C   UNL     1       3.840   7.167  -1.005  0.00  0.00    +0.088 C 
BRANCH  17  18
ATOM     18  C   UNL     1       4.492   7.531   0.245  0.00  0.00    +0.388 C 
ATOM     19  O   UNL     1       4.289   8.832   0.713  0.00  0.00    -0.241 OA
ATOM     20  O   UNL     1       4.594   6.644   1.142  0.00  0.00    -0.241 OA
ENDBRANCH  17  18
ENDBRANCH  12  16
ENDBRANCH   1  10
BRANCH   2  21
ATOM     21  C   UNL     1      -0.891   5.970  -4.184  0.00  0.00    +0.099 C 
BRANCH  21  22
ATOM     22  N   UNL     1      -2.285   6.245  -3.951  0.00  0.00    -0.269 NA
ATOM     23  C   UNL     1      -2.890   5.306  -3.039  0.00  0.00    +0.072 C 
ATOM     24  C   UNL     1      -2.174   5.601  -1.737  0.00  0.00    +0.019 C 
ATOM     25  C   UNL     1      -1.899   7.096  -1.844  0.00  0.00    +0.019 C 
ATOM     26  C   UNL     1      -2.352   7.508  -3.227  0.00  0.00    +0.072 C 
ENDBRANCH  21  22
ENDBRANCH   2  21
TORSDOF 6
ENDMDL
MODEL 6
REMARK VINA RESULT:      -7.9      3.467      6.438
REMARK  Name = 
REMARK  6 active torsions:
REMARK  status: ('A' for Active; 'I' for Inactive)
REMARK    1  A    between atoms: C_5  and  C_6
REMARK    2  A    between atoms: C_6  and  C_14
REMARK    3  A    between atoms: C_7  and  C_8
REMARK    4  A    between atoms: C_8  and  N_9
REMARK    5  A    between atoms: C_18  and  C_19
REMARK    6  A    between atoms: C_20  and  C_21
REMARK                            x       y       z     vdW  Elec       q    Type
REMARK                         _______ _______ _______ _____ _____    ______ ____
ROOT
ATOM      1  C   UNL     1       4.048   6.499  -9.972  0.00  0.00    +0.015 C 
ATOM      2  C   UNL     1       3.349   6.414 -11.094  0.00  0.00    -0.007 C 
ENDROOT
BRANCH   1   7
ATOM      3  C   UNL     1       8.739   5.715 -12.393  0.00  0.00    +0.031 C 
ATOM      4  C   UNL     1       7.954   6.300 -11.274  0.00  0.00    -0.022 A 
ATOM      5  C   UNL     1       7.580   5.535 -10.175  0.00  0.00    -0.004 A 
ATOM      6  C   UNL     1       6.354   5.723  -9.551  0.00  0.00    -0.000 A 
ATOM      7  C   UNL     1       5.499   6.738  -9.960  0.00  0.00    +0.001 A 
ATOM      8  C   UNL     1       6.036   7.663 -10.835  0.00  0.00    -0.000 A 
ATOM      9  C   UNL     1       7.308   7.526 -11.378  0.00  0.00    -0.004 A 
ENDBRANCH   1   7
BRANCH   1  10
ATOM     10  C   UNL     1       3.458   5.854  -8.797  0.00  0.00    +0.081 A 
ATOM     11  N   UNL     1       2.139   6.059  -8.568  0.00  0.00    -0.245 NA
ATOM     12  C   UNL     1       1.588   5.927  -7.348  0.00  0.00    +0.082 A 
ATOM     13  C   UNL     1       2.421   6.001  -6.241  0.00  0.00    +0.019 A 
ATOM     14  C   UNL     1       3.741   5.645  -6.395  0.00  0.00    +0.003 A 
ATOM     15  C   UNL     1       4.271   5.773  -7.672  0.00  0.00    +0.019 A 
BRANCH  12  16
ATOM     16  C   UNL     1       0.152   5.712  -7.173  0.00  0.00    +0.026 C 
ATOM     17  C   UNL     1      -0.355   5.701  -5.956  0.00  0.00    +0.088 C 
BRANCH  17  18
ATOM     18  C   UNL     1      -1.775   5.839  -5.666  0.00  0.00    +0.388 C 
ATOM     19  O   UNL     1      -2.142   6.818  -4.739  0.00  0.00    -0.241 OA
ATOM     20  O   UNL     1      -2.595   5.655  -6.612  0.00  0.00    -0.241 OA
ENDBRANCH  17  18
ENDBRANCH  12  16
ENDBRANCH   1  10
BRANCH   2  21
ATOM     21  C   UNL     1       2.393   5.330 -11.395  0.00  0.00    +0.099 C 
BRANCH  21  22
ATOM     22  N   UNL     1       1.501   5.647 -12.480  0.00  0.00    -0.269 NA
ATOM     23  C   UNL     1       0.495   4.634 -12.684  0.00  0.00    +0.072 C 
ATOM     24  C   UNL     1      -0.328   4.726 -11.415  0.00  0.00    +0.019 C 
ATOM     25  C   UNL     1      -0.231   6.206 -11.066  0.00  0.00    +0.019 C 
ATOM     26  C   UNL     1       0.728   6.811 -12.067  0.00  0.00    +0.072 C 
ENDBRANCH  21  22
ENDBRANCH   2  21
TORSDOF 6
ENDMDL
MODEL 7
REMARK VINA RESULT:      -7.8      5.926      9.630
REMARK  Name = 
REMARK  6 active torsions:
REMARK  status: ('A' for Active; 'I' for Inactive)
REMARK    1  A    between atoms: C_5  and  C_6
REMARK    2  A    between atoms: C_6  and  C_14
REMARK    3  A    between atoms: C_7  and  C_8
REMARK    4  A    between atoms: C_8  and  N_9
REMARK    5  A    between atoms: C_18  and  C_19
REMARK    6  A    between atoms: C_20  and  C_21
REMARK                            x       y       z     vdW  Elec       q    Type
REMARK                         _______ _______ _______ _____ _____    ______ ____
ROOT
ATOM      1  C   UNL     1       2.559   6.316  -5.953  0.00  0.00    +0.015 C 
ATOM      2  C   UNL     1       1.422   6.858  -6.364  0.00  0.00    -0.007 C 
ENDROOT
BRANCH   1   7
ATOM      3  C   UNL     1       4.581   5.208 -10.766  0.00  0.00    +0.031 C 
ATOM      4  C   UNL     1       4.384   4.836  -9.339  0.00  0.00    -0.022 A 
ATOM      5  C   UNL     1       3.207   4.239  -8.904  0.00  0.00    -0.004 A 
ATOM      6  C   UNL     1       2.667   4.535  -7.659  0.00  0.00    -0.000 A 
ATOM      7  C   UNL     1       3.333   5.380  -6.781  0.00  0.00    +0.001 A 
ATOM      8  C   UNL     1       4.635   5.698  -7.120  0.00  0.00    -0.000 A 
ATOM      9  C   UNL     1       5.207   5.309  -8.325  0.00  0.00    -0.004 A 
ENDBRANCH   1   7
BRANCH   1  10
ATOM     10  C   UNL     1       2.759   6.262  -4.503  0.00  0.00    +0.081 A 
ATOM     11  N   UNL     1       3.196   7.388  -3.890  0.00  0.00    -0.245 NA
ATOM     12  C   UNL     1       3.836   7.365  -2.708  0.00  0.00    +0.082 A 
ATOM     13  C   UNL     1       4.433   6.178  -2.308  0.00  0.00    +0.019 A 
ATOM     14  C   UNL     1       3.915   4.996  -2.785  0.00  0.00    +0.003 A 
ATOM     15  C   UNL     1       3.241   5.061  -3.997  0.00  0.00    +0.019 A 
BRANCH  12  16
ATOM     16  C   UNL     1       3.912   8.549  -1.851  0.00  0.00    +0.026 C 
ATOM     17  C   UNL     1       3.158   8.614  -0.773  0.00  0.00    +0.088 C 
BRANCH  17  18
ATOM     18  C   UNL     1       3.381   9.551   0.319  0.00  0.00    +0.388 C 
ATOM     19  O   UNL     1       4.489   9.321   1.140  0.00  0.00    -0.241 OA
ATOM     20  O   UNL     1       3.098  10.769   0.123  0.00  0.00    -0.241 OA
ENDBRANCH  17  18
ENDBRANCH  12  16
ENDBRANCH   1  10
BRANCH   2  21
ATOM     21  C   UNL     1       0.182   6.887  -5.565  0.00  0.00    +0.099 C 
BRANCH  21  22
ATOM     22  N   UNL     1      -0.358   5.577  -5.309  0.00  0.00    -0.269 NA
ATOM     23  C   UNL     1      -1.326   5.575  -4.239  0.00  0.00    +0.072 C 
ATOM     24  C   UNL     1      -2.459   6.398  -4.818  0.00  0.00    +0.019 C 
ATOM     25  C   UNL     1      -2.377   6.072  -6.303  0.00  0.00    +0.019 C 
ATOM     26  C   UNL     1      -1.147   5.209  -6.477  0.00  0.00    +0.072 C 
ENDBRANCH  21  22
ENDBRANCH   2  21
TORSDOF 6
ENDMDL
MODEL 8
REMARK VINA RESULT:      -7.8      5.945      8.527
REMARK  Name = 
REMARK  6 active torsions:
REMARK  status: ('A' for Active; 'I' for Inactive)
REMARK    1  A    between atoms: C_5  and  C_6
REMARK    2  A    between atoms: C_6  and  C_14
REMARK    3  A    between atoms: C_7  and  C_8
REMARK    4  A    between atoms: C_8  and  N_9
REMARK    5  A    between atoms: C_18  and  C_19
REMARK    6  A    between atoms: C_20  and  C_21
REMARK                            x       y       z     vdW  Elec       q    Type
REMARK                         _______ _______ _______ _____ _____    ______ ____
ROOT
ATOM      1  C   UNL     1      -0.575   5.631  -6.372  0.00  0.00    +0.015 C 
ATOM      2  C   UNL     1      -0.676   5.441  -7.680  0.00  0.00    -0.007 C 
ENDROOT
BRANCH   1   7
ATOM      3  C   UNL     1      -2.313   7.073  -1.536  0.00  0.00    +0.031 C 
ATOM      4  C   UNL     1      -2.521   7.003  -3.008  0.00  0.00    -0.022 A 
ATOM      5  C   UNL     1      -2.986   5.844  -3.618  0.00  0.00    -0.004 A 
ATOM      6  C   UNL     1      -2.526   5.454  -4.869  0.00  0.00    -0.000 A 
ATOM      7  C   UNL     1      -1.644   6.258  -5.581  0.00  0.00    +0.001 A 
ATOM      8  C   UNL     1      -1.454   7.533  -5.085  0.00  0.00    -0.000 A 
ATOM      9  C   UNL     1      -2.005   7.954  -3.880  0.00  0.00    -0.004 A 
ENDBRANCH   1   7
BRANCH   1  10
ATOM     10  C   UNL     1       0.785   5.679  -5.833  0.00  0.00    +0.081 A 
ATOM     11  N   UNL     1       0.933   5.513  -4.496  0.00  0.00    -0.245 NA
ATOM     12  C   UNL     1       2.006   5.970  -3.826  0.00  0.00    +0.082 A 
ATOM     13  C   UNL     1       2.762   6.978  -4.407  0.00  0.00    +0.019 A 
ATOM     14  C   UNL     1       2.766   7.080  -5.779  0.00  0.00    +0.003 A 
ATOM     15  C   UNL     1       1.652   6.579  -6.439  0.00  0.00    +0.019 A 
BRANCH  12  16
ATOM     16  C   UNL     1       2.383   5.430  -2.519  0.00  0.00    +0.026 C 
ATOM     17  C   UNL     1       3.630   5.063  -2.308  0.00  0.00    +0.088 C 
BRANCH  17  18
ATOM     18  C   UNL     1       4.200   4.841  -0.987  0.00  0.00    +0.388 C 
ATOM     19  O   UNL     1       4.112   5.893  -0.071  0.00  0.00    -0.241 OA
ATOM     20  O   UNL     1       4.108   3.681  -0.488  0.00  0.00    -0.241 OA
ENDBRANCH  17  18
ENDBRANCH  12  16
ENDBRANCH   1  10
BRANCH   2  21
ATOM     21  C   UNL     1       0.366   5.818  -8.655  0.00  0.00    +0.099 C 
BRANCH  21  22
ATOM     22  N   UNL     1       0.814   4.711  -9.461  0.00  0.00    -0.269 NA
ATOM     23  C   UNL     1       0.060   4.576 -10.683  0.00  0.00    +0.072 C 
ATOM     24  C   UNL     1       0.431   5.834 -11.441  0.00  0.00    +0.019 C 
ATOM     25  C   UNL     1       1.864   6.081 -10.988  0.00  0.00    +0.019 C 
ATOM     26  C   UNL     1       2.154   5.043  -9.928  0.00  0.00    +0.072 C 
ENDBRANCH  21  22
ENDBRANCH   2  21
TORSDOF 6
ENDMDL
MODEL 9
REMARK VINA RESULT:      -7.7      5.614      8.083
REMARK  Name = 
REMARK  6 active torsions:
REMARK  status: ('A' for Active; 'I' for Inactive)
REMARK    1  A    between atoms: C_5  and  C_6
REMARK    2  A    between atoms: C_6  and  C_14
REMARK    3  A    between atoms: C_7  and  C_8
REMARK    4  A    between atoms: C_8  and  N_9
REMARK    5  A    between atoms: C_18  and  C_19
REMARK    6  A    between atoms: C_20  and  C_21
REMARK                            x       y       z     vdW  Elec       q    Type
REMARK                         _______ _______ _______ _____ _____    ______ ____
ROOT
ATOM      1  C   UNL     1       0.680   5.918  -6.401  0.00  0.00    +0.015 C 
ATOM      2  C   UNL     1       1.140   6.076  -7.634  0.00  0.00    -0.007 C 
ENDROOT
BRANCH   1   7
ATOM      3  C   UNL     1      -3.111   5.947  -2.644  0.00  0.00    +0.031 C 
ATOM      4  C   UNL     1      -2.613   6.403  -3.970  0.00  0.00    -0.022 A 
ATOM      5  C   UNL     1      -2.734   5.605  -5.102  0.00  0.00    -0.004 A 
ATOM      6  C   UNL     1      -1.744   5.581  -6.075  0.00  0.00    -0.000 A 
ATOM      7  C   UNL     1      -0.638   6.416  -5.981  0.00  0.00    +0.001 A 
ATOM      8  C   UNL     1      -0.709   7.405  -5.019  0.00  0.00    -0.000 A 
ATOM      9  C   UNL     1      -1.758   7.489  -4.111  0.00  0.00    -0.004 A 
ENDBRANCH   1   7
BRANCH   1  10
ATOM     10  C   UNL     1       1.688   5.707  -5.361  0.00  0.00    +0.081 A 
ATOM     11  N   UNL     1       2.298   6.804  -4.850  0.00  0.00    -0.245 NA
ATOM     12  C   UNL     1       3.505   6.749  -4.259  0.00  0.00    +0.082 A 
ATOM     13  C   UNL     1       4.325   5.665  -4.541  0.00  0.00    +0.019 A 
ATOM     14  C   UNL     1       3.733   4.479  -4.910  0.00  0.00    +0.003 A 
ATOM     15  C   UNL     1       2.478   4.572  -5.497  0.00  0.00    +0.019 A 
BRANCH  12  16
ATOM     16  C   UNL     1       3.959   7.794  -3.341  0.00  0.00    +0.026 C 
ATOM     17  C   UNL     1       3.375   7.919  -2.167  0.00  0.00    +0.088 C 
BRANCH  17  18
ATOM     18  C   UNL     1       3.940   8.668  -1.054  0.00  0.00    +0.388 C 
ATOM     19  O   UNL     1       3.565  10.009  -0.934  0.00  0.00    -0.241 OA
ATOM     20  O   UNL     1       4.122   8.059   0.040  0.00  0.00    -0.241 OA
ENDBRANCH  17  18
ENDBRANCH  12  16
ENDBRANCH   1  10
BRANCH   2  21
ATOM     21  C   UNL     1       2.484   6.593  -7.957  0.00  0.00    +0.099 C 
BRANCH  21  22
ATOM     22  N   UNL     1       2.854   6.387  -9.333  0.00  0.00    -0.269 NA
ATOM     23  C   UNL     1       4.259   6.614  -9.569  0.00  0.00    +0.072 C 
ATOM     24  C   UNL     1       4.911   5.496  -8.780  0.00  0.00    +0.019 C 
ATOM     25  C   UNL     1       3.886   4.375  -8.890  0.00  0.00    +0.019 C 
ATOM     26  C   UNL     1       2.692   4.965  -9.607  0.00  0.00    +0.072 C 
ENDBRANCH  21  22
ENDBRANCH   2  21
TORSDOF 6
ENDMDL
