MODEL 1
REMARK VINA RESULT:      -7.2      0.000      0.000
REMARK  Name = 
REMARK  3 active torsions:
REMARK  status: ('A' for Active; 'I' for Inactive)
REMARK    1  A    between atoms: C_5  and  C_6
REMARK    2  A    between atoms: C_6  and  C_7
REMARK    3  A    between atoms: C_6  and  C_14
REMARK                            x       y       z     vdW  Elec       q    Type
REMARK                         _______ _______ _______ _____ _____    ______ ____
ROOT
ATOM      1  C   UNL     1       1.310   5.102  -7.127  0.00  0.00    +0.076 C 
ENDROOT
BRANCH   1   6
ATOM      2 CL   UNL     1      -3.163   6.565  -3.552  0.00  0.00    -0.082 Cl
ATOM      3  C   UNL     1      -2.105   6.505  -4.958  0.00  0.00    +0.058 A 
ATOM      4  C   UNL     1      -1.008   7.351  -5.080  0.00  0.00    +0.011 A 
ATOM      5  C   UNL     1       0.153   6.723  -5.517  0.00  0.00    -0.003 A 
ATOM      6  C   UNL     1       0.012   5.949  -6.627  0.00  0.00    -0.016 A 
ATOM      7  C   UNL     1      -1.128   5.142  -6.596  0.00  0.00    -0.003 A 
ATOM      8  C   UNL     1      -2.300   5.604  -5.998  0.00  0.00    +0.011 A 
ENDBRANCH   1   6
BRANCH   1   9
ATOM      9  C   UNL     1       1.331   5.738  -8.630  0.00  0.00    -0.005 A 
ATOM     10  C   UNL     1       2.308   5.211  -9.442  0.00  0.00    +0.054 A 
ATOM     11 CL   UNL     1       3.469   4.015  -8.959  0.00  0.00    -0.083 Cl
ATOM     12  C   UNL     1       2.294   5.660 -10.757  0.00  0.00    +0.011 A 
ATOM     13  C   UNL     1       1.142   6.220 -11.290  0.00  0.00    +0.001 A 
ATOM     14  C   UNL     1       0.021   6.324 -10.478  0.00  0.00    -0.000 A 
ATOM     15  C   UNL     1       0.057   5.799  -9.192  0.00  0.00    -0.003 A 
ENDBRANCH   1   9
BRANCH   1  16
ATOM     16  C   UNL     1       2.351   6.212  -6.478  0.00  0.00    +0.167 C 
ATOM     17 CL   UNL     1       2.609   7.551  -7.426  0.00  0.00    -0.096 Cl
ATOM     18 CL   UNL     1       3.617   5.365  -5.671  0.00  0.00    -0.096 Cl
ENDBRANCH   1  16
TORSDOF 3
ENDMDL
MODEL 2
REMARK VINA RESULT:      -7.2      3.244      6.810
REMARK  Name = 
REMARK  3 active torsions:
REMARK  status: ('A' for Active; 'I' for Inactive)
REMARK    1  A    between atoms: C_5  and  C_6
REMARK    2  A    between atoms: C_6  and  C_7
REMARK    3  A    between atoms: C_6  and  C_14
REMARK                            x       y       z     vdW  Elec       q    Type
REMARK                         _______ _______ _______ _____ _____    ______ ____
ROOT
ATOM      1  C   UNL     1       3.648   6.431  -9.508  0.00  0.00    +0.076 C 
ENDROOT
BRANCH   1   6
ATOM      2 CL   UNL     1       8.525   6.094 -12.828  0.00  0.00    -0.082 Cl
ATOM      3  C   UNL     1       6.863   6.400 -12.336  0.00  0.00    +0.058 A 
ATOM      4  C   UNL     1       5.880   5.422 -12.444  0.00  0.00    +0.011 A 
ATOM      5  C   UNL     1       5.059   5.310 -11.327  0.00  0.00    -0.003 A 
ATOM      6  C   UNL     1       4.531   6.480 -10.876  0.00  0.00    -0.016 A 
ATOM      7  C   UNL     1       5.458   7.524 -10.834  0.00  0.00    -0.003 A 
ATOM      8  C   UNL     1       6.457   7.617 -11.803  0.00  0.00    +0.011 A 
ENDBRANCH   1   6
BRANCH   1   9
ATOM      9  C   UNL     1       2.321   5.791 -10.212  0.00  0.00    -0.005 A 
ATOM     10  C   UNL     1       1.192   5.854  -9.429  0.00  0.00    +0.054 A 
ATOM     11 CL   UNL     1       1.130   6.497  -7.819  0.00  0.00    -0.083 Cl
ATOM     12  C   UNL     1       0.024   5.407 -10.034  0.00  0.00    +0.011 A 
ATOM     13  C   UNL     1      -0.064   5.340 -11.416  0.00  0.00    +0.001 A 
ATOM     14  C   UNL     1       1.039   5.723 -12.168  0.00  0.00    -0.000 A 
ATOM     15  C   UNL     1       2.161   6.230 -11.526  0.00  0.00    -0.003 A 
ENDBRANCH   1   9
BRANCH   1  16
ATOM     16  C   UNL     1       4.304   4.977  -9.073  0.00  0.00    +0.167 C 
ATOM     17 CL   UNL     1       3.194   3.771  -8.806  0.00  0.00    -0.096 Cl
ATOM     18 CL   UNL     1       5.646   5.275  -8.031  0.00  0.00    -0.096 Cl
ENDBRANCH   1  16
TORSDOF 3
ENDMDL
MODEL 3
REMARK VINA RESULT:      -7.2      2.739      4.154
REMARK  Name = 
REMARK  3 active torsions:
REMARK  status: ('A' for Active; 'I' for Inactive)
REMARK    1  A    between atoms: C_5  and  C_6
REMARK    2  A    between atoms: C_6  and  C_7
REMARK    3  A    between atoms: C_6  and  C_14
REMARK                            x       y       z     vdW  Elec       q    Type
REMARK                         _______ _______ _______ _____ _____    ______ ____
ROOT
ATOM      1  C   UNL     1       0.756   6.640  -6.098  0.00  0.00    +0.076 C 
ENDROOT
BRANCH   1   6
ATOM      2 CL   UNL     1      -3.870   6.505  -2.423  0.00  0.00    -0.082 Cl
ATOM      3  C   UNL     1      -2.275   6.852  -3.080  0.00  0.00    +0.058 A 
ATOM      4  C   UNL     1      -1.201   5.992  -2.877  0.00  0.00    +0.011 A 
ATOM      5  C   UNL     1      -0.438   5.750  -4.015  0.00  0.00    -0.003 A 
ATOM      6  C   UNL     1      -0.049   6.859  -4.699  0.00  0.00    -0.016 A 
ATOM      7  C   UNL     1      -1.069   7.800  -4.853  0.00  0.00    -0.003 A 
ATOM      8  C   UNL     1      -2.015   7.983  -3.845  0.00  0.00    +0.011 A 
ENDBRANCH   1   6
BRANCH   1   9
ATOM      9  C   UNL     1       2.194   6.323  -5.393  0.00  0.00    -0.005 A 
ATOM     10  C   UNL     1       3.270   6.478  -6.235  0.00  0.00    +0.054 A 
ATOM     11 CL   UNL     1       3.172   6.921  -7.910  0.00  0.00    -0.083 Cl
ATOM     12  C   UNL     1       4.516   6.310  -5.643  0.00  0.00    +0.011 A 
ATOM     13  C   UNL     1       4.657   6.429  -4.268  0.00  0.00    +0.001 A 
ATOM     14  C   UNL     1       3.527   6.710  -3.510  0.00  0.00    -0.000 A 
ATOM     15  C   UNL     1       2.315   6.939  -4.149  0.00  0.00    -0.003 A 
ENDBRANCH   1   9
BRANCH   1  16
ATOM     16  C   UNL     1       0.278   5.058  -6.186  0.00  0.00    +0.167 C 
ATOM     17 CL   UNL     1       1.525   3.963  -6.226  0.00  0.00    -0.096 Cl
ATOM     18 CL   UNL     1      -1.099   4.962  -7.218  0.00  0.00    -0.096 Cl
ENDBRANCH   1  16
TORSDOF 3
ENDMDL
MODEL 4
REMARK VINA RESULT:      -6.9      2.230      5.430
REMARK  Name = 
REMARK  3 active torsions:
REMARK  status: ('A' for Active; 'I' for Inactive)
REMARK    1  A    between atoms: C_5  and  C_6
REMARK    2  A    between atoms: C_6  and  C_7
REMARK    3  A    between atoms: C_6  and  C_14
REMARK                            x       y       z     vdW  Elec       q    Type
REMARK                         _______ _______ _______ _____ _____    ______ ____
ROOT
ATOM      1  C   UNL     1       0.985   7.262  -5.524  0.00  0.00    +0.076 C 
ENDROOT
BRANCH   1   6
ATOM      2 CL   UNL     1       5.567   5.666  -8.897  0.00  0.00    -0.082 Cl
ATOM      3  C   UNL     1       3.918   5.884  -8.323  0.00  0.00    +0.058 A 
ATOM      4  C   UNL     1       3.304   4.949  -7.496  0.00  0.00    +0.011 A 
ATOM      5  C   UNL     1       2.610   5.501  -6.425  0.00  0.00    -0.003 A 
ATOM      6  C   UNL     1       1.748   6.503  -6.746  0.00  0.00    -0.016 A 
ATOM      7  C   UNL     1       2.285   7.424  -7.649  0.00  0.00    -0.003 A 
ATOM      8  C   UNL     1       3.158   7.002  -8.650  0.00  0.00    +0.011 A 
ENDBRANCH   1   6
BRANCH   1   9
ATOM      9  C   UNL     1      -0.364   6.347  -5.602  0.00  0.00    -0.005 A 
ATOM     10  C   UNL     1      -1.493   6.980  -5.135  0.00  0.00    +0.054 A 
ATOM     11 CL   UNL     1      -1.534   8.582  -4.470  0.00  0.00    -0.083 Cl
ATOM     12  C   UNL     1      -2.676   6.266  -5.275  0.00  0.00    +0.011 A 
ATOM     13  C   UNL     1      -2.762   5.233  -6.197  0.00  0.00    +0.001 A 
ATOM     14  C   UNL     1      -1.641   4.934  -6.961  0.00  0.00    -0.000 A 
ATOM     15  C   UNL     1      -0.501   5.718  -6.838  0.00  0.00    -0.003 A 
ENDBRANCH   1   9
BRANCH   1  16
ATOM     16  C   UNL     1       1.742   6.320  -4.395  0.00  0.00    +0.167 C 
ATOM     17 CL   UNL     1       0.740   5.270  -3.588  0.00  0.00    -0.096 Cl
ATOM     18 CL   UNL     1       2.944   7.274  -3.608  0.00  0.00    -0.096 Cl
ENDBRANCH   1  16
TORSDOF 3
ENDMDL
MODEL 5
REMARK VINA RESULT:      -6.8      2.889      4.807
REMARK  Name = 
REMARK  3 active torsions:
REMARK  status: ('A' for Active; 'I' for Inactive)
REMARK    1  A    between atoms: C_5  and  C_6
REMARK    2  A    between atoms: C_6  and  C_7
REMARK    3  A    between atoms: C_6  and  C_14
REMARK                            x       y       z     vdW  Elec       q    Type
REMARK                         _______ _______ _______ _____ _____    ______ ____
ROOT
ATOM      1  C   UNL     1       2.334   6.344  -6.263  0.00  0.00    +0.076 C 
ENDROOT
BRANCH   1   6
ATOM      2 CL   UNL     1       4.872   7.091  -0.979  0.00  0.00    -0.082 Cl
ATOM      3  C   UNL     1       4.646   6.675  -2.673  0.00  0.00    +0.058 A 
ATOM      4  C   UNL     1       4.206   5.414  -3.061  0.00  0.00    +0.011 A 
ATOM      5  C   UNL     1       3.220   5.428  -4.042  0.00  0.00    -0.003 A 
ATOM      6  C   UNL     1       3.493   6.200  -5.128  0.00  0.00    -0.016 A 
ATOM      7  C   UNL     1       4.026   7.449  -4.797  0.00  0.00    -0.003 A 
ATOM      8  C   UNL     1       4.876   7.583  -3.700  0.00  0.00    +0.011 A 
ENDBRANCH   1   6
BRANCH   1   9
ATOM      9  C   UNL     1       3.197   5.623  -7.446  0.00  0.00    -0.005 A 
ATOM     10  C   UNL     1       2.753   5.917  -8.714  0.00  0.00    +0.054 A 
ATOM     11 CL   UNL     1       1.383   6.916  -9.085  0.00  0.00    -0.083 Cl
ATOM     12  C   UNL     1       3.522   5.399  -9.749  0.00  0.00    +0.011 A 
ATOM     13  C   UNL     1       4.836   5.020  -9.518  0.00  0.00    +0.001 A 
ATOM     14  C   UNL     1       5.351   5.167  -8.236  0.00  0.00    -0.000 A 
ATOM     15  C   UNL     1       4.570   5.754  -7.249  0.00  0.00    -0.003 A 
ENDBRANCH   1   9
BRANCH   1  16
ATOM     16  C   UNL     1       1.589   4.958  -5.753  0.00  0.00    +0.167 C 
ATOM     17 CL   UNL     1       2.082   3.581  -6.538  0.00  0.00    -0.096 Cl
ATOM     18 CL   UNL     1      -0.065   5.319  -5.423  0.00  0.00    -0.096 Cl
ENDBRANCH   1  16
TORSDOF 3
ENDMDL
MODEL 6
REMARK VINA RESULT:      -6.5      2.934      4.585
REMARK  Name = 
REMARK  3 active torsions:
REMARK  status: ('A' for Active; 'I' for Inactive)
REMARK    1  A    between atoms: C_5  and  C_6
REMARK    2  A    between atoms: C_6  and  C_7
REMARK    3  A    between atoms: C_6  and  C_14
REMARK                            x       y       z     vdW  Elec       q    Type
REMARK                         _______ _______ _______ _____ _____    ______ ____
ROOT
ATOM      1  C   UNL     1       1.065   6.700  -9.584  0.00  0.00    +0.076 C 
ENDROOT
BRANCH   1   6
ATOM      2 CL   UNL     1       4.132   5.009  -4.824  0.00  0.00    -0.082 Cl
ATOM      3  C   UNL     1       3.745   5.685  -6.402  0.00  0.00    +0.058 A 
ATOM      4  C   UNL     1       3.761   4.904  -7.553  0.00  0.00    +0.011 A 
ATOM      5  C   UNL     1       2.670   5.099  -8.393  0.00  0.00    -0.003 A 
ATOM      6  C   UNL     1       2.394   6.397  -8.692  0.00  0.00    -0.016 A 
ATOM      7  C   UNL     1       2.453   7.245  -7.583  0.00  0.00    -0.003 A 
ATOM      8  C   UNL     1       3.389   7.018  -6.574  0.00  0.00    +0.011 A 
ENDBRANCH   1   6
BRANCH   1   9
ATOM      9  C   UNL     1       1.710   6.179 -10.990  0.00  0.00    -0.005 A 
ATOM     10  C   UNL     1       1.052   6.639 -12.107  0.00  0.00    +0.054 A 
ATOM     11 CL   UNL     1      -0.363   7.643 -12.088  0.00  0.00    -0.083 Cl
ATOM     12  C   UNL     1       1.631   6.294 -13.322  0.00  0.00    +0.011 A 
ATOM     13  C   UNL     1       2.966   5.921 -13.378  0.00  0.00    +0.001 A 
ATOM     14  C   UNL     1       3.695   5.898 -12.196  0.00  0.00    -0.000 A 
ATOM     15  C   UNL     1       3.097   6.317 -11.015  0.00  0.00    -0.003 A 
ENDBRANCH   1   9
BRANCH   1  16
ATOM     16  C   UNL     1       0.395   5.244  -9.176  0.00  0.00    +0.167 C 
ATOM     17 CL   UNL     1      -0.012   4.285 -10.469  0.00  0.00    -0.096 Cl
ATOM     18 CL   UNL     1      -0.635   5.481  -7.813  0.00  0.00    -0.096 Cl
ENDBRANCH   1  16
TORSDOF 3
ENDMDL
MODEL 7
REMARK VINA RESULT:      -6.4      3.093      4.669
REMARK  Name = 
REMARK  3 active torsions:
REMARK  status: ('A' for Active; 'I' for Inactive)
REMARK    1  A    between atoms: C_5  and  C_6
REMARK    2  A    between atoms: C_6  and  C_7
REMARK    3  A    between atoms: C_6  and  C_14
REMARK                            x       y       z     vdW  Elec       q    Type
REMARK                         _______ _______ _______ _____ _____    ______ ____
ROOT
ATOM      1  C   UNL     1       2.620   6.106  -7.331  0.00  0.00    +0.076 C 
ENDROOT
BRANCH   1   6
ATOM      2 CL   UNL     1       4.385   5.953  -1.693  0.00  0.00    -0.082 Cl
ATOM      3  C   UNL     1       4.426   5.929  -3.452  0.00  0.00    +0.058 A 
ATOM      4  C   UNL     1       4.281   4.744  -4.168  0.00  0.00    +0.011 A 
ATOM      5  C   UNL     1       3.422   4.836  -5.258  0.00  0.00    -0.003 A 
ATOM      6  C   UNL     1       3.657   5.882  -6.095  0.00  0.00    -0.016 A 
ATOM      7  C   UNL     1       3.900   7.082  -5.424  0.00  0.00    -0.003 A 
ATOM      8  C   UNL     1       4.586   7.083  -4.210  0.00  0.00    +0.011 A 
ENDBRANCH   1   6
BRANCH   1   9
ATOM      9  C   UNL     1       3.661   5.614  -8.488  0.00  0.00    -0.005 A 
ATOM     10  C   UNL     1       3.240   5.890  -9.767  0.00  0.00    +0.054 A 
ATOM     11 CL   UNL     1       1.734   6.647 -10.181  0.00  0.00    -0.083 Cl
ATOM     12  C   UNL     1       4.145   5.572 -10.773  0.00  0.00    +0.011 A 
ATOM     13  C   UNL     1       5.492   5.422 -10.476  0.00  0.00    +0.001 A 
ATOM     14  C   UNL     1       5.902   5.591  -9.160  0.00  0.00    -0.000 A 
ATOM     15  C   UNL     1       4.976   5.977  -8.200  0.00  0.00    -0.003 A 
ENDBRANCH   1   9
BRANCH   1  16
ATOM     16  C   UNL     1       1.937   4.618  -7.098  0.00  0.00    +0.167 C 
ATOM     17 CL   UNL     1       2.453   3.449  -8.159  0.00  0.00    -0.096 Cl
ATOM     18 CL   UNL     1       0.282   4.840  -6.666  0.00  0.00    -0.096 Cl
ENDBRANCH   1  16
TORSDOF 3
ENDMDL
MODEL 8
REMARK VINA RESULT:      -6.3      2.121      3.520
REMARK  Name = 
REMARK  3 active torsions:
REMARK  status: ('A' for Active; 'I' for Inactive)
REMARK    1  A    between atoms: C_5  and  C_6
REMARK    2  A    between atoms: C_6  and  C_7
REMARK    3  A    between atoms: C_6  and  C_14
REMARK                            x       y       z     vdW  Elec       q    Type
REMARK                         _______ _______ _______ _____ _____    ______ ____
ROOT
ATOM      1  C   UNL     1       1.670   6.828  -8.704  0.00  0.00    +0.076 C 
ENDROOT
BRANCH   1   6
ATOM      2 CL   UNL     1      -2.557   6.453  -4.593  0.00  0.00    -0.082 Cl
ATOM      3  C   UNL     1      -1.044   6.196  -5.453  0.00  0.00    +0.058 A 
ATOM      4  C   UNL     1      -0.908   5.191  -6.405  0.00  0.00    +0.011 A 
ATOM      5  C   UNL     1      -0.262   5.588  -7.570  0.00  0.00    -0.003 A 
ATOM      6  C   UNL     1       0.917   6.242  -7.385  0.00  0.00    -0.016 A 
ATOM      7  C   UNL     1       0.861   7.205  -6.374  0.00  0.00    -0.003 A 
ATOM      8  C   UNL     1       0.077   6.991  -5.241  0.00  0.00    +0.011 A 
ENDBRANCH   1   6
BRANCH   1   9
ATOM      9  C   UNL     1       3.028   5.945  -8.503  0.00  0.00    -0.005 A 
ATOM     10  C   UNL     1       3.971   6.145  -9.484  0.00  0.00    +0.054 A 
ATOM     11 CL   UNL     1       3.776   7.188 -10.857  0.00  0.00    -0.083 Cl
ATOM     12  C   UNL     1       5.178   5.482  -9.293  0.00  0.00    +0.011 A 
ATOM     13  C   UNL     1       5.540   5.045  -8.028  0.00  0.00    +0.001 A 
ATOM     14  C   UNL     1       4.668   5.281  -6.972  0.00  0.00    -0.000 A 
ATOM     15  C   UNL     1       3.506   6.008  -7.195  0.00  0.00    -0.003 A 
ENDBRANCH   1   9
BRANCH   1  16
ATOM     16  C   UNL     1       0.919   5.729  -9.686  0.00  0.00    +0.167 C 
ATOM     17 CL   UNL     1       1.680   4.256  -9.781  0.00  0.00    -0.096 Cl
ATOM     18 CL   UNL     1       0.297   6.563 -11.062  0.00  0.00    -0.096 Cl
ENDBRANCH   1  16
TORSDOF 3
ENDMDL
MODEL 9
REMARK VINA RESULT:      -6.2      3.214      4.086
REMARK  Name = 
REMARK  3 active torsions:
REMARK  status: ('A' for Active; 'I' for Inactive)
REMARK    1  A    between atoms: C_5  and  C_6
REMARK    2  A    between atoms: C_6  and  C_7
REMARK    3  A    between atoms: C_6  and  C_14
REMARK                            x       y       z     vdW  Elec       q    Type
REMARK                         _______ _______ _______ _____ _____    ______ ____
ROOT
ATOM      1  C   UNL     1       4.039   5.039 -10.286  0.00  0.00    +0.076 C 
ENDROOT
BRANCH   1   6
ATOM      2 CL   UNL     1       2.877   4.957  -4.493  0.00  0.00    -0.082 Cl
ATOM      3  C   UNL     1       2.659   5.100  -6.233  0.00  0.00    +0.058 A 
ATOM      4  C   UNL     1       2.829   6.314  -6.891  0.00  0.00    +0.011 A 
ATOM      5  C   UNL     1       3.561   6.229  -8.070  0.00  0.00    -0.003 A 
ATOM      6  C   UNL     1       3.156   5.261  -8.936  0.00  0.00    -0.016 A 
ATOM      7  C   UNL     1       2.883   4.041  -8.312  0.00  0.00    -0.003 A 
ATOM      8  C   UNL     1       2.327   4.014  -7.034  0.00  0.00    +0.011 A 
ENDBRANCH   1   6
BRANCH   1   9
ATOM      9  C   UNL     1       3.070   5.938 -11.245  0.00  0.00    -0.005 A 
ATOM     10  C   UNL     1       3.291   5.750 -12.589  0.00  0.00    +0.054 A 
ATOM     11 CL   UNL     1       4.501   4.706 -13.265  0.00  0.00    -0.083 Cl
ATOM     12  C   UNL     1       2.420   6.426 -13.435  0.00  0.00    +0.011 A 
ATOM     13  C   UNL     1       1.192   6.867 -12.964  0.00  0.00    +0.001 A 
ATOM     14  C   UNL     1       0.867   6.620 -11.636  0.00  0.00    -0.000 A 
ATOM     15  C   UNL     1       1.736   5.879 -10.845  0.00  0.00    -0.003 A 
ENDBRANCH   1   9
BRANCH   1  16
ATOM     16  C   UNL     1       5.056   6.282  -9.890  0.00  0.00    +0.167 C 
ATOM     17 CL   UNL     1       4.984   7.585 -10.916  0.00  0.00    -0.096 Cl
ATOM     18 CL   UNL     1       6.536   5.611  -9.314  0.00  0.00    -0.096 Cl
ENDBRANCH   1  16
TORSDOF 3
ENDMDL
