MODEL 1
REMARK VINA RESULT:      -8.4      0.000      0.000
REMARK  Name = 
REMARK  0 active torsions:
REMARK  status: ('A' for Active; 'I' for Inactive)
REMARK                            x       y       z     vdW  Elec       q    Type
REMARK                         _______ _______ _______ _____ _____    ______ ____
ROOT
ATOM      1  C   UNL     1      -0.326   4.549 -10.860  0.00  0.00    +0.038 C 
ATOM      2  C   UNL     1       1.034   5.160 -10.944  0.00  0.00    +0.009 A 
ATOM      3  S   UNL     1       1.944   5.721 -12.286  0.00  0.00    -0.075 S 
ATOM      4  C   UNL     1       3.432   6.034 -11.490  0.00  0.00    +0.107 A 
ATOM      5  N   UNL     1       4.644   6.572 -12.029  0.00  0.00    -0.202 NA
ATOM      6  C   UNL     1       5.985   6.418 -11.548  0.00  0.00    +0.114 A 
ATOM      7  C   UNL     1       6.316   5.797 -10.356  0.00  0.00    +0.208 A 
ATOM      8  N   UNL     1       5.471   5.516  -9.243  0.00  0.00    -0.039 NA
ATOM      9  C   UNL     1       4.179   5.442  -9.162  0.00  0.00    +0.326 C 
ATOM     10  N   UNL     1       3.736   5.014  -7.869  0.00  0.00    -0.188 N 
ATOM     11  C   UNL     1       2.301   4.840  -7.660  0.00  0.00    +0.220 C 
ATOM     12  C   UNL     1       1.974   4.860  -6.195  0.00  0.00    +0.124 C 
ATOM     13  N   UNL     1       2.463   6.027  -5.507  0.00  0.00    -0.265 NA
ATOM     14  C   UNL     1       3.027   5.570  -4.243  0.00  0.00    +0.090 C 
ATOM     15  C   UNL     1       3.537   6.700  -6.213  0.00  0.00    +0.124 C 
ATOM     16  C   UNL     1       4.453   5.603  -6.741  0.00  0.00    +0.220 C 
ATOM     17  C   UNL     1       7.613   5.327 -10.180  0.00  0.00    +0.048 A 
ATOM     18  C   UNL     1       8.563   5.515 -11.154  0.00  0.00    +0.004 A 
ATOM     19  C   UNL     1       8.266   6.433 -12.153  0.00  0.00    +0.002 A 
ATOM     20  C   UNL     1       6.952   6.731 -12.471  0.00  0.00    +0.020 A 
ATOM     21  C   UNL     1       3.186   5.467 -10.245  0.00  0.00    +0.104 A 
ATOM     22  C   UNL     1       1.844   5.612  -9.910  0.00  0.00    +0.011 A 
ENDROOT
TORSDOF 0
ENDMDL
MODEL 2
REMARK VINA RESULT:      -8.1      3.572      7.075
REMARK  Name = 
REMARK  0 active torsions:
REMARK  status: ('A' for Active; 'I' for Inactive)
REMARK                            x       y       z     vdW  Elec       q    Type
REMARK                         _______ _______ _______ _____ _____    ______ ____
ROOT
ATOM      1  C   UNL     1       5.455   5.382  -8.252  0.00  0.00    +0.038 C 
ATOM      2  C   UNL     1       4.084   5.274  -7.670  0.00  0.00    +0.009 A 
ATOM      3  S   UNL     1       2.603   4.735  -8.349  0.00  0.00    -0.075 S 
ATOM      4  C   UNL     1       1.547   5.166  -7.067  0.00  0.00    +0.107 A 
ATOM      5  N   UNL     1       0.135   4.957  -6.956  0.00  0.00    -0.202 NA
ATOM      6  C   UNL     1      -0.820   5.678  -6.168  0.00  0.00    +0.114 A 
ATOM      7  C   UNL     1      -0.485   6.658  -5.249  0.00  0.00    +0.208 A 
ATOM      8  N   UNL     1       0.783   6.907  -4.646  0.00  0.00    -0.039 NA
ATOM      9  C   UNL     1       1.975   6.552  -5.011  0.00  0.00    +0.326 C 
ATOM     10  N   UNL     1       2.993   7.118  -4.178  0.00  0.00    -0.188 N 
ATOM     11  C   UNL     1       4.387   6.837  -4.513  0.00  0.00    +0.220 C 
ATOM     12  C   UNL     1       5.275   7.081  -3.329  0.00  0.00    +0.124 C 
ATOM     13  N   UNL     1       4.871   6.370  -2.143  0.00  0.00    -0.265 NA
ATOM     14  C   UNL     1       4.994   7.299  -1.027  0.00  0.00    +0.090 C 
ATOM     15  C   UNL     1       3.484   5.949  -2.174  0.00  0.00    +0.124 C 
ATOM     16  C   UNL     1       2.695   7.119  -2.748  0.00  0.00    +0.220 C 
ATOM     17  C   UNL     1      -1.456   7.572  -4.857  0.00  0.00    +0.048 A 
ATOM     18  C   UNL     1      -2.740   7.478  -5.338  0.00  0.00    +0.004 A 
ATOM     19  C   UNL     1      -3.090   6.292  -5.968  0.00  0.00    +0.002 A 
ATOM     20  C   UNL     1      -2.123   5.491  -6.554  0.00  0.00    +0.020 A 
ATOM     21  C   UNL     1       2.401   5.913  -6.264  0.00  0.00    +0.104 A 
ATOM     22  C   UNL     1       3.695   5.407  -6.343  0.00  0.00    +0.011 A 
ENDROOT
TORSDOF 0
ENDMDL
MODEL 3
REMARK VINA RESULT:      -8.1      1.825      2.540
REMARK  Name = 
REMARK  0 active torsions:
REMARK  status: ('A' for Active; 'I' for Inactive)
REMARK                            x       y       z     vdW  Elec       q    Type
REMARK                         _______ _______ _______ _____ _____    ______ ____
ROOT
ATOM      1  C   UNL     1      -1.255   5.000  -7.102  0.00  0.00    +0.038 C 
ATOM      2  C   UNL     1       0.011   5.543  -7.679  0.00  0.00    +0.009 A 
ATOM      3  S   UNL     1       0.434   5.966  -9.288  0.00  0.00    -0.075 S 
ATOM      4  C   UNL     1       2.107   6.270  -9.054  0.00  0.00    +0.107 A 
ATOM      5  N   UNL     1       3.080   6.715 -10.004  0.00  0.00    -0.202 NA
ATOM      6  C   UNL     1       4.503   6.538  -9.981  0.00  0.00    +0.114 A 
ATOM      7  C   UNL     1       5.199   5.991  -8.917  0.00  0.00    +0.208 A 
ATOM      8  N   UNL     1       4.766   5.828  -7.569  0.00  0.00    -0.039 NA
ATOM      9  C   UNL     1       3.573   5.817  -7.061  0.00  0.00    +0.326 C 
ATOM     10  N   UNL     1       3.577   5.502  -5.663  0.00  0.00    -0.188 N 
ATOM     11  C   UNL     1       2.290   5.407  -4.980  0.00  0.00    +0.220 C 
ATOM     12  C   UNL     1       2.467   5.547  -3.497  0.00  0.00    +0.124 C 
ATOM     13  N   UNL     1       3.177   6.738  -3.107  0.00  0.00    -0.265 NA
ATOM     14  C   UNL     1       4.119   6.349  -2.065  0.00  0.00    +0.090 C 
ATOM     15  C   UNL     1       3.967   7.310  -4.180  0.00  0.00    +0.124 C 
ATOM     16  C   UNL     1       4.637   6.140  -4.888  0.00  0.00    +0.220 C 
ATOM     17  C   UNL     1       6.472   5.479  -9.140  0.00  0.00    +0.048 A 
ATOM     18  C   UNL     1       7.049   5.555 -10.384  0.00  0.00    +0.004 A 
ATOM     19  C   UNL     1       6.454   6.410 -11.302  0.00  0.00    +0.002 A 
ATOM     20  C   UNL     1       5.114   6.741 -11.193  0.00  0.00    +0.020 A 
ATOM     21  C   UNL     1       2.278   5.806  -7.756  0.00  0.00    +0.104 A 
ATOM     22  C   UNL     1       1.126   6.033  -7.010  0.00  0.00    +0.011 A 
ENDROOT
TORSDOF 0
ENDMDL
MODEL 4
REMARK VINA RESULT:      -8.0      3.279      7.141
REMARK  Name = 
REMARK  0 active torsions:
REMARK  status: ('A' for Active; 'I' for Inactive)
REMARK                            x       y       z     vdW  Elec       q    Type
REMARK                         _______ _______ _______ _____ _____    ______ ____
ROOT
ATOM      1  C   UNL     1      -2.750   6.123  -6.375  0.00  0.00    +0.038 C 
ATOM      2  C   UNL     1      -1.550   5.850  -5.530  0.00  0.00    +0.009 A 
ATOM      3  S   UNL     1      -1.382   5.621  -3.837  0.00  0.00    -0.075 S 
ATOM      4  C   UNL     1       0.331   5.596  -3.738  0.00  0.00    +0.107 A 
ATOM      5  N   UNL     1       1.161   5.395  -2.589  0.00  0.00    -0.202 NA
ATOM      6  C   UNL     1       2.516   5.814  -2.377  0.00  0.00    +0.114 A 
ATOM      7  C   UNL     1       3.308   6.397  -3.350  0.00  0.00    +0.208 A 
ATOM      8  N   UNL     1       3.123   6.387  -4.764  0.00  0.00    -0.039 NA
ATOM      9  C   UNL     1       2.063   6.156  -5.474  0.00  0.00    +0.326 C 
ATOM     10  N   UNL     1       2.286   6.366  -6.873  0.00  0.00    -0.188 N 
ATOM     11  C   UNL     1       1.155   6.188  -7.780  0.00  0.00    +0.220 C 
ATOM     12  C   UNL     1       1.635   5.977  -9.186  0.00  0.00    +0.124 C 
ATOM     13  N   UNL     1       2.584   4.903  -9.321  0.00  0.00    -0.265 NA
ATOM     14  C   UNL     1       3.636   5.375 -10.213  0.00  0.00    +0.090 C 
ATOM     15  C   UNL     1       3.233   4.553  -8.072  0.00  0.00    +0.124 C 
ATOM     16  C   UNL     1       3.563   5.869  -7.379  0.00  0.00    +0.220 C 
ATOM     17  C   UNL     1       4.418   7.137  -2.958  0.00  0.00    +0.048 A 
ATOM     18  C   UNL     1       4.750   7.250  -1.629  0.00  0.00    +0.004 A 
ATOM     19  C   UNL     1       4.132   6.372  -0.751  0.00  0.00    +0.002 A 
ATOM     20  C   UNL     1       2.906   5.806  -1.062  0.00  0.00    +0.020 A 
ATOM     21  C   UNL     1       0.673   5.990  -5.025  0.00  0.00    +0.104 A 
ATOM     22  C   UNL     1      -0.264   5.514  -5.936  0.00  0.00    +0.011 A 
ENDROOT
TORSDOF 0
ENDMDL
MODEL 5
REMARK VINA RESULT:      -8.0      4.135      8.665
REMARK  Name = 
REMARK  0 active torsions:
REMARK  status: ('A' for Active; 'I' for Inactive)
REMARK                            x       y       z     vdW  Elec       q    Type
REMARK                         _______ _______ _______ _____ _____    ______ ____
ROOT
ATOM      1  C   UNL     1       5.150   4.339  -4.116  0.00  0.00    +0.038 C 
ATOM      2  C   UNL     1       3.827   5.012  -3.953  0.00  0.00    +0.009 A 
ATOM      3  S   UNL     1       3.065   5.697  -2.576  0.00  0.00    -0.075 S 
ATOM      4  C   UNL     1       1.523   6.021  -3.256  0.00  0.00    +0.107 A 
ATOM      5  N   UNL     1       0.386   6.643  -2.648  0.00  0.00    -0.202 NA
ATOM      6  C   UNL     1      -0.999   6.517  -2.996  0.00  0.00    +0.114 A 
ATOM      7  C   UNL     1      -1.460   5.835  -4.109  0.00  0.00    +0.208 A 
ATOM      8  N   UNL     1      -0.732   5.448  -5.272  0.00  0.00    -0.039 NA
ATOM      9  C   UNL     1       0.544   5.314  -5.463  0.00  0.00    +0.326 C 
ATOM     10  N   UNL     1       0.850   4.785  -6.758  0.00  0.00    -0.188 N 
ATOM     11  C   UNL     1       2.252   4.537  -7.082  0.00  0.00    +0.220 C 
ATOM     12  C   UNL     1       2.444   4.450  -8.568  0.00  0.00    +0.124 C 
ATOM     13  N   UNL     1       1.937   5.589  -9.287  0.00  0.00    -0.265 NA
ATOM     14  C   UNL     1       1.244   5.077 -10.462  0.00  0.00    +0.090 C 
ATOM     15  C   UNL     1       0.958   6.351  -8.535  0.00  0.00    +0.124 C 
ATOM     16  C   UNL     1       0.055   5.331  -7.855  0.00  0.00    +0.220 C 
ATOM     17  C   UNL     1      -2.784   5.411  -4.136  0.00  0.00    +0.048 A 
ATOM     18  C   UNL     1      -3.633   5.702  -3.097  0.00  0.00    +0.004 A 
ATOM     19  C   UNL     1      -3.213   6.668  -2.193  0.00  0.00    +0.002 A 
ATOM     20  C   UNL     1      -1.864   6.929  -2.014  0.00  0.00    +0.020 A 
ATOM     21  C   UNL     1       1.632   5.365  -4.476  0.00  0.00    +0.104 A 
ATOM     22  C   UNL     1       2.942   5.431  -4.939  0.00  0.00    +0.011 A 
ENDROOT
TORSDOF 0
ENDMDL
MODEL 6
REMARK VINA RESULT:      -8.0      3.009      7.402
REMARK  Name = 
REMARK  0 active torsions:
REMARK  status: ('A' for Active; 'I' for Inactive)
REMARK                            x       y       z     vdW  Elec       q    Type
REMARK                         _______ _______ _______ _____ _____    ______ ____
ROOT
ATOM      1  C   UNL     1       5.799   5.133  -8.295  0.00  0.00    +0.038 C 
ATOM      2  C   UNL     1       4.492   5.643  -7.785  0.00  0.00    +0.009 A 
ATOM      3  S   UNL     1       3.989   6.100  -6.209  0.00  0.00    -0.075 S 
ATOM      4  C   UNL     1       2.316   6.328  -6.516  0.00  0.00    +0.107 A 
ATOM      5  N   UNL     1       1.290   6.763  -5.619  0.00  0.00    -0.202 NA
ATOM      6  C   UNL     1      -0.123   6.528  -5.691  0.00  0.00    +0.114 A 
ATOM      7  C   UNL     1      -0.755   5.919  -6.761  0.00  0.00    +0.208 A 
ATOM      8  N   UNL     1      -0.263   5.730  -8.086  0.00  0.00    -0.039 NA
ATOM      9  C   UNL     1       0.948   5.751  -8.547  0.00  0.00    +0.326 C 
ATOM     10  N   UNL     1       1.012   5.392  -9.932  0.00  0.00    -0.188 N 
ATOM     11  C   UNL     1       2.328   5.327 -10.562  0.00  0.00    +0.220 C 
ATOM     12  C   UNL     1       2.203   5.411 -12.055  0.00  0.00    +0.124 C 
ATOM     13  N   UNL     1       1.463   6.559 -12.513  0.00  0.00    -0.265 NA
ATOM     14  C   UNL     1       0.578   6.099 -13.575  0.00  0.00    +0.090 C 
ATOM     15  C   UNL     1       0.610   7.134 -11.490  0.00  0.00    +0.124 C 
ATOM     16  C   UNL     1      -0.042   5.960 -10.769  0.00  0.00    +0.220 C 
ATOM     17  C   UNL     1      -2.014   5.363  -6.569  0.00  0.00    +0.048 A 
ATOM     18  C   UNL     1      -2.642   5.456  -5.351  0.00  0.00    +0.004 A 
ATOM     19  C   UNL     1      -2.118   6.364  -4.441  0.00  0.00    +0.002 A 
ATOM     20  C   UNL     1      -0.788   6.745  -4.510  0.00  0.00    +0.020 A 
ATOM     21  C   UNL     1       2.215   5.815  -7.804  0.00  0.00    +0.104 A 
ATOM     22  C   UNL     1       3.385   6.065  -8.512  0.00  0.00    +0.011 A 
ENDROOT
TORSDOF 0
ENDMDL
MODEL 7
REMARK VINA RESULT:      -7.9      2.162      4.624
REMARK  Name = 
REMARK  0 active torsions:
REMARK  status: ('A' for Active; 'I' for Inactive)
REMARK                            x       y       z     vdW  Elec       q    Type
REMARK                         _______ _______ _______ _____ _____    ______ ____
ROOT
ATOM      1  C   UNL     1       7.810   5.979  -9.358  0.00  0.00    +0.038 C 
ATOM      2  C   UNL     1       6.574   5.763 -10.167  0.00  0.00    +0.009 A 
ATOM      3  S   UNL     1       6.331   5.665 -11.863  0.00  0.00    -0.075 S 
ATOM      4  C   UNL     1       4.615   5.635 -11.888  0.00  0.00    +0.107 A 
ATOM      5  N   UNL     1       3.734   5.518 -13.010  0.00  0.00    -0.202 NA
ATOM      6  C   UNL     1       2.370   5.941 -13.128  0.00  0.00    +0.114 A 
ATOM      7  C   UNL     1       1.619   6.440 -12.077  0.00  0.00    +0.208 A 
ATOM      8  N   UNL     1       1.869   6.321 -10.679  0.00  0.00    -0.039 NA
ATOM      9  C   UNL     1       2.961   6.043 -10.037  0.00  0.00    +0.326 C 
ATOM     10  N   UNL     1       2.800   6.141  -8.617  0.00  0.00    -0.188 N 
ATOM     11  C   UNL     1       3.972   5.902  -7.778  0.00  0.00    +0.220 C 
ATOM     12  C   UNL     1       3.558   5.578  -6.373  0.00  0.00    +0.124 C 
ATOM     13  N   UNL     1       2.620   4.489  -6.280  0.00  0.00    -0.265 NA
ATOM     14  C   UNL     1       1.607   4.881  -5.309  0.00  0.00    +0.090 C 
ATOM     15  C   UNL     1       1.917   4.233  -7.522  0.00  0.00    +0.124 C 
ATOM     16  C   UNL     1       1.550   5.596  -8.095  0.00  0.00    +0.220 C 
ATOM     17  C   UNL     1       0.489   7.199 -12.360  0.00  0.00    +0.048 A 
ATOM     18  C   UNL     1       0.097   7.413 -13.659  0.00  0.00    +0.004 A 
ATOM     19  C   UNL     1       0.679   6.611 -14.631  0.00  0.00    +0.002 A 
ATOM     20  C   UNL     1       1.920   6.033 -14.421  0.00  0.00    +0.020 A 
ATOM     21  C   UNL     1       4.330   5.924 -10.559  0.00  0.00    +0.104 A 
ATOM     22  C   UNL     1       5.309   5.386  -9.731  0.00  0.00    +0.011 A 
ENDROOT
TORSDOF 0
ENDMDL
MODEL 8
REMARK VINA RESULT:      -7.9      3.288      5.435
REMARK  Name = 
REMARK  0 active torsions:
REMARK  status: ('A' for Active; 'I' for Inactive)
REMARK                            x       y       z     vdW  Elec       q    Type
REMARK                         _______ _______ _______ _____ _____    ______ ____
ROOT
ATOM      1  C   UNL     1      -1.926   5.335  -3.083  0.00  0.00    +0.038 C 
ATOM      2  C   UNL     1      -0.897   5.815  -4.053  0.00  0.00    +0.009 A 
ATOM      3  S   UNL     1      -0.989   6.147  -5.734  0.00  0.00    -0.075 S 
ATOM      4  C   UNL     1       0.677   6.417  -6.047  0.00  0.00    +0.107 A 
ATOM      5  N   UNL     1       1.312   6.788  -7.274  0.00  0.00    -0.202 NA
ATOM      6  C   UNL     1       2.669   6.574  -7.683  0.00  0.00    +0.114 A 
ATOM      7  C   UNL     1       3.655   6.061  -6.858  0.00  0.00    +0.208 A 
ATOM      8  N   UNL     1       3.661   5.976  -5.435  0.00  0.00    -0.039 NA
ATOM      9  C   UNL     1       2.685   6.022  -4.583  0.00  0.00    +0.326 C 
ATOM     10  N   UNL     1       3.119   5.776  -3.241  0.00  0.00    -0.188 N 
ATOM     11  C   UNL     1       2.106   5.750  -2.188  0.00  0.00    +0.220 C 
ATOM     12  C   UNL     1       2.737   5.957  -0.843  0.00  0.00    +0.124 C 
ATOM     13  N   UNL     1       3.545   7.146  -0.757  0.00  0.00    -0.265 NA
ATOM     14  C   UNL     1       4.760   6.783  -0.039  0.00  0.00    +0.090 C 
ATOM     15  C   UNL     1       3.969   7.644  -2.052  0.00  0.00    +0.124 C 
ATOM     16  C   UNL     1       4.374   6.422  -2.867  0.00  0.00    +0.220 C 
ATOM     17  C   UNL     1       4.791   5.503  -7.435  0.00  0.00    +0.048 A 
ATOM     18  C   UNL     1       4.954   5.503  -8.800  0.00  0.00    +0.004 A 
ATOM     19  C   UNL     1       4.113   6.328  -9.533  0.00  0.00    +0.002 A 
ATOM     20  C   UNL     1       2.876   6.700  -9.033  0.00  0.00    +0.020 A 
ATOM     21  C   UNL     1       1.237   6.012  -4.841  0.00  0.00    +0.104 A 
ATOM     22  C   UNL     1       0.376   6.307  -3.790  0.00  0.00    +0.011 A 
ENDROOT
TORSDOF 0
ENDMDL
MODEL 9
REMARK VINA RESULT:      -7.9      4.279      6.342
REMARK  Name = 
REMARK  0 active torsions:
REMARK  status: ('A' for Active; 'I' for Inactive)
REMARK                            x       y       z     vdW  Elec       q    Type
REMARK                         _______ _______ _______ _____ _____    ______ ____
ROOT
ATOM      1  C   UNL     1      -2.617   5.740  -1.898  0.00  0.00    +0.038 C 
ATOM      2  C   UNL     1      -1.864   5.881  -3.180  0.00  0.00    +0.009 A 
ATOM      3  S   UNL     1      -2.385   5.828  -4.814  0.00  0.00    -0.075 S 
ATOM      4  C   UNL     1      -0.852   5.852  -5.586  0.00  0.00    +0.107 A 
ATOM      5  N   UNL     1      -0.551   5.868  -6.985  0.00  0.00    -0.202 NA
ATOM      6  C   UNL     1       0.641   5.432  -7.651  0.00  0.00    +0.114 A 
ATOM      7  C   UNL     1       1.790   5.026  -6.997  0.00  0.00    +0.208 A 
ATOM      8  N   UNL     1       2.169   5.268  -5.644  0.00  0.00    -0.039 NA
ATOM      9  C   UNL     1       1.455   5.604  -4.615  0.00  0.00    +0.326 C 
ATOM     10  N   UNL     1       2.219   5.630  -3.404  0.00  0.00    -0.188 N 
ATOM     11  C   UNL     1       1.521   5.945  -2.161  0.00  0.00    +0.220 C 
ATOM     12  C   UNL     1       2.492   6.390  -1.107  0.00  0.00    +0.124 C 
ATOM     13  N   UNL     1       3.337   7.481  -1.520  0.00  0.00    -0.265 NA
ATOM     14  C   UNL     1       4.685   7.173  -1.059  0.00  0.00    +0.090 C 
ATOM     15  C   UNL     1       3.422   7.625  -2.961  0.00  0.00    +0.124 C 
ATOM     16  C   UNL     1       3.552   6.215  -3.524  0.00  0.00    +0.220 C 
ATOM     17  C   UNL     1       2.712   4.241  -7.681  0.00  0.00    +0.048 A 
ATOM     18  C   UNL     1       2.508   3.913  -9.000  0.00  0.00    +0.004 A 
ATOM     19  C   UNL     1       1.534   4.628  -9.682  0.00  0.00    +0.002 A 
ATOM     20  C   UNL     1       0.487   5.226  -8.999  0.00  0.00    +0.020 A 
ATOM     21  C   UNL     1      -0.008   5.679  -4.496  0.00  0.00    +0.104 A 
ATOM     22  C   UNL     1      -0.549   6.291  -3.370  0.00  0.00    +0.011 A 
ENDROOT
TORSDOF 0
ENDMDL
