MODEL 1
REMARK VINA RESULT:      -6.9      0.000      0.000
REMARK  Name = 
REMARK  8 active torsions:
REMARK  status: ('A' for Active; 'I' for Inactive)
REMARK    1  A    between atoms: C_2  and  N_3
REMARK    2  A    between atoms: N_3  and  C_4
REMARK    3  A    between atoms: N_3  and  C_6
REMARK    4  A    between atoms: C_6  and  C_7
REMARK    5  A    between atoms: C_7  and  C_8
REMARK    6  A    between atoms: C_8  and  C_9
REMARK    7  A    between atoms: C_9  and  N_11
REMARK    8  A    between atoms: N_11  and  C_12
REMARK                            x       y       z     vdW  Elec       q    Type
REMARK                         _______ _______ _______ _____ _____    ______ ____
ROOT
ATOM      1  N   UNL     1       3.967   5.557  -7.634  0.00  0.00    -0.239 NA
ENDROOT
BRANCH   1   2
ATOM      2  C   UNL     1       3.114   5.407  -6.519  0.00  0.00    +0.068 A 
ATOM      3  C   UNL     1       3.377   6.014  -5.309  0.00  0.00    +0.033 A 
ATOM      4  C   UNL     1       2.447   6.011  -4.289  0.00  0.00    +0.083 A 
ATOM      5  C   UNL     1       2.553   6.903  -3.229  0.00  0.00    +0.031 A 
ATOM      6  C   UNL     1       3.662   7.686  -3.058  0.00  0.00    +0.059 A 
ATOM      7  C   UNL     1       4.606   7.643  -4.063  0.00  0.00    +0.012 A 
ATOM      8 CL   UNL     1       3.873   8.693  -1.629  0.00  0.00    -0.082 Cl
ATOM      9  N   UNL     1       1.331   5.285  -4.481  0.00  0.00    -0.244 NA
ATOM     10  C   UNL     1       1.186   4.460  -5.518  0.00  0.00    +0.100 A 
ATOM     11  C   UNL     1       4.349   6.982  -5.242  0.00  0.00    +0.004 A 
ATOM     12  C   UNL     1       2.061   4.501  -6.567  0.00  0.00    +0.037 A 
ENDBRANCH   1   2
BRANCH   1  13
ATOM     13  C   UNL     1       3.229   5.437  -9.044  0.00  0.00    +0.093 C 
ATOM     14  C   UNL     1       3.463   7.056  -9.354  0.00  0.00    +0.023 C 
BRANCH  13  15
ATOM     15  C   UNL     1       4.654   5.033  -9.797  0.00  0.00    +0.023 C 
BRANCH  15  16
ATOM     16  C   UNL     1       5.752   5.440  -8.913  0.00  0.00    +0.019 C 
BRANCH  16  17
ATOM     17  C   UNL     1       7.084   5.697  -9.515  0.00  0.00    +0.072 C 
BRANCH  17  18
ATOM     18  N   UNL     1       6.845   5.981 -10.931  0.00  0.00    -0.273 NA
BRANCH  18  19
ATOM     19  C   UNL     1       7.685   5.190 -11.793  0.00  0.00    +0.072 C 
ATOM     20  C   UNL     1       9.033   5.839 -12.066  0.00  0.00    +0.019 C 
ENDBRANCH  18  19
BRANCH  18  22
ATOM     21  C   UNL     1       6.358   8.131 -11.464  0.00  0.00    +0.019 C 
ATOM     22  C   UNL     1       7.286   7.364 -11.113  0.00  0.00    +0.072 C 
ENDBRANCH  18  22
ENDBRANCH  17  18
ENDBRANCH  16  17
ENDBRANCH  15  16
ENDBRANCH  13  15
ENDBRANCH   1  13
TORSDOF 8
ENDMDL
MODEL 2
REMARK VINA RESULT:      -6.8      2.822      4.084
REMARK  Name = 
REMARK  8 active torsions:
REMARK  status: ('A' for Active; 'I' for Inactive)
REMARK    1  A    between atoms: C_2  and  N_3
REMARK    2  A    between atoms: N_3  and  C_4
REMARK    3  A    between atoms: N_3  and  C_6
REMARK    4  A    between atoms: C_6  and  C_7
REMARK    5  A    between atoms: C_7  and  C_8
REMARK    6  A    between atoms: C_8  and  C_9
REMARK    7  A    between atoms: C_9  and  N_11
REMARK    8  A    between atoms: N_11  and  C_12
REMARK                            x       y       z     vdW  Elec       q    Type
REMARK                         _______ _______ _______ _____ _____    ______ ____
ROOT
ATOM      1  N   UNL     1       0.264   5.414  -8.736  0.00  0.00    -0.239 NA
ENDROOT
BRANCH   1   2
ATOM      2  C   UNL     1       0.626   5.354  -7.373  0.00  0.00    +0.068 A 
ATOM      3  C   UNL     1      -0.261   5.669  -6.365  0.00  0.00    +0.033 A 
ATOM      4  C   UNL     1       0.045   5.430  -5.040  0.00  0.00    +0.083 A 
ATOM      5  C   UNL     1      -0.953   5.406  -4.074  0.00  0.00    +0.031 A 
ATOM      6  C   UNL     1      -2.235   5.791  -4.357  0.00  0.00    +0.059 A 
ATOM      7  C   UNL     1      -2.516   6.073  -5.678  0.00  0.00    +0.012 A 
ATOM      8 CL   UNL     1      -3.461   5.922  -3.100  0.00  0.00    -0.082 Cl
ATOM      9  N   UNL     1       1.289   4.998  -4.769  0.00  0.00    -0.244 NA
ATOM     10  C   UNL     1       2.251   4.964  -5.692  0.00  0.00    +0.100 A 
ATOM     11  C   UNL     1      -1.595   5.807  -6.666  0.00  0.00    +0.004 A 
ATOM     12  C   UNL     1       1.951   5.130  -7.015  0.00  0.00    +0.037 A 
ENDBRANCH   1   2
BRANCH   1  13
ATOM     13  C   UNL     1       1.356   4.808  -9.730  0.00  0.00    +0.093 C 
ATOM     14  C   UNL     1       0.198   4.508 -10.889  0.00  0.00    +0.023 C 
BRANCH  13  15
ATOM     15  C   UNL     1       1.672   6.312 -10.361  0.00  0.00    +0.023 C 
BRANCH  15  16
ATOM     16  C   UNL     1       2.892   6.204 -11.169  0.00  0.00    +0.019 C 
BRANCH  16  17
ATOM     17  C   UNL     1       4.025   5.408 -10.633  0.00  0.00    +0.072 C 
BRANCH  17  18
ATOM     18  N   UNL     1       5.075   6.370 -10.294  0.00  0.00    -0.273 NA
BRANCH  18  19
ATOM     19  C   UNL     1       5.921   6.670 -11.420  0.00  0.00    +0.072 C 
ATOM     20  C   UNL     1       6.417   8.108 -11.423  0.00  0.00    +0.019 C 
ENDBRANCH  18  19
BRANCH  18  22
ATOM     21  C   UNL     1       5.279   5.094  -8.430  0.00  0.00    +0.019 C 
ATOM     22  C   UNL     1       5.930   5.664  -9.338  0.00  0.00    +0.072 C 
ENDBRANCH  18  22
ENDBRANCH  17  18
ENDBRANCH  16  17
ENDBRANCH  15  16
ENDBRANCH  13  15
ENDBRANCH   1  13
TORSDOF 8
ENDMDL
MODEL 3
REMARK VINA RESULT:      -6.6      3.356      7.834
REMARK  Name = 
REMARK  8 active torsions:
REMARK  status: ('A' for Active; 'I' for Inactive)
REMARK    1  A    between atoms: C_2  and  N_3
REMARK    2  A    between atoms: N_3  and  C_4
REMARK    3  A    between atoms: N_3  and  C_6
REMARK    4  A    between atoms: C_6  and  C_7
REMARK    5  A    between atoms: C_7  and  C_8
REMARK    6  A    between atoms: C_8  and  C_9
REMARK    7  A    between atoms: C_9  and  N_11
REMARK    8  A    between atoms: N_11  and  C_12
REMARK                            x       y       z     vdW  Elec       q    Type
REMARK                         _______ _______ _______ _____ _____    ______ ____
ROOT
ATOM      1  N   UNL     1       3.339   5.555  -7.577  0.00  0.00    -0.239 NA
ENDROOT
BRANCH   1   2
ATOM      2  C   UNL     1       3.449   5.789  -8.965  0.00  0.00    +0.068 A 
ATOM      3  C   UNL     1       4.670   5.941  -9.587  0.00  0.00    +0.033 A 
ATOM      4  C   UNL     1       4.774   5.985 -10.963  0.00  0.00    +0.083 A 
ATOM      5  C   UNL     1       5.996   5.779 -11.591  0.00  0.00    +0.031 A 
ATOM      6  C   UNL     1       7.163   5.705 -10.881  0.00  0.00    +0.059 A 
ATOM      7  C   UNL     1       7.050   5.710  -9.506  0.00  0.00    +0.012 A 
ATOM      8 CL   UNL     1       8.729   5.611 -11.682  0.00  0.00    -0.082 Cl
ATOM      9  N   UNL     1       3.625   6.001 -11.662  0.00  0.00    -0.244 NA
ATOM     10  C   UNL     1       2.436   6.148 -11.077  0.00  0.00    +0.100 A 
ATOM     11  C   UNL     1       5.817   5.617  -8.902  0.00  0.00    +0.004 A 
ATOM     12  C   UNL     1       2.309   6.038  -9.721  0.00  0.00    +0.037 A 
ENDBRANCH   1   2
BRANCH   1  13
ATOM     13  C   UNL     1       1.837   5.509  -7.039  0.00  0.00    +0.093 C 
ATOM     14  C   UNL     1       2.091   4.026  -6.326  0.00  0.00    +0.023 C 
BRANCH  13  15
ATOM     15  C   UNL     1       2.272   6.310  -5.649  0.00  0.00    +0.023 C 
BRANCH  15  16
ATOM     16  C   UNL     1       1.117   6.282  -4.744  0.00  0.00    +0.019 C 
BRANCH  16  17
ATOM     17  C   UNL     1      -0.177   6.822  -5.234  0.00  0.00    +0.072 C 
BRANCH  17  18
ATOM     18  N   UNL     1      -1.214   6.223  -4.392  0.00  0.00    -0.273 NA
BRANCH  18  19
ATOM     19  C   UNL     1      -2.256   5.606  -5.171  0.00  0.00    +0.072 C 
ATOM     20  C   UNL     1      -1.871   5.411  -6.630  0.00  0.00    +0.019 C 
ENDBRANCH  18  19
BRANCH  18  22
ATOM     21  C   UNL     1      -1.884   8.389  -4.429  0.00  0.00    +0.019 C 
ATOM     22  C   UNL     1      -1.846   7.357  -3.718  0.00  0.00    +0.072 C 
ENDBRANCH  18  22
ENDBRANCH  17  18
ENDBRANCH  16  17
ENDBRANCH  15  16
ENDBRANCH  13  15
ENDBRANCH   1  13
TORSDOF 8
ENDMDL
MODEL 4
REMARK VINA RESULT:      -6.6      2.879      6.525
REMARK  Name = 
REMARK  8 active torsions:
REMARK  status: ('A' for Active; 'I' for Inactive)
REMARK    1  A    between atoms: C_2  and  N_3
REMARK    2  A    between atoms: N_3  and  C_4
REMARK    3  A    between atoms: N_3  and  C_6
REMARK    4  A    between atoms: C_6  and  C_7
REMARK    5  A    between atoms: C_7  and  C_8
REMARK    6  A    between atoms: C_8  and  C_9
REMARK    7  A    between atoms: C_9  and  N_11
REMARK    8  A    between atoms: N_11  and  C_12
REMARK                            x       y       z     vdW  Elec       q    Type
REMARK                         _______ _______ _______ _____ _____    ______ ____
ROOT
ATOM      1  N   UNL     1       1.266   4.858  -7.884  0.00  0.00    -0.239 NA
ENDROOT
BRANCH   1   2
ATOM      2  C   UNL     1       1.829   5.434  -9.043  0.00  0.00    +0.068 A 
ATOM      3  C   UNL     1       3.183   5.670  -9.160  0.00  0.00    +0.033 A 
ATOM      4  C   UNL     1       3.742   6.060 -10.361  0.00  0.00    +0.083 A 
ATOM      5  C   UNL     1       5.110   5.950 -10.576  0.00  0.00    +0.031 A 
ATOM      6  C   UNL     1       5.972   5.629  -9.563  0.00  0.00    +0.059 A 
ATOM      7  C   UNL     1       5.402   5.287  -8.354  0.00  0.00    +0.012 A 
ATOM      8 CL   UNL     1       7.718   5.654  -9.791  0.00  0.00    -0.082 Cl
ATOM      9  N   UNL     1       2.895   6.321 -11.372  0.00  0.00    -0.244 NA
ATOM     10  C   UNL     1       1.574   6.382 -11.200  0.00  0.00    +0.100 A 
ATOM     11  C   UNL     1       4.041   5.114  -8.242  0.00  0.00    +0.004 A 
ATOM     12  C   UNL     1       1.003   5.935 -10.043  0.00  0.00    +0.037 A 
ENDBRANCH   1   2
BRANCH   1  13
ATOM     13  C   UNL     1       0.742   5.920  -6.814  0.00  0.00    +0.093 C 
ATOM     14  C   UNL     1      -0.796   5.284  -6.869  0.00  0.00    +0.023 C 
BRANCH  13  15
ATOM     15  C   UNL     1       1.168   4.920  -5.557  0.00  0.00    +0.023 C 
BRANCH  15  16
ATOM     16  C   UNL     1       2.331   5.518  -4.892  0.00  0.00    +0.019 C 
BRANCH  16  17
ATOM     17  C   UNL     1       3.539   4.677  -4.694  0.00  0.00    +0.072 C 
BRANCH  17  18
ATOM     18  N   UNL     1       4.486   5.496  -3.935  0.00  0.00    -0.273 NA
BRANCH  18  19
ATOM     19  C   UNL     1       3.902   6.027  -2.731  0.00  0.00    +0.072 C 
ATOM     20  C   UNL     1       4.022   5.082  -1.546  0.00  0.00    +0.019 C 
ENDBRANCH  18  19
BRANCH  18  22
ATOM     21  C   UNL     1       5.235   7.624  -4.166  0.00  0.00    +0.019 C 
ATOM     22  C   UNL     1       4.744   6.655  -4.791  0.00  0.00    +0.072 C 
ENDBRANCH  18  22
ENDBRANCH  17  18
ENDBRANCH  16  17
ENDBRANCH  15  16
ENDBRANCH  13  15
ENDBRANCH   1  13
TORSDOF 8
ENDMDL
MODEL 5
REMARK VINA RESULT:      -6.6      1.759      2.315
REMARK  Name = 
REMARK  8 active torsions:
REMARK  status: ('A' for Active; 'I' for Inactive)
REMARK    1  A    between atoms: C_2  and  N_3
REMARK    2  A    between atoms: N_3  and  C_4
REMARK    3  A    between atoms: N_3  and  C_6
REMARK    4  A    between atoms: C_6  and  C_7
REMARK    5  A    between atoms: C_7  and  C_8
REMARK    6  A    between atoms: C_8  and  C_9
REMARK    7  A    between atoms: C_9  and  N_11
REMARK    8  A    between atoms: N_11  and  C_12
REMARK                            x       y       z     vdW  Elec       q    Type
REMARK                         _______ _______ _______ _____ _____    ______ ____
ROOT
ATOM      1  N   UNL     1       0.904   6.135  -8.680  0.00  0.00    -0.239 NA
ENDROOT
BRANCH   1   2
ATOM      2  C   UNL     1       0.650   6.008  -7.297  0.00  0.00    +0.068 A 
ATOM      3  C   UNL     1       1.632   6.211  -6.350  0.00  0.00    +0.033 A 
ATOM      4  C   UNL     1       1.331   6.265  -5.004  0.00  0.00    +0.083 A 
ATOM      5  C   UNL     1       2.228   6.815  -4.097  0.00  0.00    +0.031 A 
ATOM      6  C   UNL     1       3.502   7.154  -4.464  0.00  0.00    +0.059 A 
ATOM      7  C   UNL     1       3.805   7.050  -5.806  0.00  0.00    +0.012 A 
ATOM      8 CL   UNL     1       4.693   7.693  -3.283  0.00  0.00    -0.082 Cl
ATOM      9  N   UNL     1       0.064   5.986  -4.650  0.00  0.00    -0.244 NA
ATOM     10  C   UNL     1      -0.830   5.505  -5.515  0.00  0.00    +0.100 A 
ATOM     11  C   UNL     1       2.820   6.788  -6.731  0.00  0.00    +0.004 A 
ATOM     12  C   UNL     1      -0.571   5.510  -6.857  0.00  0.00    +0.037 A 
ENDBRANCH   1   2
BRANCH   1  13
ATOM     13  C   UNL     1       1.469   4.810  -9.365  0.00  0.00    +0.093 C 
ATOM     14  C   UNL     1       0.174   4.744 -10.409  0.00  0.00    +0.023 C 
BRANCH  13  15
ATOM     15  C   UNL     1       2.362   5.704 -10.444  0.00  0.00    +0.023 C 
BRANCH  15  16
ATOM     16  C   UNL     1       3.773   5.350 -10.250  0.00  0.00    +0.019 C 
BRANCH  16  17
ATOM     17  C   UNL     1       4.682   5.408 -11.423  0.00  0.00    +0.072 C 
BRANCH  17  18
ATOM     18  N   UNL     1       5.903   6.072 -10.960  0.00  0.00    -0.273 NA
BRANCH  18  19
ATOM     19  C   UNL     1       6.215   5.742  -9.593  0.00  0.00    +0.072 C 
ATOM     20  C   UNL     1       7.687   5.425  -9.381  0.00  0.00    +0.019 C 
ENDBRANCH  18  19
BRANCH  18  22
ATOM     21  C   UNL     1       6.442   8.203 -11.515  0.00  0.00    +0.019 C 
ATOM     22  C   UNL     1       5.571   7.497 -10.954  0.00  0.00    +0.072 C 
ENDBRANCH  18  22
ENDBRANCH  17  18
ENDBRANCH  16  17
ENDBRANCH  15  16
ENDBRANCH  13  15
ENDBRANCH   1  13
TORSDOF 8
ENDMDL
MODEL 6
REMARK VINA RESULT:      -6.6      2.722      3.678
REMARK  Name = 
REMARK  8 active torsions:
REMARK  status: ('A' for Active; 'I' for Inactive)
REMARK    1  A    between atoms: C_2  and  N_3
REMARK    2  A    between atoms: N_3  and  C_4
REMARK    3  A    between atoms: N_3  and  C_6
REMARK    4  A    between atoms: C_6  and  C_7
REMARK    5  A    between atoms: C_7  and  C_8
REMARK    6  A    between atoms: C_8  and  C_9
REMARK    7  A    between atoms: C_9  and  N_11
REMARK    8  A    between atoms: N_11  and  C_12
REMARK                            x       y       z     vdW  Elec       q    Type
REMARK                         _______ _______ _______ _____ _____    ______ ____
ROOT
ATOM      1  N   UNL     1       1.191   6.104  -8.546  0.00  0.00    -0.239 NA
ENDROOT
BRANCH   1   2
ATOM      2  C   UNL     1       1.311   6.329  -7.158  0.00  0.00    +0.068 A 
ATOM      3  C   UNL     1       0.226   6.269  -6.309  0.00  0.00    +0.033 A 
ATOM      4  C   UNL     1       0.384   6.308  -4.938  0.00  0.00    +0.083 A 
ATOM      5  C   UNL     1      -0.637   5.893  -4.093  0.00  0.00    +0.031 A 
ATOM      6  C   UNL     1      -1.888   5.606  -4.567  0.00  0.00    +0.059 A 
ATOM      7  C   UNL     1      -2.045   5.617  -5.938  0.00  0.00    +0.012 A 
ATOM      8 CL   UNL     1      -3.229   5.244  -3.483  0.00  0.00    -0.082 Cl
ATOM      9  N   UNL     1       1.626   6.534  -4.473  0.00  0.00    -0.244 NA
ATOM     10  C   UNL     1       2.634   6.884  -5.272  0.00  0.00    +0.100 A 
ATOM     11  C   UNL     1      -0.956   5.738  -6.769  0.00  0.00    +0.004 A 
ATOM     12  C   UNL     1       2.514   6.784  -6.629  0.00  0.00    +0.037 A 
ENDBRANCH   1   2
BRANCH   1  13
ATOM     13  C   UNL     1       1.774   4.701  -9.035  0.00  0.00    +0.093 C 
ATOM     14  C   UNL     1       0.695   4.643 -10.301  0.00  0.00    +0.023 C 
BRANCH  13  15
ATOM     15  C   UNL     1       2.916   5.461  -9.974  0.00  0.00    +0.023 C 
BRANCH  15  16
ATOM     16  C   UNL     1       4.223   4.893  -9.625  0.00  0.00    +0.019 C 
BRANCH  16  17
ATOM     17  C   UNL     1       5.441   5.681  -9.939  0.00  0.00    +0.072 C 
BRANCH  17  18
ATOM     18  N   UNL     1       5.236   6.232 -11.280  0.00  0.00    -0.273 NA
BRANCH  18  19
ATOM     19  C   UNL     1       5.856   5.424 -12.299  0.00  0.00    +0.072 C 
ATOM     20  C   UNL     1       5.061   5.390 -13.595  0.00  0.00    +0.019 C 
ENDBRANCH  18  19
BRANCH  18  22
ATOM     21  C   UNL     1       7.109   7.399 -10.760  0.00  0.00    +0.019 C 
ATOM     22  C   UNL     1       5.972   7.496 -11.279  0.00  0.00    +0.072 C 
ENDBRANCH  18  22
ENDBRANCH  17  18
ENDBRANCH  16  17
ENDBRANCH  15  16
ENDBRANCH  13  15
ENDBRANCH   1  13
TORSDOF 8
ENDMDL
MODEL 7
REMARK VINA RESULT:      -6.5      2.344      3.424
REMARK  Name = 
REMARK  8 active torsions:
REMARK  status: ('A' for Active; 'I' for Inactive)
REMARK    1  A    between atoms: C_2  and  N_3
REMARK    2  A    between atoms: N_3  and  C_4
REMARK    3  A    between atoms: N_3  and  C_6
REMARK    4  A    between atoms: C_6  and  C_7
REMARK    5  A    between atoms: C_7  and  C_8
REMARK    6  A    between atoms: C_8  and  C_9
REMARK    7  A    between atoms: C_9  and  N_11
REMARK    8  A    between atoms: N_11  and  C_12
REMARK                            x       y       z     vdW  Elec       q    Type
REMARK                         _______ _______ _______ _____ _____    ______ ____
ROOT
ATOM      1  N   UNL     1       2.606   6.107  -8.165  0.00  0.00    -0.239 NA
ENDROOT
BRANCH   1   2
ATOM      2  C   UNL     1       2.411   6.412  -6.801  0.00  0.00    +0.068 A 
ATOM      3  C   UNL     1       1.165   6.369  -6.211  0.00  0.00    +0.033 A 
ATOM      4  C   UNL     1       1.014   6.489  -4.844  0.00  0.00    +0.083 A 
ATOM      5  C   UNL     1      -0.164   6.095  -4.223  0.00  0.00    +0.031 A 
ATOM      6  C   UNL     1      -1.274   5.747  -4.943  0.00  0.00    +0.059 A 
ATOM      7  C   UNL     1      -1.122   5.678  -6.313  0.00  0.00    +0.012 A 
ATOM      8 CL   UNL     1      -2.816   5.410  -4.163  0.00  0.00    -0.082 Cl
ATOM      9  N   UNL     1       2.117   6.776  -4.131  0.00  0.00    -0.244 NA
ATOM     10  C   UNL     1       3.273   7.108  -4.706  0.00  0.00    +0.100 A 
ATOM     11  C   UNL     1       0.124   5.782  -6.889  0.00  0.00    +0.004 A 
ATOM     12  C   UNL     1       3.459   6.929  -6.048  0.00  0.00    +0.037 A 
ENDBRANCH   1   2
BRANCH   1  13
ATOM     13  C   UNL     1       3.823   5.114  -8.446  0.00  0.00    +0.093 C 
ATOM     14  C   UNL     1       2.786   3.826  -8.640  0.00  0.00    +0.023 C 
BRANCH  13  15
ATOM     15  C   UNL     1       3.780   5.461 -10.071  0.00  0.00    +0.023 C 
BRANCH  15  16
ATOM     16  C   UNL     1       4.333   6.808 -10.249  0.00  0.00    +0.019 C 
BRANCH  16  17
ATOM     17  C   UNL     1       5.407   7.002 -11.256  0.00  0.00    +0.072 C 
BRANCH  17  18
ATOM     18  N   UNL     1       6.156   5.745 -11.301  0.00  0.00    -0.273 NA
BRANCH  18  19
ATOM     19  C   UNL     1       7.491   5.889 -10.780  0.00  0.00    +0.072 C 
ATOM     20  C   UNL     1       7.595   5.529  -9.306  0.00  0.00    +0.019 C 
ENDBRANCH  18  19
BRANCH  18  22
ATOM     21  C   UNL     1       7.496   5.625 -13.126  0.00  0.00    +0.019 C 
ATOM     22  C   UNL     1       6.319   5.460 -12.727  0.00  0.00    +0.072 C 
ENDBRANCH  18  22
ENDBRANCH  17  18
ENDBRANCH  16  17
ENDBRANCH  15  16
ENDBRANCH  13  15
ENDBRANCH   1  13
TORSDOF 8
ENDMDL
MODEL 8
REMARK VINA RESULT:      -6.5      3.404      7.366
REMARK  Name = 
REMARK  8 active torsions:
REMARK  status: ('A' for Active; 'I' for Inactive)
REMARK    1  A    between atoms: C_2  and  N_3
REMARK    2  A    between atoms: N_3  and  C_4
REMARK    3  A    between atoms: N_3  and  C_6
REMARK    4  A    between atoms: C_6  and  C_7
REMARK    5  A    between atoms: C_7  and  C_8
REMARK    6  A    between atoms: C_8  and  C_9
REMARK    7  A    between atoms: C_9  and  N_11
REMARK    8  A    between atoms: N_11  and  C_12
REMARK                            x       y       z     vdW  Elec       q    Type
REMARK                         _______ _______ _______ _____ _____    ______ ____
ROOT
ATOM      1  N   UNL     1       3.494   7.075  -6.118  0.00  0.00    -0.239 NA
ENDROOT
BRANCH   1   2
ATOM      2  C   UNL     1       3.778   6.299  -7.262  0.00  0.00    +0.068 A 
ATOM      3  C   UNL     1       2.870   6.147  -8.289  0.00  0.00    +0.033 A 
ATOM      4  C   UNL     1       3.226   5.542  -9.477  0.00  0.00    +0.083 A 
ATOM      5  C   UNL     1       2.448   5.705 -10.617  0.00  0.00    +0.031 A 
ATOM      6  C   UNL     1       1.221   6.309 -10.569  0.00  0.00    +0.059 A 
ATOM      7  C   UNL     1       0.857   6.868  -9.361  0.00  0.00    +0.012 A 
ATOM      8 CL   UNL     1       0.162   6.367 -11.975  0.00  0.00    -0.082 Cl
ATOM      9  N   UNL     1       4.453   4.998  -9.542  0.00  0.00    -0.244 NA
ATOM     10  C   UNL     1       5.238   4.877  -8.471  0.00  0.00    +0.100 A 
ATOM     11  C   UNL     1       1.761   6.958  -8.327  0.00  0.00    +0.004 A 
ATOM     12  C   UNL     1       4.933   5.527  -7.308  0.00  0.00    +0.037 A 
ENDBRANCH   1   2
BRANCH   1  13
ATOM     13  C   UNL     1       3.958   6.410  -4.744  0.00  0.00    +0.093 C 
ATOM     14  C   UNL     1       4.785   7.787  -4.305  0.00  0.00    +0.023 C 
BRANCH  13  15
ATOM     15  C   UNL     1       2.578   6.932  -3.981  0.00  0.00    +0.023 C 
BRANCH  15  16
ATOM     16  C   UNL     1       1.541   5.917  -4.200  0.00  0.00    +0.019 C 
BRANCH  16  17
ATOM     17  C   UNL     1       0.239   6.077  -3.506  0.00  0.00    +0.072 C 
BRANCH  17  18
ATOM     18  N   UNL     1      -0.786   6.062  -4.552  0.00  0.00    -0.273 NA
BRANCH  18  19
ATOM     19  C   UNL     1      -0.341   5.376  -5.738  0.00  0.00    +0.072 C 
ATOM     20  C   UNL     1      -1.415   5.288  -6.811  0.00  0.00    +0.019 C 
ENDBRANCH  18  19
BRANCH  18  22
ATOM     21  C   UNL     1      -1.879   8.038  -4.345  0.00  0.00    +0.019 C 
ATOM     22  C   UNL     1      -0.938   7.464  -4.943  0.00  0.00    +0.072 C 
ENDBRANCH  18  22
ENDBRANCH  17  18
ENDBRANCH  16  17
ENDBRANCH  15  16
ENDBRANCH  13  15
ENDBRANCH   1  13
TORSDOF 8
ENDMDL
MODEL 9
REMARK VINA RESULT:      -6.5      4.314      7.623
REMARK  Name = 
REMARK  8 active torsions:
REMARK  status: ('A' for Active; 'I' for Inactive)
REMARK    1  A    between atoms: C_2  and  N_3
REMARK    2  A    between atoms: N_3  and  C_4
REMARK    3  A    between atoms: N_3  and  C_6
REMARK    4  A    between atoms: C_6  and  C_7
REMARK    5  A    between atoms: C_7  and  C_8
REMARK    6  A    between atoms: C_8  and  C_9
REMARK    7  A    between atoms: C_9  and  N_11
REMARK    8  A    between atoms: N_11  and  C_12
REMARK                            x       y       z     vdW  Elec       q    Type
REMARK                         _______ _______ _______ _____ _____    ______ ____
ROOT
ATOM      1  N   UNL     1       3.986   5.242  -9.855  0.00  0.00    -0.239 NA
ENDROOT
BRANCH   1   2
ATOM      2  C   UNL     1       5.338   5.493 -10.175  0.00  0.00    +0.068 A 
ATOM      3  C   UNL     1       5.790   5.515 -11.477  0.00  0.00    +0.033 A 
ATOM      4  C   UNL     1       7.067   5.940 -11.786  0.00  0.00    +0.083 A 
ATOM      5  C   UNL     1       7.401   6.302 -13.085  0.00  0.00    +0.031 A 
ATOM      6  C   UNL     1       6.547   6.084 -14.132  0.00  0.00    +0.059 A 
ATOM      7  C   UNL     1       5.290   5.614 -13.814  0.00  0.00    +0.012 A 
ATOM      8 CL   UNL     1       7.030   6.385 -15.799  0.00  0.00    -0.082 Cl
ATOM      9  N   UNL     1       7.888   6.208 -10.755  0.00  0.00    -0.244 NA
ATOM     10  C   UNL     1       7.568   5.916  -9.494  0.00  0.00    +0.100 A 
ATOM     11  C   UNL     1       4.876   5.542 -12.503  0.00  0.00    +0.004 A 
ATOM     12  C   UNL     1       6.291   5.560  -9.164  0.00  0.00    +0.037 A 
ENDBRANCH   1   2
BRANCH   1  13
ATOM     13  C   UNL     1       3.667   5.275  -8.292  0.00  0.00    +0.093 C 
ATOM     14  C   UNL     1       3.081   6.830  -8.399  0.00  0.00    +0.023 C 
BRANCH  13  15
ATOM     15  C   UNL     1       2.156   4.632  -8.548  0.00  0.00    +0.023 C 
BRANCH  15  16
ATOM     16  C   UNL     1       1.724   5.043  -9.889  0.00  0.00    +0.019 C 
BRANCH  16  17
ATOM     17  C   UNL     1       0.399   4.583 -10.375  0.00  0.00    +0.072 C 
BRANCH  17  18
ATOM     18  N   UNL     1       0.090   5.398 -11.552  0.00  0.00    -0.273 NA
BRANCH  18  19
ATOM     19  C   UNL     1       1.120   5.314 -12.555  0.00  0.00    +0.072 C 
ATOM     20  C   UNL     1       0.709   4.479 -13.758  0.00  0.00    +0.019 C 
ENDBRANCH  18  19
BRANCH  18  22
ATOM     21  C   UNL     1      -0.736   7.509 -11.613  0.00  0.00    +0.019 C 
ATOM     22  C   UNL     1       0.125   6.778 -11.068  0.00  0.00    +0.072 C 
ENDBRANCH  18  22
ENDBRANCH  17  18
ENDBRANCH  16  17
ENDBRANCH  15  16
ENDBRANCH  13  15
ENDBRANCH   1  13
TORSDOF 8
ENDMDL
