MODEL 1
REMARK VINA RESULT:      -5.7      0.000      0.000
REMARK  Name = 
REMARK  3 active torsions:
REMARK  status: ('A' for Active; 'I' for Inactive)
REMARK    1  A    between atoms: C_8  and  O_9
REMARK    2  A    between atoms: O_9  and  C_10
REMARK    3  A    between atoms: C_10  and  C_11
REMARK                            x       y       z     vdW  Elec       q    Type
REMARK                         _______ _______ _______ _____ _____    ______ ____
ROOT
ATOM      1  C   UNL     1       7.391   5.738  -9.234  0.00  0.00    +0.034 C 
ATOM      2  C   UNL     1       5.942   5.610  -9.319  0.00  0.00    +0.012 A 
ATOM      3  C   UNL     1       5.360   5.882 -10.545  0.00  0.00    +0.131 A 
ATOM      4  C   UNL     1       4.001   5.648 -10.709  0.00  0.00    +0.012 A 
ATOM      5  C   UNL     1       3.366   6.088 -11.989  0.00  0.00    +0.034 C 
ATOM      6  C   UNL     1       3.272   5.034  -9.699  0.00  0.00    -0.001 A 
ATOM      7  C   UNL     1       3.889   4.574  -8.541  0.00  0.00    -0.000 A 
ATOM      8  C   UNL     1       5.162   5.075  -8.305  0.00  0.00    -0.001 A 
ENDROOT
BRANCH   3   9
ATOM      9  O   UNL     1       6.142   5.812 -11.668  0.00  0.00    -0.475 OA
BRANCH   9  10
ATOM     10  C   UNL     1       6.732   6.887 -12.342  0.00  0.00    +0.224 C 
BRANCH  10  11
ATOM     11  C   UNL     1       7.711   6.213 -13.472  0.00  0.00    +0.135 C 
ATOM     12  N   UNL     1       7.115   4.781 -13.224  0.00  0.00    -0.129 NA
ATOM     13  C   UNL     1       8.919   5.959 -12.392  0.00  0.00    +0.024 C 
ENDBRANCH  10  11
ENDBRANCH   9  10
ENDBRANCH   3   9
TORSDOF 3
ENDMDL
MODEL 2
REMARK VINA RESULT:      -5.6      8.094     10.066
REMARK  Name = 
REMARK  3 active torsions:
REMARK  status: ('A' for Active; 'I' for Inactive)
REMARK    1  A    between atoms: C_8  and  O_9
REMARK    2  A    between atoms: O_9  and  C_10
REMARK    3  A    between atoms: C_10  and  C_11
REMARK                            x       y       z     vdW  Elec       q    Type
REMARK                         _______ _______ _______ _____ _____    ______ ____
ROOT
ATOM      1  C   UNL     1      -1.902   7.496  -3.209  0.00  0.00    +0.034 C 
ATOM      2  C   UNL     1      -1.650   6.831  -4.481  0.00  0.00    +0.012 A 
ATOM      3  C   UNL     1      -0.497   6.072  -4.572  0.00  0.00    +0.131 A 
ATOM      4  C   UNL     1      -0.280   5.316  -5.717  0.00  0.00    +0.012 A 
ATOM      5  C   UNL     1       1.037   4.624  -5.858  0.00  0.00    +0.034 C 
ATOM      6  C   UNL     1      -1.265   5.228  -6.692  0.00  0.00    -0.001 A 
ATOM      7  C   UNL     1      -2.509   5.825  -6.516  0.00  0.00    -0.000 A 
ATOM      8  C   UNL     1      -2.574   6.784  -5.514  0.00  0.00    -0.001 A 
ENDROOT
BRANCH   3   9
ATOM      9  O   UNL     1       0.083   5.624  -3.414  0.00  0.00    -0.475 OA
BRANCH   9  10
ATOM     10  C   UNL     1       1.257   6.111  -2.827  0.00  0.00    +0.224 C 
BRANCH  10  11
ATOM     11  C   UNL     1       1.438   5.262  -1.436  0.00  0.00    +0.135 C 
ATOM     12  N   UNL     1       0.012   4.616  -1.573  0.00  0.00    -0.129 NA
ATOM     13  C   UNL     1       0.856   6.489  -0.516  0.00  0.00    +0.024 C 
ENDBRANCH  10  11
ENDBRANCH   9  10
ENDBRANCH   3   9
TORSDOF 3
ENDMDL
MODEL 3
REMARK VINA RESULT:      -5.5      0.909      2.553
REMARK  Name = 
REMARK  3 active torsions:
REMARK  status: ('A' for Active; 'I' for Inactive)
REMARK    1  A    between atoms: C_8  and  O_9
REMARK    2  A    between atoms: O_9  and  C_10
REMARK    3  A    between atoms: C_10  and  C_11
REMARK                            x       y       z     vdW  Elec       q    Type
REMARK                         _______ _______ _______ _____ _____    ______ ____
ROOT
ATOM      1  C   UNL     1       3.133   6.051 -11.781  0.00  0.00    +0.034 C 
ATOM      2  C   UNL     1       3.897   5.630 -10.614  0.00  0.00    +0.012 A 
ATOM      3  C   UNL     1       5.250   5.920 -10.613  0.00  0.00    +0.131 A 
ATOM      4  C   UNL     1       5.992   5.656  -9.469  0.00  0.00    +0.012 A 
ATOM      5  C   UNL     1       7.474   5.837  -9.541  0.00  0.00    +0.034 C 
ATOM      6  C   UNL     1       5.358   5.228  -8.310  0.00  0.00    -0.001 A 
ATOM      7  C   UNL     1       3.973   5.127  -8.240  0.00  0.00    -0.000 A 
ATOM      8  C   UNL     1       3.313   5.124  -9.462  0.00  0.00    -0.001 A 
ENDROOT
BRANCH   3   9
ATOM      9  O   UNL     1       5.703   6.925 -11.428  0.00  0.00    -0.475 OA
BRANCH   9  10
ATOM     10  C   UNL     1       6.687   6.816 -12.417  0.00  0.00    +0.224 C 
BRANCH  10  11
ATOM     11  C   UNL     1       6.311   5.463 -13.264  0.00  0.00    +0.135 C 
ATOM     12  N   UNL     1       7.724   4.829 -12.996  0.00  0.00    -0.129 NA
ATOM     13  C   UNL     1       6.811   6.115 -14.684  0.00  0.00    +0.024 C 
ENDBRANCH  10  11
ENDBRANCH   9  10
ENDBRANCH   3   9
TORSDOF 3
ENDMDL
MODEL 4
REMARK VINA RESULT:      -5.5      6.625      8.784
REMARK  Name = 
REMARK  3 active torsions:
REMARK  status: ('A' for Active; 'I' for Inactive)
REMARK    1  A    between atoms: C_8  and  O_9
REMARK    2  A    between atoms: O_9  and  C_10
REMARK    3  A    between atoms: C_10  and  C_11
REMARK                            x       y       z     vdW  Elec       q    Type
REMARK                         _______ _______ _______ _____ _____    ______ ____
ROOT
ATOM      1  C   UNL     1      -1.216   5.392  -7.019  0.00  0.00    +0.034 C 
ATOM      2  C   UNL     1      -1.508   5.911  -5.690  0.00  0.00    +0.012 A 
ATOM      3  C   UNL     1      -0.701   5.474  -4.654  0.00  0.00    +0.131 A 
ATOM      4  C   UNL     1      -0.857   6.039  -3.396  0.00  0.00    +0.012 A 
ATOM      5  C   UNL     1      -0.081   5.449  -2.263  0.00  0.00    +0.034 C 
ATOM      6  C   UNL     1      -1.722   7.112  -3.216  0.00  0.00    -0.001 A 
ATOM      7  C   UNL     1      -2.388   7.690  -4.291  0.00  0.00    -0.000 A 
ATOM      8  C   UNL     1      -2.421   6.928  -5.451  0.00  0.00    -0.001 A 
ENDROOT
BRANCH   3   9
ATOM      9  O   UNL     1       0.538   4.974  -4.960  0.00  0.00    -0.475 OA
BRANCH   9  10
ATOM     10  C   UNL     1       1.705   5.715  -5.181  0.00  0.00    +0.224 C 
BRANCH  10  11
ATOM     11  C   UNL     1       2.904   4.609  -5.345  0.00  0.00    +0.135 C 
ATOM     12  N   UNL     1       3.629   5.467  -6.445  0.00  0.00    -0.129 NA
ATOM     13  C   UNL     1       2.075   3.757  -6.475  0.00  0.00    +0.024 C 
ENDBRANCH  10  11
ENDBRANCH   9  10
ENDBRANCH   3   9
TORSDOF 3
ENDMDL
MODEL 5
REMARK VINA RESULT:      -5.5      2.105      4.975
REMARK  Name = 
REMARK  3 active torsions:
REMARK  status: ('A' for Active; 'I' for Inactive)
REMARK    1  A    between atoms: C_8  and  O_9
REMARK    2  A    between atoms: O_9  and  C_10
REMARK    3  A    between atoms: C_10  and  C_11
REMARK                            x       y       z     vdW  Elec       q    Type
REMARK                         _______ _______ _______ _____ _____    ______ ____
ROOT
ATOM      1  C   UNL     1       4.836   5.658 -13.608  0.00  0.00    +0.034 C 
ATOM      2  C   UNL     1       6.085   5.879 -12.891  0.00  0.00    +0.012 A 
ATOM      3  C   UNL     1       6.052   5.729 -11.516  0.00  0.00    +0.131 A 
ATOM      4  C   UNL     1       7.243   5.801 -10.804  0.00  0.00    +0.012 A 
ATOM      5  C   UNL     1       7.167   5.785  -9.312  0.00  0.00    +0.034 C 
ATOM      6  C   UNL     1       8.453   5.896 -11.479  0.00  0.00    -0.001 A 
ATOM      7  C   UNL     1       8.512   5.845 -12.867  0.00  0.00    -0.000 A 
ATOM      8  C   UNL     1       7.307   6.057 -13.523  0.00  0.00    -0.001 A 
ENDROOT
BRANCH   3   9
ATOM      9  O   UNL     1       5.045   4.980 -10.965  0.00  0.00    -0.475 OA
BRANCH   9  10
ATOM     10  C   UNL     1       3.972   5.457 -10.204  0.00  0.00    +0.224 C 
BRANCH  10  11
ATOM     11  C   UNL     1       3.744   4.345  -9.020  0.00  0.00    +0.135 C 
ATOM     12  N   UNL     1       2.181   4.423  -9.164  0.00  0.00    -0.129 NA
ATOM     13  C   UNL     1       3.748   5.483  -7.839  0.00  0.00    +0.024 C 
ENDBRANCH  10  11
ENDBRANCH   9  10
ENDBRANCH   3   9
TORSDOF 3
ENDMDL
MODEL 6
REMARK VINA RESULT:      -5.4      2.545      4.430
REMARK  Name = 
REMARK  3 active torsions:
REMARK  status: ('A' for Active; 'I' for Inactive)
REMARK    1  A    between atoms: C_8  and  O_9
REMARK    2  A    between atoms: O_9  and  C_10
REMARK    3  A    between atoms: C_10  and  C_11
REMARK                            x       y       z     vdW  Elec       q    Type
REMARK                         _______ _______ _______ _____ _____    ______ ____
ROOT
ATOM      1  C   UNL     1       5.422   5.183  -8.208  0.00  0.00    +0.034 C 
ATOM      2  C   UNL     1       6.064   5.558  -9.461  0.00  0.00    +0.012 A 
ATOM      3  C   UNL     1       5.314   5.417 -10.615  0.00  0.00    +0.131 A 
ATOM      4  C   UNL     1       5.834   5.883 -11.815  0.00  0.00    +0.012 A 
ATOM      5  C   UNL     1       5.075   5.587 -13.068  0.00  0.00    +0.034 C 
ATOM      6  C   UNL     1       7.030   6.590 -11.829  0.00  0.00    -0.001 A 
ATOM      7  C   UNL     1       7.691   6.913 -10.649  0.00  0.00    -0.000 A 
ATOM      8  C   UNL     1       7.294   6.196  -9.528  0.00  0.00    -0.001 A 
ENDROOT
BRANCH   3   9
ATOM      9  O   UNL     1       3.948   5.378 -10.505  0.00  0.00    -0.475 OA
BRANCH   9  10
ATOM     10  C   UNL     1       3.084   6.478 -10.450  0.00  0.00    +0.224 C 
BRANCH  10  11
ATOM     11  C   UNL     1       2.012   6.135  -9.257  0.00  0.00    +0.135 C 
ATOM     12  N   UNL     1       0.881   6.980  -9.947  0.00  0.00    -0.129 NA
ATOM     13  C   UNL     1       2.491   7.414  -8.348  0.00  0.00    +0.024 C 
ENDBRANCH  10  11
ENDBRANCH   9  10
ENDBRANCH   3   9
TORSDOF 3
ENDMDL
MODEL 7
REMARK VINA RESULT:      -5.4      5.701      7.648
REMARK  Name = 
REMARK  3 active torsions:
REMARK  status: ('A' for Active; 'I' for Inactive)
REMARK    1  A    between atoms: C_8  and  O_9
REMARK    2  A    between atoms: O_9  and  C_10
REMARK    3  A    between atoms: C_10  and  C_11
REMARK                            x       y       z     vdW  Elec       q    Type
REMARK                         _______ _______ _______ _____ _____    ______ ____
ROOT
ATOM      1  C   UNL     1      -0.463   5.422  -8.250  0.00  0.00    +0.034 C 
ATOM      2  C   UNL     1      -0.843   5.386  -6.844  0.00  0.00    +0.012 A 
ATOM      3  C   UNL     1       0.178   5.487  -5.916  0.00  0.00    +0.131 A 
ATOM      4  C   UNL     1      -0.145   5.589  -4.569  0.00  0.00    +0.012 A 
ATOM      5  C   UNL     1       0.972   5.547  -3.577  0.00  0.00    +0.034 C 
ATOM      6  C   UNL     1      -1.472   5.715  -4.179  0.00  0.00    -0.001 A 
ATOM      7  C   UNL     1      -2.494   5.818  -5.116  0.00  0.00    -0.000 A 
ATOM      8  C   UNL     1      -2.159   5.431  -6.407  0.00  0.00    -0.001 A 
ENDROOT
BRANCH   3   9
ATOM      9  O   UNL     1       1.367   6.044  -6.313  0.00  0.00    -0.475 OA
BRANCH   9  10
ATOM     10  C   UNL     1       2.513   5.355  -6.727  0.00  0.00    +0.224 C 
BRANCH  10  11
ATOM     11  C   UNL     1       3.604   6.514  -7.120  0.00  0.00    +0.135 C 
ATOM     12  N   UNL     1       3.389   7.265  -5.756  0.00  0.00    -0.129 NA
ATOM     13  C   UNL     1       2.476   7.437  -7.871  0.00  0.00    +0.024 C 
ENDBRANCH  10  11
ENDBRANCH   9  10
ENDBRANCH   3   9
TORSDOF 3
ENDMDL
MODEL 8
REMARK VINA RESULT:      -5.4      1.716      3.496
REMARK  Name = 
REMARK  3 active torsions:
REMARK  status: ('A' for Active; 'I' for Inactive)
REMARK    1  A    between atoms: C_8  and  O_9
REMARK    2  A    between atoms: O_9  and  C_10
REMARK    3  A    between atoms: C_10  and  C_11
REMARK                            x       y       z     vdW  Elec       q    Type
REMARK                         _______ _______ _______ _____ _____    ______ ____
ROOT
ATOM      1  C   UNL     1       6.582   7.717 -12.591  0.00  0.00    +0.034 C 
ATOM      2  C   UNL     1       6.439   7.046 -11.306  0.00  0.00    +0.012 A 
ATOM      3  C   UNL     1       5.225   6.434 -11.051  0.00  0.00    +0.131 A 
ATOM      4  C   UNL     1       5.086   5.672  -9.898  0.00  0.00    +0.012 A 
ATOM      5  C   UNL     1       3.727   5.145  -9.568  0.00  0.00    +0.034 C 
ATOM      6  C   UNL     1       6.186   5.430  -9.086  0.00  0.00    -0.001 A 
ATOM      7  C   UNL     1       7.456   5.872  -9.440  0.00  0.00    -0.000 A 
ATOM      8  C   UNL     1       7.493   6.849 -10.427  0.00  0.00    -0.001 A 
ENDROOT
BRANCH   3   9
ATOM      9  O   UNL     1       4.425   6.102 -12.114  0.00  0.00    -0.475 OA
BRANCH   9  10
ATOM     10  C   UNL     1       4.641   5.064 -13.027  0.00  0.00    +0.224 C 
BRANCH  10  11
ATOM     11  C   UNL     1       3.290   5.005 -13.954  0.00  0.00    +0.135 C 
ATOM     12  N   UNL     1       3.794   6.178 -14.871  0.00  0.00    -0.129 NA
ATOM     13  C   UNL     1       2.477   6.042 -12.977  0.00  0.00    +0.024 C 
ENDBRANCH  10  11
ENDBRANCH   9  10
ENDBRANCH   3   9
TORSDOF 3
ENDMDL
MODEL 9
REMARK VINA RESULT:      -5.3      6.270      8.128
REMARK  Name = 
REMARK  3 active torsions:
REMARK  status: ('A' for Active; 'I' for Inactive)
REMARK    1  A    between atoms: C_8  and  O_9
REMARK    2  A    between atoms: O_9  and  C_10
REMARK    3  A    between atoms: C_10  and  C_11
REMARK                            x       y       z     vdW  Elec       q    Type
REMARK                         _______ _______ _______ _____ _____    ______ ____
ROOT
ATOM      1  C   UNL     1      -0.668   5.826  -2.939  0.00  0.00    +0.034 C 
ATOM      2  C   UNL     1      -0.927   5.813  -4.372  0.00  0.00    +0.012 A 
ATOM      3  C   UNL     1       0.155   5.581  -5.202  0.00  0.00    +0.131 A 
ATOM      4  C   UNL     1      -0.063   5.430  -6.565  0.00  0.00    +0.012 A 
ATOM      5  C   UNL     1       1.131   5.329  -7.458  0.00  0.00    +0.034 C 
ATOM      6  C   UNL     1      -1.360   5.387  -7.063  0.00  0.00    -0.001 A 
ATOM      7  C   UNL     1      -2.460   5.418  -6.213  0.00  0.00    -0.000 A 
ATOM      8  C   UNL     1      -2.202   5.848  -4.918  0.00  0.00    -0.001 A 
ENDROOT
BRANCH   3   9
ATOM      9  O   UNL     1       1.257   4.956  -4.678  0.00  0.00    -0.475 OA
BRANCH   9  10
ATOM     10  C   UNL     1       2.407   5.575  -4.175  0.00  0.00    +0.224 C 
BRANCH  10  11
ATOM     11  C   UNL     1       3.666   4.691  -4.742  0.00  0.00    +0.135 C 
ATOM     12  N   UNL     1       4.528   4.983  -3.461  0.00  0.00    -0.129 NA
ATOM     13  C   UNL     1       4.313   5.972  -5.537  0.00  0.00    +0.024 C 
ENDBRANCH  10  11
ENDBRANCH   9  10
ENDBRANCH   3   9
TORSDOF 3
ENDMDL
