MODEL 1
REMARK VINA RESULT:      -8.5      0.000      0.000
REMARK  Name = 
REMARK  2 active torsions:
REMARK  status: ('A' for Active; 'I' for Inactive)
REMARK    1  A    between atoms: C_23  and  C_25
REMARK    2  A    between atoms: C_25  and  C_27
REMARK                            x       y       z     vdW  Elec       q    Type
REMARK                         _______ _______ _______ _____ _____    ______ ____
ROOT
ATOM      1  C   UNL     1       0.873   4.697  -2.279  0.00  0.00    +0.003 C 
ATOM      2  C   UNL     1       1.230   6.191  -1.724  0.00  0.00    +0.035 C 
ATOM      3  C   UNL     1       2.837   5.930  -1.740  0.00  0.00    +0.180 C 
ATOM      4  O   UNL     1       3.091   4.720  -1.141  0.00  0.00    -0.218 OA
ATOM      5  C   UNL     1       3.322   6.080  -3.089  0.00  0.00    +0.035 C 
ATOM      6  C   UNL     1       1.949   5.755  -3.867  0.00  0.00    +0.006 C 
ATOM      7  C   UNL     1       2.546   6.602  -5.198  0.00  0.00    +0.034 C 
ATOM      8  C   UNL     1       3.111   5.257  -5.847  0.00  0.00    +0.168 C 
ATOM      9  C   UNL     1       4.591   5.052  -5.156  0.00  0.00    +0.182 C 
ATOM     10  O   UNL     1       4.958   6.528  -5.217  0.00  0.00    -0.220 OA
ATOM     11  F   UNL     1       2.397   4.170  -5.533  0.00  0.00    -0.237 F 
ATOM     12  C   UNL     1       3.307   5.439  -7.308  0.00  0.00    +0.064 C 
ATOM     13  C   UNL     1       2.580   6.597  -7.887  0.00  0.00    -0.035 C 
ATOM     14  C   UNL     1       2.119   6.505  -9.133  0.00  0.00    +0.034 C 
ATOM     15  C   UNL     1       1.802   5.226  -9.776  0.00  0.00    +0.195 C 
ATOM     16  C   UNL     1       2.131   4.036  -8.994  0.00  0.00    +0.038 C 
ATOM     17  O   UNL     1       0.686   5.032 -10.370  0.00  0.00    -0.287 OA
ATOM     18  C   UNL     1       1.796   7.568  -7.037  0.00  0.00    +0.023 C 
ATOM     19  C   UNL     1       4.797   5.476  -7.660  0.00  0.00    +0.011 C 
ATOM     20  C   UNL     1       2.887   4.129  -7.917  0.00  0.00    -0.017 C 
ATOM     21  C   UNL     1       1.159   6.574  -6.040  0.00  0.00    +0.007 C 
ATOM     22  C   UNL     1       3.727   7.484  -3.278  0.00  0.00    +0.003 C 
ATOM     23  C   UNL     1       4.167   5.051  -3.577  0.00  0.00    +0.038 C 
ATOM     24  C   UNL     1       1.222   7.000  -3.149  0.00  0.00    +0.003 C 
ENDROOT
BRANCH   3  25
ATOM     25  C   UNL     1       3.156   6.945  -0.740  0.00  0.00    +0.211 C 
ATOM     26  O   UNL     1       2.373   7.570  -0.026  0.00  0.00    -0.291 OA
BRANCH  25  27
ATOM     27  C   UNL     1       4.434   6.661   0.001  0.00  0.00    +0.248 C 
ATOM     28  O   UNL     1       4.139   6.885   1.335  0.00  0.00    -0.212 OA
ENDBRANCH  25  27
ENDBRANCH   3  25
TORSDOF 2
ENDMDL
MODEL 2
REMARK VINA RESULT:      -8.4      1.739      3.245
REMARK  Name = 
REMARK  2 active torsions:
REMARK  status: ('A' for Active; 'I' for Inactive)
REMARK    1  A    between atoms: C_23  and  C_25
REMARK    2  A    between atoms: C_25  and  C_27
REMARK                            x       y       z     vdW  Elec       q    Type
REMARK                         _______ _______ _______ _____ _____    ______ ____
ROOT
ATOM      1  C   UNL     1       4.925   7.744  -4.566  0.00  0.00    +0.003 C 
ATOM      2  C   UNL     1       4.954   6.401  -3.637  0.00  0.00    +0.035 C 
ATOM      3  C   UNL     1       3.422   6.595  -3.120  0.00  0.00    +0.180 C 
ATOM      4  O   UNL     1       3.257   7.900  -2.721  0.00  0.00    -0.218 OA
ATOM      5  C   UNL     1       2.521   6.129  -4.143  0.00  0.00    +0.035 C 
ATOM      6  C   UNL     1       3.493   6.319  -5.414  0.00  0.00    +0.006 C 
ATOM      7  C   UNL     1       2.572   5.175  -6.243  0.00  0.00    +0.034 C 
ATOM      8  C   UNL     1       1.668   6.319  -6.894  0.00  0.00    +0.168 C 
ATOM      9  C   UNL     1       0.506   6.622  -5.768  0.00  0.00    +0.182 C 
ATOM     10  O   UNL     1       0.310   5.158  -5.399  0.00  0.00    -0.220 OA
ATOM     11  F   UNL     1       2.319   7.473  -7.081  0.00  0.00    -0.237 F 
ATOM     12  C   UNL     1       1.000   5.807  -8.118  0.00  0.00    +0.064 C 
ATOM     13  C   UNL     1       1.608   4.575  -8.681  0.00  0.00    -0.035 C 
ATOM     14  C   UNL     1       1.595   4.400 -10.001  0.00  0.00    +0.034 C 
ATOM     15  C   UNL     1       1.523   5.512 -10.954  0.00  0.00    +0.195 C 
ATOM     16  C   UNL     1       1.353   6.836 -10.356  0.00  0.00    +0.038 C 
ATOM     17  O   UNL     1       2.334   5.607 -11.938  0.00  0.00    -0.287 OA
ATOM     18  C   UNL     1       2.742   3.847  -8.000  0.00  0.00    +0.023 C 
ATOM     19  C   UNL     1      -0.505   5.640  -7.890  0.00  0.00    +0.011 C 
ATOM     20  C   UNL     1       1.032   6.960  -9.083  0.00  0.00    -0.017 C 
ATOM     21  C   UNL     1       3.569   5.062  -7.519  0.00  0.00    +0.007 C 
ATOM     22  C   UNL     1       2.237   4.706  -3.892  0.00  0.00    +0.003 C 
ATOM     23  C   UNL     1       1.448   6.992  -4.484  0.00  0.00    +0.038 C 
ATOM     24  C   UNL     1       4.560   5.293  -4.779  0.00  0.00    +0.003 C 
ENDROOT
BRANCH   3  25
ATOM     25  C   UNL     1       3.587   5.820  -1.894  0.00  0.00    +0.211 C 
ATOM     26  O   UNL     1       4.550   5.130  -1.563  0.00  0.00    -0.291 OA
BRANCH  25  27
ATOM     27  C   UNL     1       2.977   6.485  -0.690  0.00  0.00    +0.248 C 
ATOM     28  O   UNL     1       3.893   6.302   0.331  0.00  0.00    -0.212 OA
ENDBRANCH  25  27
ENDBRANCH   3  25
TORSDOF 2
ENDMDL
MODEL 3
REMARK VINA RESULT:      -8.3      1.670      6.703
REMARK  Name = 
REMARK  2 active torsions:
REMARK  status: ('A' for Active; 'I' for Inactive)
REMARK    1  A    between atoms: C_23  and  C_25
REMARK    2  A    between atoms: C_25  and  C_27
REMARK                            x       y       z     vdW  Elec       q    Type
REMARK                         _______ _______ _______ _____ _____    ______ ____
ROOT
ATOM      1  C   UNL     1       2.065   8.033  -7.559  0.00  0.00    +0.003 C 
ATOM      2  C   UNL     1       1.518   6.628  -8.186  0.00  0.00    +0.035 C 
ATOM      3  C   UNL     1       2.944   5.865  -7.998  0.00  0.00    +0.180 C 
ATOM      4  O   UNL     1       3.942   6.677  -8.480  0.00  0.00    -0.218 OA
ATOM      5  C   UNL     1       3.077   5.451  -6.624  0.00  0.00    +0.035 C 
ATOM      6  C   UNL     1       2.092   6.538  -5.958  0.00  0.00    +0.006 C 
ATOM      7  C   UNL     1       1.898   5.500  -4.643  0.00  0.00    +0.034 C 
ATOM      8  C   UNL     1       3.073   6.230  -3.846  0.00  0.00    +0.168 C 
ATOM      9  C   UNL     1       4.450   5.500  -4.377  0.00  0.00    +0.182 C 
ATOM     10  O   UNL     1       3.849   4.102  -4.390  0.00  0.00    -0.220 OA
ATOM     11  F   UNL     1       3.198   7.528  -4.145  0.00  0.00    -0.237 F 
ATOM     12  C   UNL     1       2.945   5.964  -2.390  0.00  0.00    +0.064 C 
ATOM     13  C   UNL     1       1.606   5.480  -1.969  0.00  0.00    -0.035 C 
ATOM     14  C   UNL     1       1.147   5.829  -0.768  0.00  0.00    +0.034 C 
ATOM     15  C   UNL     1       1.585   7.039  -0.066  0.00  0.00    +0.195 C 
ATOM     16  C   UNL     1       2.653   7.790  -0.724  0.00  0.00    +0.038 C 
ATOM     17  O   UNL     1       0.748   7.867   0.433  0.00  0.00    -0.287 OA
ATOM     18  C   UNL     1       0.505   5.180  -2.958  0.00  0.00    +0.023 C 
ATOM     19  C   UNL     1       4.060   5.034  -1.903  0.00  0.00    +0.011 C 
ATOM     20  C   UNL     1       3.324   7.261  -1.729  0.00  0.00    -0.017 C 
ATOM     21  C   UNL     1       0.716   6.359  -3.935  0.00  0.00    +0.007 C 
ATOM     22  C   UNL     1       2.533   4.087  -6.502  0.00  0.00    +0.003 C 
ATOM     23  C   UNL     1       4.304   5.760  -5.984  0.00  0.00    +0.038 C 
ATOM     24  C   UNL     1       0.856   5.986  -6.831  0.00  0.00    +0.003 C 
ENDROOT
BRANCH   3  25
ATOM     25  C   UNL     1       2.708   4.865  -9.036  0.00  0.00    +0.211 C 
ATOM     26  O   UNL     1       1.653   4.621  -9.619  0.00  0.00    -0.291 OA
BRANCH  25  27
ATOM     27  C   UNL     1       3.877   4.692  -9.967  0.00  0.00    +0.248 C 
ATOM     28  O   UNL     1       3.489   5.289 -11.153  0.00  0.00    -0.212 OA
ENDBRANCH  25  27
ENDBRANCH   3  25
TORSDOF 2
ENDMDL
MODEL 4
REMARK VINA RESULT:      -8.0      1.627      6.972
REMARK  Name = 
REMARK  2 active torsions:
REMARK  status: ('A' for Active; 'I' for Inactive)
REMARK    1  A    between atoms: C_23  and  C_25
REMARK    2  A    between atoms: C_25  and  C_27
REMARK                            x       y       z     vdW  Elec       q    Type
REMARK                         _______ _______ _______ _____ _____    ______ ____
ROOT
ATOM      1  C   UNL     1       3.582   3.716  -8.625  0.00  0.00    +0.003 C 
ATOM      2  C   UNL     1       3.660   5.099  -9.489  0.00  0.00    +0.035 C 
ATOM      3  C   UNL     1       2.066   5.400  -9.356  0.00  0.00    +0.180 C 
ATOM      4  O   UNL     1       1.376   4.250  -9.656  0.00  0.00    -0.218 OA
ATOM      5  C   UNL     1       1.804   5.971  -8.059  0.00  0.00    +0.035 C 
ATOM      6  C   UNL     1       3.079   5.369  -7.278  0.00  0.00    +0.006 C 
ATOM      7  C   UNL     1       2.932   6.616  -6.152  0.00  0.00    +0.034 C 
ATOM      8  C   UNL     1       2.043   5.698  -5.196  0.00  0.00    +0.168 C 
ATOM      9  C   UNL     1       0.509   5.865  -5.767  0.00  0.00    +0.182 C 
ATOM     10  O   UNL     1       0.639   7.359  -6.028  0.00  0.00    -0.220 OA
ATOM     11  F   UNL     1       2.335   4.395  -5.282  0.00  0.00    -0.237 F 
ATOM     12  C   UNL     1       2.076   6.224  -3.807  0.00  0.00    +0.064 C 
ATOM     13  C   UNL     1       3.193   7.164  -3.532  0.00  0.00    -0.035 C 
ATOM     14  C   UNL     1       3.734   7.176  -2.315  0.00  0.00    +0.034 C 
ATOM     15  C   UNL     1       3.696   6.022  -1.412  0.00  0.00    +0.195 C 
ATOM     16  C   UNL     1       2.922   4.878  -1.892  0.00  0.00    +0.038 C 
ATOM     17  O   UNL     1       4.750   5.589  -0.831  0.00  0.00    -0.287 OA
ATOM     18  C   UNL     1       4.147   7.625  -4.608  0.00  0.00    +0.023 C 
ATOM     19  C   UNL     1       0.723   6.828  -3.418  0.00  0.00    +0.011 C 
ATOM     20  C   UNL     1       2.122   5.000  -2.934  0.00  0.00    -0.017 C 
ATOM     21  C   UNL     1       4.322   6.296  -5.377  0.00  0.00    +0.007 C 
ATOM     22  C   UNL     1       1.890   7.437  -8.177  0.00  0.00    +0.003 C 
ATOM     23  C   UNL     1       0.735   5.404  -7.320  0.00  0.00    +0.038 C 
ATOM     24  C   UNL     1       4.081   6.128  -8.285  0.00  0.00    +0.003 C 
ENDROOT
BRANCH   3  25
ATOM     25  C   UNL     1       1.979   6.240 -10.547  0.00  0.00    +0.211 C 
ATOM     26  O   UNL     1       2.878   6.516 -11.340  0.00  0.00    -0.291 OA
BRANCH  25  27
ATOM     27  C   UNL     1       0.663   6.110 -11.265  0.00  0.00    +0.248 C 
ATOM     28  O   UNL     1       0.010   7.310 -11.049  0.00  0.00    -0.212 OA
ENDBRANCH  25  27
ENDBRANCH   3  25
TORSDOF 2
ENDMDL
MODEL 5
REMARK VINA RESULT:      -7.8      3.225      6.138
REMARK  Name = 
REMARK  2 active torsions:
REMARK  status: ('A' for Active; 'I' for Inactive)
REMARK    1  A    between atoms: C_23  and  C_25
REMARK    2  A    between atoms: C_25  and  C_27
REMARK                            x       y       z     vdW  Elec       q    Type
REMARK                         _______ _______ _______ _____ _____    ______ ____
ROOT
ATOM      1  C   UNL     1       2.131   8.144  -7.704  0.00  0.00    +0.003 C 
ATOM      2  C   UNL     1       3.002   6.903  -7.097  0.00  0.00    +0.035 C 
ATOM      3  C   UNL     1       1.745   5.868  -7.118  0.00  0.00    +0.180 C 
ATOM      4  O   UNL     1       0.655   6.492  -6.561  0.00  0.00    -0.218 OA
ATOM      5  C   UNL     1       1.570   5.372  -8.460  0.00  0.00    +0.035 C 
ATOM      6  C   UNL     1       2.252   6.599  -9.252  0.00  0.00    +0.006 C 
ATOM      7  C   UNL     1       2.525   5.558 -10.551  0.00  0.00    +0.034 C 
ATOM      8  C   UNL     1       1.159   6.005 -11.245  0.00  0.00    +0.168 C 
ATOM      9  C   UNL     1       0.011   5.047 -10.558  0.00  0.00    +0.182 C 
ATOM     10  O   UNL     1       0.877   3.795 -10.567  0.00  0.00    -0.220 OA
ATOM     11  F   UNL     1       0.807   7.267 -10.971  0.00  0.00    -0.237 F 
ATOM     12  C   UNL     1       1.201   5.702 -12.699  0.00  0.00    +0.064 C 
ATOM     13  C   UNL     1       2.565   5.470 -13.239  0.00  0.00    -0.035 C 
ATOM     14  C   UNL     1       2.831   5.845 -14.489  0.00  0.00    +0.034 C 
ATOM     15  C   UNL     1       2.097   6.912 -15.177  0.00  0.00    +0.195 C 
ATOM     16  C   UNL     1       0.967   7.470 -14.435  0.00  0.00    +0.038 C 
ATOM     17  O   UNL     1       2.702   7.862 -15.780  0.00  0.00    -0.287 OA
ATOM     18  C   UNL     1       3.791   5.438 -12.358  0.00  0.00    +0.023 C 
ATOM     19  C   UNL     1       0.253   4.550 -13.045  0.00  0.00    +0.011 C 
ATOM     20  C   UNL     1       0.511   6.867 -13.354  0.00  0.00    -0.017 C 
ATOM     21  C   UNL     1       3.441   6.597 -11.398  0.00  0.00    +0.007 C 
ATOM     22  C   UNL     1       2.360   4.137  -8.599  0.00  0.00    +0.003 C 
ATOM     23  C   UNL     1       0.252   5.405  -8.981  0.00  0.00    +0.038 C 
ATOM     24  C   UNL     1       3.649   6.340  -8.494  0.00  0.00    +0.003 C 
ENDROOT
BRANCH   3  25
ATOM     25  C   UNL     1       2.272   4.983  -6.083  0.00  0.00    +0.211 C 
ATOM     26  O   UNL     1       3.415   4.952  -5.630  0.00  0.00    -0.291 OA
BRANCH  25  27
ATOM     27  C   UNL     1       1.269   4.676  -5.004  0.00  0.00    +0.248 C 
ATOM     28  O   UNL     1       1.784   5.248  -3.855  0.00  0.00    -0.212 OA
ENDBRANCH  25  27
ENDBRANCH   3  25
TORSDOF 2
ENDMDL
MODEL 6
REMARK VINA RESULT:      -7.7      3.128      8.976
REMARK  Name = 
REMARK  2 active torsions:
REMARK  status: ('A' for Active; 'I' for Inactive)
REMARK    1  A    between atoms: C_23  and  C_25
REMARK    2  A    between atoms: C_25  and  C_27
REMARK                            x       y       z     vdW  Elec       q    Type
REMARK                         _______ _______ _______ _____ _____    ______ ____
ROOT
ATOM      1  C   UNL     1       4.042   4.534 -12.757  0.00  0.00    +0.003 C 
ATOM      2  C   UNL     1       3.643   5.969 -13.428  0.00  0.00    +0.035 C 
ATOM      3  C   UNL     1       2.056   5.613 -13.508  0.00  0.00    +0.180 C 
ATOM      4  O   UNL     1       1.915   4.356 -14.046  0.00  0.00    -0.218 OA
ATOM      5  C   UNL     1       1.466   5.812 -12.208  0.00  0.00    +0.035 C 
ATOM      6  C   UNL     1       2.794   5.616 -11.317  0.00  0.00    +0.006 C 
ATOM      7  C   UNL     1       2.055   6.502 -10.087  0.00  0.00    +0.034 C 
ATOM      8  C   UNL     1       1.519   5.167  -9.396  0.00  0.00    +0.168 C 
ATOM      9  C   UNL     1       0.108   4.833 -10.174  0.00  0.00    +0.182 C 
ATOM     10  O   UNL     1      -0.345   6.285 -10.232  0.00  0.00    -0.220 OA
ATOM     11  F   UNL     1       2.314   4.108  -9.591  0.00  0.00    -0.237 F 
ATOM     12  C   UNL     1       1.206   5.422  -7.966  0.00  0.00    +0.064 C 
ATOM     13  C   UNL     1       1.824   6.653  -7.412  0.00  0.00    -0.035 C 
ATOM     14  C   UNL     1       2.196   6.663  -6.133  0.00  0.00    +0.034 C 
ATOM     15  C   UNL     1       2.536   5.445  -5.390  0.00  0.00    +0.195 C 
ATOM     16  C   UNL     1       2.332   4.193  -6.118  0.00  0.00    +0.038 C 
ATOM     17  O   UNL     1       3.614   5.354  -4.709  0.00  0.00    -0.287 OA
ATOM     18  C   UNL     1       2.612   7.618  -8.264  0.00  0.00    +0.023 C 
ATOM     19  C   UNL     1      -0.305   5.389  -7.723  0.00  0.00    +0.011 C 
ATOM     20  C   UNL     1       1.654   4.178  -7.248  0.00  0.00    -0.017 C 
ATOM     21  C   UNL     1       3.375   6.607  -9.150  0.00  0.00    +0.007 C 
ATOM     22  C   UNL     1       0.970   7.197 -12.137  0.00  0.00    +0.003 C 
ATOM     23  C   UNL     1       0.647   4.764 -11.716  0.00  0.00    +0.038 C 
ATOM     24  C   UNL     1       3.501   6.859 -12.059  0.00  0.00    +0.003 C 
ENDROOT
BRANCH   3  25
ATOM     25  C   UNL     1       1.755   6.546 -14.589  0.00  0.00    +0.211 C 
ATOM     26  O   UNL     1       2.537   7.025 -15.409  0.00  0.00    -0.291 OA
BRANCH  25  27
ATOM     27  C   UNL     1       0.412   6.302 -15.223  0.00  0.00    +0.248 C 
ATOM     28  O   UNL     1       0.528   6.777 -16.517  0.00  0.00    -0.212 OA
ENDBRANCH  25  27
ENDBRANCH   3  25
TORSDOF 2
ENDMDL
MODEL 7
REMARK VINA RESULT:      -7.6      1.883      3.379
REMARK  Name = 
REMARK  2 active torsions:
REMARK  status: ('A' for Active; 'I' for Inactive)
REMARK    1  A    between atoms: C_23  and  C_25
REMARK    2  A    between atoms: C_25  and  C_27
REMARK                            x       y       z     vdW  Elec       q    Type
REMARK                         _______ _______ _______ _____ _____    ______ ____
ROOT
ATOM      1  C   UNL     1       4.920   7.997  -4.043  0.00  0.00    +0.003 C 
ATOM      2  C   UNL     1       4.990   6.571  -3.251  0.00  0.00    +0.035 C 
ATOM      3  C   UNL     1       3.372   6.441  -3.120  0.00  0.00    +0.180 C 
ATOM      4  O   UNL     1       2.872   7.638  -2.667  0.00  0.00    -0.218 OA
ATOM      5  C   UNL     1       2.837   5.967  -4.371  0.00  0.00    +0.035 C 
ATOM      6  C   UNL     1       4.022   6.476  -5.338  0.00  0.00    +0.006 C 
ATOM      7  C   UNL     1       3.554   5.310  -6.463  0.00  0.00    +0.034 C 
ATOM      8  C   UNL     1       2.623   6.362  -7.222  0.00  0.00    +0.168 C 
ATOM      9  C   UNL     1       1.197   6.322  -6.402  0.00  0.00    +0.182 C 
ATOM     10  O   UNL     1       1.205   4.811  -6.217  0.00  0.00    -0.220 OA
ATOM     11  F   UNL     1       3.066   7.622  -7.143  0.00  0.00    -0.237 F 
ATOM     12  C   UNL     1       2.366   5.907  -8.612  0.00  0.00    +0.064 C 
ATOM     13  C   UNL     1       3.313   4.874  -9.106  0.00  0.00    -0.035 C 
ATOM     14  C   UNL     1       3.638   4.870 -10.398  0.00  0.00    +0.034 C 
ATOM     15  C   UNL     1       3.577   6.067 -11.242  0.00  0.00    +0.195 C 
ATOM     16  C   UNL     1       3.022   7.257 -10.598  0.00  0.00    +0.038 C 
ATOM     17  O   UNL     1       4.559   6.419 -11.980  0.00  0.00    -0.287 OA
ATOM     18  C   UNL     1       4.377   4.264  -8.226  0.00  0.00    +0.023 C 
ATOM     19  C   UNL     1       0.910   5.465  -8.784  0.00  0.00    +0.011 C 
ATOM     20  C   UNL     1       2.399   7.163  -9.439  0.00  0.00    -0.017 C 
ATOM     21  C   UNL     1       4.821   5.527  -7.454  0.00  0.00    +0.007 C 
ATOM     22  C   UNL     1       2.781   4.496  -4.319  0.00  0.00    +0.003 C 
ATOM     23  C   UNL     1       1.728   6.677  -4.896  0.00  0.00    +0.038 C 
ATOM     24  C   UNL     1       5.089   5.568  -4.544  0.00  0.00    +0.003 C 
ENDROOT
BRANCH   3  25
ATOM     25  C   UNL     1       3.394   5.554  -1.960  0.00  0.00    +0.211 C 
ATOM     26  O   UNL     1       4.372   5.195  -1.307  0.00  0.00    -0.291 OA
BRANCH  25  27
ATOM     27  C   UNL     1       2.195   5.721  -1.067  0.00  0.00    +0.248 C 
ATOM     28  O   UNL     1       1.796   4.434  -0.750  0.00  0.00    -0.212 OA
ENDBRANCH  25  27
ENDBRANCH   3  25
TORSDOF 2
ENDMDL
MODEL 8
REMARK VINA RESULT:      -7.6      2.527      4.310
REMARK  Name = 
REMARK  2 active torsions:
REMARK  status: ('A' for Active; 'I' for Inactive)
REMARK    1  A    between atoms: C_23  and  C_25
REMARK    2  A    between atoms: C_25  and  C_27
REMARK                            x       y       z     vdW  Elec       q    Type
REMARK                         _______ _______ _______ _____ _____    ______ ____
ROOT
ATOM      1  C   UNL     1       3.205   7.503  -4.184  0.00  0.00    +0.003 C 
ATOM      2  C   UNL     1       2.726   6.025  -3.681  0.00  0.00    +0.035 C 
ATOM      3  C   UNL     1       1.284   6.118  -4.428  0.00  0.00    +0.180 C 
ATOM      4  O   UNL     1       0.718   7.337  -4.139  0.00  0.00    -0.218 OA
ATOM      5  C   UNL     1       1.461   5.822  -5.828  0.00  0.00    +0.035 C 
ATOM      6  C   UNL     1       3.015   6.228  -5.955  0.00  0.00    +0.006 C 
ATOM      7  C   UNL     1       3.126   5.230  -7.310  0.00  0.00    +0.034 C 
ATOM      8  C   UNL     1       2.832   6.459  -8.286  0.00  0.00    +0.168 C 
ATOM      9  C   UNL     1       1.190   6.561  -8.342  0.00  0.00    +0.182 C 
ATOM     10  O   UNL     1       0.976   5.055  -8.393  0.00  0.00    -0.220 OA
ATOM     11  F   UNL     1       3.265   7.633  -7.813  0.00  0.00    -0.237 F 
ATOM     12  C   UNL     1       3.319   6.152  -9.655  0.00  0.00    +0.064 C 
ATOM     13  C   UNL     1       4.296   5.036  -9.725  0.00  0.00    -0.035 C 
ATOM     14  C   UNL     1       5.258   5.083 -10.644  0.00  0.00    +0.034 C 
ATOM     15  C   UNL     1       5.753   6.337 -11.220  0.00  0.00    +0.195 C 
ATOM     16  C   UNL     1       5.039   7.542 -10.798  0.00  0.00    +0.038 C 
ATOM     17  O   UNL     1       7.002   6.600 -11.282  0.00  0.00    -0.287 OA
ATOM     18  C   UNL     1       4.674   4.214  -8.515  0.00  0.00    +0.023 C 
ATOM     19  C   UNL     1       2.148   5.938 -10.618  0.00  0.00    +0.011 C 
ATOM     20  C   UNL     1       3.889   7.450 -10.159  0.00  0.00    -0.017 C 
ATOM     21  C   UNL     1       4.739   5.338  -7.457  0.00  0.00    +0.007 C 
ATOM     22  C   UNL     1       1.267   4.374  -6.019  0.00  0.00    +0.003 C 
ATOM     23  C   UNL     1       0.864   6.721  -6.747  0.00  0.00    +0.038 C 
ATOM     24  C   UNL     1       3.418   5.119  -4.859  0.00  0.00    +0.003 C 
ENDROOT
BRANCH   3  25
ATOM     25  C   UNL     1       0.612   5.151  -3.564  0.00  0.00    +0.211 C 
ATOM     26  O   UNL     1       1.035   4.655  -2.521  0.00  0.00    -0.291 OA
BRANCH  25  27
ATOM     27  C   UNL     1      -0.874   5.366  -3.482  0.00  0.00    +0.248 C 
ATOM     28  O   UNL     1      -1.215   5.058  -2.177  0.00  0.00    -0.212 OA
ENDBRANCH  25  27
ENDBRANCH   3  25
TORSDOF 2
ENDMDL
MODEL 9
REMARK VINA RESULT:      -7.6      2.371      3.166
REMARK  Name = 
REMARK  2 active torsions:
REMARK  status: ('A' for Active; 'I' for Inactive)
REMARK    1  A    between atoms: C_23  and  C_25
REMARK    2  A    between atoms: C_25  and  C_27
REMARK                            x       y       z     vdW  Elec       q    Type
REMARK                         _______ _______ _______ _____ _____    ______ ____
ROOT
ATOM      1  C   UNL     1      -2.385   5.368  -5.290  0.00  0.00    +0.003 C 
ATOM      2  C   UNL     1      -2.235   6.719  -4.384  0.00  0.00    +0.035 C 
ATOM      3  C   UNL     1      -1.179   6.038  -3.349  0.00  0.00    +0.180 C 
ATOM      4  O   UNL     1      -1.666   4.811  -2.969  0.00  0.00    -0.218 OA
ATOM      5  C   UNL     1       0.131   6.037  -3.951  0.00  0.00    +0.035 C 
ATOM      6  C   UNL     1      -0.324   6.082  -5.496  0.00  0.00    +0.006 C 
ATOM      7  C   UNL     1       1.188   6.723  -5.883  0.00  0.00    +0.034 C 
ATOM      8  C   UNL     1       1.765   5.268  -6.202  0.00  0.00    +0.168 C 
ATOM      9  C   UNL     1       2.248   4.684  -4.742  0.00  0.00    +0.182 C 
ATOM     10  O   UNL     1       2.833   6.007  -4.269  0.00  0.00    -0.220 OA
ATOM     11  F   UNL     1       0.841   4.415  -6.660  0.00  0.00    -0.237 F 
ATOM     12  C   UNL     1       2.962   5.374  -7.074  0.00  0.00    +0.064 C 
ATOM     13  C   UNL     1       3.102   6.677  -7.772  0.00  0.00    -0.035 C 
ATOM     14  C   UNL     1       3.646   6.698  -8.988  0.00  0.00    +0.034 C 
ATOM     15  C   UNL     1       3.629   5.543  -9.891  0.00  0.00    +0.195 C 
ATOM     16  C   UNL     1       3.068   4.317  -9.325  0.00  0.00    +0.038 C 
ATOM     17  O   UNL     1       3.247   5.646 -11.106  0.00  0.00    -0.287 OA
ATOM     18  C   UNL     1       2.161   7.832  -7.527  0.00  0.00    +0.023 C 
ATOM     19  C   UNL     1       4.234   5.008  -6.304  0.00  0.00    +0.011 C 
ATOM     20  C   UNL     1       2.845   4.217  -8.029  0.00  0.00    -0.017 C 
ATOM     21  C   UNL     1       0.828   7.056  -7.431  0.00  0.00    +0.007 C 
ATOM     22  C   UNL     1       0.818   7.279  -3.557  0.00  0.00    +0.003 C 
ATOM     23  C   UNL     1       0.847   4.814  -3.908  0.00  0.00    +0.038 C 
ATOM     24  C   UNL     1      -1.078   7.484  -5.257  0.00  0.00    +0.003 C 
ENDROOT
BRANCH   3  25
ATOM     25  C   UNL     1      -1.464   6.943  -2.239  0.00  0.00    +0.211 C 
ATOM     26  O   UNL     1      -2.205   7.924  -2.240  0.00  0.00    -0.291 OA
BRANCH  25  27
ATOM     27  C   UNL     1      -1.515   6.244  -0.907  0.00  0.00    +0.248 C 
ATOM     28  O   UNL     1      -0.262   6.431  -0.350  0.00  0.00    -0.212 OA
ENDBRANCH  25  27
ENDBRANCH   3  25
TORSDOF 2
ENDMDL
