MODEL 1
REMARK VINA RESULT:      -5.6      0.000      0.000
REMARK  Name = 
REMARK  4 active torsions:
REMARK  status: ('A' for Active; 'I' for Inactive)
REMARK    1  A    between atoms: C_7  and  C_8
REMARK    2  A    between atoms: C_8  and  C_9
REMARK    3  A    between atoms: C_8  and  C_15
REMARK    4  A    between atoms: C_8  and  N_21
REMARK                            x       y       z     vdW  Elec       q    Type
REMARK                         _______ _______ _______ _____ _____    ______ ____
ROOT
ATOM      1  C   UNL     1      -2.230  14.641 -14.702  0.00  0.00    +0.128 C 
ENDROOT
BRANCH   1   4
ATOM      2 CL   UNL     1      -4.111  16.814 -13.619  0.00  0.00    -0.082 Cl
ATOM      3  C   UNL     1      -4.578  15.172 -14.043  0.00  0.00    +0.056 A 
ATOM      4  C   UNL     1      -3.672  14.344 -14.668  0.00  0.00    +0.015 A 
ATOM      5  C   UNL     1      -4.214  13.383 -15.514  0.00  0.00    -0.001 A 
ATOM      6  C   UNL     1      -5.551  13.052 -15.432  0.00  0.00    -0.000 A 
ATOM      7  C   UNL     1      -6.386  13.652 -14.502  0.00  0.00    +0.001 A 
ATOM      8  C   UNL     1      -5.918  14.822 -13.917  0.00  0.00    +0.011 A 
ENDBRANCH   1   4
BRANCH   1   9
ATOM      9  C   UNL     1      -1.976  15.797 -15.591  0.00  0.00    +0.004 A 
ATOM     10  C   UNL     1      -0.721  16.380 -15.628  0.00  0.00    -0.002 A 
ATOM     11  C   UNL     1      -0.354  17.307 -16.588  0.00  0.00    -0.000 A 
ATOM     12  C   UNL     1      -1.112  17.314 -17.750  0.00  0.00    -0.000 A 
ATOM     13  C   UNL     1      -2.296  16.596 -17.828  0.00  0.00    -0.000 A 
ATOM     14  C   UNL     1      -2.830  16.152 -16.629  0.00  0.00    -0.002 A 
ENDBRANCH   1   9
BRANCH   1  15
ATOM     15  C   UNL     1      -1.419  13.468 -15.155  0.00  0.00    +0.004 A 
ATOM     16  C   UNL     1      -1.380  13.111 -16.497  0.00  0.00    -0.002 A 
ATOM     17  C   UNL     1      -0.511  12.143 -16.972  0.00  0.00    -0.000 A 
ATOM     18  C   UNL     1       0.396  11.629 -16.054  0.00  0.00    -0.000 A 
ATOM     19  C   UNL     1       0.602  12.259 -14.855  0.00  0.00    -0.000 A 
ATOM     20  C   UNL     1      -0.223  13.282 -14.471  0.00  0.00    -0.002 A 
ENDBRANCH   1  15
BRANCH   1  21
ATOM     21  N   UNL     1      -1.745  14.936 -13.355  0.00  0.00    -0.301 N 
ATOM     22  C   UNL     1      -1.757  14.110 -12.291  0.00  0.00    +0.179 A 
ATOM     23  N   UNL     1      -1.762  14.907 -11.194  0.00  0.00    -0.222 NA
ATOM     24  C   UNL     1      -1.363  16.131 -11.592  0.00  0.00    +0.119 A 
ATOM     25  C   UNL     1      -1.033  16.006 -12.936  0.00  0.00    +0.099 A 
ENDBRANCH   1  21
TORSDOF 4
ENDMDL
MODEL 2
REMARK VINA RESULT:      -5.6      1.582      4.332
REMARK  Name = 
REMARK  4 active torsions:
REMARK  status: ('A' for Active; 'I' for Inactive)
REMARK    1  A    between atoms: C_7  and  C_8
REMARK    2  A    between atoms: C_8  and  C_9
REMARK    3  A    between atoms: C_8  and  C_15
REMARK    4  A    between atoms: C_8  and  N_21
REMARK                            x       y       z     vdW  Elec       q    Type
REMARK                         _______ _______ _______ _____ _____    ______ ____
ROOT
ATOM      1  C   UNL     1      -2.054  15.352 -14.401  0.00  0.00    +0.128 C 
ENDROOT
BRANCH   1   4
ATOM      2 CL   UNL     1      -2.576  13.642 -11.903  0.00  0.00    -0.082 Cl
ATOM      3  C   UNL     1      -2.258  15.373 -11.913  0.00  0.00    +0.056 A 
ATOM      4  C   UNL     1      -1.882  15.991 -13.085  0.00  0.00    +0.015 A 
ATOM      5  C   UNL     1      -1.064  17.107 -12.944  0.00  0.00    -0.001 A 
ATOM      6  C   UNL     1      -0.960  17.750 -11.728  0.00  0.00    -0.000 A 
ATOM      7  C   UNL     1      -1.672  17.315 -10.620  0.00  0.00    +0.001 A 
ATOM      8  C   UNL     1      -2.199  16.031 -10.691  0.00  0.00    +0.011 A 
ENDBRANCH   1   4
BRANCH   1   9
ATOM      9  C   UNL     1      -3.479  15.010 -14.610  0.00  0.00    +0.004 A 
ATOM     10  C   UNL     1      -3.839  13.717 -14.946  0.00  0.00    -0.002 A 
ATOM     11  C   UNL     1      -5.152  13.278 -14.936  0.00  0.00    -0.000 A 
ATOM     12  C   UNL     1      -6.038  14.027 -14.175  0.00  0.00    -0.000 A 
ATOM     13  C   UNL     1      -5.665  15.259 -13.659  0.00  0.00    -0.000 A 
ATOM     14  C   UNL     1      -4.521  15.830 -14.191  0.00  0.00    -0.002 A 
ENDBRANCH   1   9
BRANCH   1  15
ATOM     15  C   UNL     1      -1.213  14.122 -14.549  0.00  0.00    +0.004 A 
ATOM     16  C   UNL     1      -1.166  13.440 -15.758  0.00  0.00    -0.002 A 
ATOM     17  C   UNL     1      -0.272  12.405 -15.981  0.00  0.00    -0.000 A 
ATOM     18  C   UNL     1       0.650  12.163 -14.969  0.00  0.00    -0.000 A 
ATOM     19  C   UNL     1       0.840  13.081 -13.970  0.00  0.00    -0.000 A 
ATOM     20  C   UNL     1      -0.011  14.146 -13.850  0.00  0.00    -0.002 A 
ENDBRANCH   1  15
BRANCH   1  21
ATOM     21  N   UNL     1      -1.599  16.250 -15.460  0.00  0.00    -0.301 N 
ATOM     22  C   UNL     1      -2.353  16.817 -16.420  0.00  0.00    +0.179 A 
ATOM     23  N   UNL     1      -1.516  17.078 -17.455  0.00  0.00    -0.222 NA
ATOM     24  C   UNL     1      -0.260  17.036 -16.967  0.00  0.00    +0.119 A 
ATOM     25  C   UNL     1      -0.389  16.838 -15.598  0.00  0.00    +0.099 A 
ENDBRANCH   1  21
TORSDOF 4
ENDMDL
MODEL 3
REMARK VINA RESULT:      -5.5     14.009     16.676
REMARK  Name = 
REMARK  4 active torsions:
REMARK  status: ('A' for Active; 'I' for Inactive)
REMARK    1  A    between atoms: C_7  and  C_8
REMARK    2  A    between atoms: C_8  and  C_9
REMARK    3  A    between atoms: C_8  and  C_15
REMARK    4  A    between atoms: C_8  and  N_21
REMARK                            x       y       z     vdW  Elec       q    Type
REMARK                         _______ _______ _______ _____ _____    ______ ____
ROOT
ATOM      1  C   UNL     1       6.600  15.341  -1.132  0.00  0.00    +0.128 C 
ENDROOT
BRANCH   1   4
ATOM      2 CL   UNL     1       7.266  13.711  -3.648  0.00  0.00    -0.082 Cl
ATOM      3  C   UNL     1       6.854  15.421  -3.614  0.00  0.00    +0.056 A 
ATOM      4  C   UNL     1       6.420  15.995  -2.440  0.00  0.00    +0.015 A 
ATOM      5  C   UNL     1       5.547  17.069  -2.578  0.00  0.00    -0.001 A 
ATOM      6  C   UNL     1       5.434  17.728  -3.784  0.00  0.00    -0.000 A 
ATOM      7  C   UNL     1       6.191  17.353  -4.884  0.00  0.00    +0.001 A 
ATOM      8  C   UNL     1       6.785  16.099  -4.825  0.00  0.00    +0.011 A 
ENDBRANCH   1   4
BRANCH   1   9
ATOM      9  C   UNL     1       8.028  15.009  -0.928  0.00  0.00    +0.004 A 
ATOM     10  C   UNL     1       8.398  13.718  -0.597  0.00  0.00    -0.002 A 
ATOM     11  C   UNL     1       9.714  13.289  -0.612  0.00  0.00    -0.000 A 
ATOM     12  C   UNL     1      10.593  14.046  -1.373  0.00  0.00    -0.000 A 
ATOM     13  C   UNL     1      10.209  15.277  -1.886  0.00  0.00    -0.000 A 
ATOM     14  C   UNL     1       9.062  15.838  -1.348  0.00  0.00    -0.002 A 
ENDBRANCH   1   9
BRANCH   1  15
ATOM     15  C   UNL     1       5.769  14.102  -0.999  0.00  0.00    +0.004 A 
ATOM     16  C   UNL     1       5.673  13.444   0.220  0.00  0.00    -0.002 A 
ATOM     17  C   UNL     1       4.784  12.401   0.421  0.00  0.00    -0.000 A 
ATOM     18  C   UNL     1       3.917  12.124  -0.629  0.00  0.00    -0.000 A 
ATOM     19  C   UNL     1       3.762  13.018  -1.655  0.00  0.00    -0.000 A 
ATOM     20  C   UNL     1       4.603  14.094  -1.756  0.00  0.00    -0.002 A 
ENDBRANCH   1  15
BRANCH   1  21
ATOM     21  N   UNL     1       6.137  16.221  -0.062  0.00  0.00    -0.301 N 
ATOM     22  C   UNL     1       6.900  16.872   0.838  0.00  0.00    +0.179 A 
ATOM     23  N   UNL     1       6.111  17.085   1.920  0.00  0.00    -0.222 NA
ATOM     24  C   UNL     1       4.834  16.927   1.515  0.00  0.00    +0.119 A 
ATOM     25  C   UNL     1       4.893  16.709   0.144  0.00  0.00    +0.099 A 
ENDBRANCH   1  21
TORSDOF 4
ENDMDL
MODEL 4
REMARK VINA RESULT:      -5.5     14.097     16.381
REMARK  Name = 
REMARK  4 active torsions:
REMARK  status: ('A' for Active; 'I' for Inactive)
REMARK    1  A    between atoms: C_7  and  C_8
REMARK    2  A    between atoms: C_8  and  C_9
REMARK    3  A    between atoms: C_8  and  C_15
REMARK    4  A    between atoms: C_8  and  N_21
REMARK                            x       y       z     vdW  Elec       q    Type
REMARK                         _______ _______ _______ _____ _____    ______ ____
ROOT
ATOM      1  C   UNL     1       6.444  15.387  -1.264  0.00  0.00    +0.128 C 
ENDROOT
BRANCH   1   4
ATOM      2 CL   UNL     1       6.633  14.256   1.585  0.00  0.00    -0.082 Cl
ATOM      3  C   UNL     1       5.723  13.545   0.258  0.00  0.00    +0.056 A 
ATOM      4  C   UNL     1       5.589  14.236  -0.926  0.00  0.00    +0.015 A 
ATOM      5  C   UNL     1       4.425  13.986  -1.644  0.00  0.00    -0.001 A 
ATOM      6  C   UNL     1       3.663  12.868  -1.376  0.00  0.00    -0.000 A 
ATOM      7  C   UNL     1       4.039  11.958  -0.400  0.00  0.00    +0.001 A 
ATOM      8  C   UNL     1       4.991  12.391   0.514  0.00  0.00    +0.011 A 
ENDBRANCH   1   4
BRANCH   1   9
ATOM      9  C   UNL     1       6.152  15.840  -2.643  0.00  0.00    +0.004 A 
ATOM     10  C   UNL     1       5.734  17.140  -2.870  0.00  0.00    -0.002 A 
ATOM     11  C   UNL     1       5.661  17.692  -4.137  0.00  0.00    -0.000 A 
ATOM     12  C   UNL     1       6.418  17.068  -5.118  0.00  0.00    -0.000 A 
ATOM     13  C   UNL     1       7.015  15.839  -4.880  0.00  0.00    -0.000 A 
ATOM     14  C   UNL     1       6.565  15.141  -3.771  0.00  0.00    -0.002 A 
ENDBRANCH   1   9
BRANCH   1  15
ATOM     15  C   UNL     1       7.901  15.069  -1.135  0.00  0.00    +0.004 A 
ATOM     16  C   UNL     1       8.361  13.772  -1.318  0.00  0.00    -0.002 A 
ATOM     17  C   UNL     1       9.713  13.475  -1.374  0.00  0.00    -0.000 A 
ATOM     18  C   UNL     1      10.580  14.560  -1.350  0.00  0.00    -0.000 A 
ATOM     19  C   UNL     1      10.109  15.829  -1.560  0.00  0.00    -0.000 A 
ATOM     20  C   UNL     1       8.760  16.060  -1.598  0.00  0.00    -0.002 A 
ENDBRANCH   1  15
BRANCH   1  21
ATOM     21  N   UNL     1       6.211  16.480  -0.323  0.00  0.00    -0.301 N 
ATOM     22  C   UNL     1       7.138  17.296   0.215  0.00  0.00    +0.179 A 
ATOM     23  N   UNL     1       6.615  17.744   1.383  0.00  0.00    -0.222 NA
ATOM     24  C   UNL     1       5.286  17.521   1.333  0.00  0.00    +0.119 A 
ATOM     25  C   UNL     1       5.033  17.016   0.064  0.00  0.00    +0.099 A 
ENDBRANCH   1  21
TORSDOF 4
ENDMDL
MODEL 5
REMARK VINA RESULT:      -5.3     16.013     17.864
REMARK  Name = 
REMARK  4 active torsions:
REMARK  status: ('A' for Active; 'I' for Inactive)
REMARK    1  A    between atoms: C_7  and  C_8
REMARK    2  A    between atoms: C_8  and  C_9
REMARK    3  A    between atoms: C_8  and  C_15
REMARK    4  A    between atoms: C_8  and  N_21
REMARK                            x       y       z     vdW  Elec       q    Type
REMARK                         _______ _______ _______ _____ _____    ______ ____
ROOT
ATOM      1  C   UNL     1       3.506   8.767   1.062  0.00  0.00    +0.128 C 
ENDROOT
BRANCH   1   4
ATOM      2 CL   UNL     1       1.998  10.504   3.098  0.00  0.00    -0.082 Cl
ATOM      3  C   UNL     1       1.382   9.038   2.344  0.00  0.00    +0.056 A 
ATOM      4  C   UNL     1       2.095   8.441   1.329  0.00  0.00    +0.015 A 
ATOM      5  C   UNL     1       1.342   7.746   0.388  0.00  0.00    -0.001 A 
ATOM      6  C   UNL     1       0.042   7.377   0.667  0.00  0.00    -0.000 A 
ATOM      7  C   UNL     1      -0.544   7.671   1.889  0.00  0.00    +0.001 A 
ATOM      8  C   UNL     1       0.089   8.638   2.660  0.00  0.00    +0.011 A 
ENDBRANCH   1   4
BRANCH   1   9
ATOM      9  C   UNL     1       3.661  10.230   0.898  0.00  0.00    +0.004 A 
ATOM     10  C   UNL     1       4.742  10.880   1.466  0.00  0.00    -0.002 A 
ATOM     11  C   UNL     1       5.069  12.192   1.168  0.00  0.00    -0.000 A 
ATOM     12  C   UNL     1       4.556  12.692  -0.020  0.00  0.00    -0.000 A 
ATOM     13  C   UNL     1       3.593  11.990  -0.729  0.00  0.00    -0.000 A 
ATOM     14  C   UNL     1       2.958  10.961  -0.053  0.00  0.00    -0.002 A 
ENDBRANCH   1   9
BRANCH   1  15
ATOM     15  C   UNL     1       4.032   8.064  -0.150  0.00  0.00    +0.004 A 
ATOM     16  C   UNL     1       4.128   6.679  -0.177  0.00  0.00    -0.002 A 
ATOM     17  C   UNL     1       4.447   5.990  -1.336  0.00  0.00    -0.000 A 
ATOM     18  C   UNL     1       4.554   6.752  -2.493  0.00  0.00    -0.000 A 
ATOM     19  C   UNL     1       4.082   8.037  -2.523  0.00  0.00    -0.000 A 
ATOM     20  C   UNL     1       3.681   8.645  -1.363  0.00  0.00    -0.002 A 
ENDBRANCH   1  15
BRANCH   1  21
ATOM     21  N   UNL     1       4.347   8.301   2.163  0.00  0.00    -0.301 N 
ATOM     22  C   UNL     1       5.684   8.422   2.268  0.00  0.00    +0.179 A 
ATOM     23  N   UNL     1       6.092   7.421   3.087  0.00  0.00    -0.222 NA
ATOM     24  C   UNL     1       5.003   6.984   3.750  0.00  0.00    +0.119 A 
ATOM     25  C   UNL     1       3.962   7.821   3.367  0.00  0.00    +0.099 A 
ENDBRANCH   1  21
TORSDOF 4
ENDMDL
MODEL 6
REMARK VINA RESULT:      -5.3     15.744     18.295
REMARK  Name = 
REMARK  4 active torsions:
REMARK  status: ('A' for Active; 'I' for Inactive)
REMARK    1  A    between atoms: C_7  and  C_8
REMARK    2  A    between atoms: C_8  and  C_9
REMARK    3  A    between atoms: C_8  and  C_15
REMARK    4  A    between atoms: C_8  and  N_21
REMARK                            x       y       z     vdW  Elec       q    Type
REMARK                         _______ _______ _______ _____ _____    ______ ____
ROOT
ATOM      1  C   UNL     1       3.683   8.611   0.950  0.00  0.00    +0.128 C 
ENDROOT
BRANCH   1   4
ATOM      2 CL   UNL     1       2.475   9.941   3.440  0.00  0.00    -0.082 Cl
ATOM      3  C   UNL     1       1.783   8.579   2.568  0.00  0.00    +0.056 A 
ATOM      4  C   UNL     1       2.340   8.179   1.374  0.00  0.00    +0.015 A 
ATOM      5  C   UNL     1       1.465   7.600   0.462  0.00  0.00    -0.001 A 
ATOM      6  C   UNL     1       0.236   7.129   0.874  0.00  0.00    -0.000 A 
ATOM      7  C   UNL     1      -0.156   7.204   2.201  0.00  0.00    +0.001 A 
ATOM      8  C   UNL     1       0.567   8.073   3.010  0.00  0.00    +0.011 A 
ENDBRANCH   1   4
BRANCH   1   9
ATOM      9  C   UNL     1       4.075   7.894  -0.284  0.00  0.00    +0.004 A 
ATOM     10  C   UNL     1       4.262   6.523  -0.259  0.00  0.00    -0.002 A 
ATOM     11  C   UNL     1       4.406   5.765  -1.408  0.00  0.00    -0.000 A 
ATOM     12  C   UNL     1       3.932   6.338  -2.579  0.00  0.00    -0.000 A 
ATOM     13  C   UNL     1       3.557   7.673  -2.614  0.00  0.00    -0.000 A 
ATOM     14  C   UNL     1       3.970   8.458  -1.550  0.00  0.00    -0.002 A 
ENDBRANCH   1   9
BRANCH   1  15
ATOM     15  C   UNL     1       4.713   8.388   2.013  0.00  0.00    +0.004 A 
ATOM     16  C   UNL     1       4.618   7.301   2.872  0.00  0.00    -0.002 A 
ATOM     17  C   UNL     1       5.637   6.969   3.750  0.00  0.00    -0.000 A 
ATOM     18  C   UNL     1       6.804   7.715   3.644  0.00  0.00    -0.000 A 
ATOM     19  C   UNL     1       7.022   8.510   2.550  0.00  0.00    -0.000 A 
ATOM     20  C   UNL     1       6.012   8.729   1.652  0.00  0.00    -0.002 A 
ENDBRANCH   1  15
BRANCH   1  21
ATOM     21  N   UNL     1       3.696  10.053   0.711  0.00  0.00    -0.301 N 
ATOM     22  C   UNL     1       2.795  10.765   0.008  0.00  0.00    +0.179 A 
ATOM     23  N   UNL     1       3.443  11.874  -0.426  0.00  0.00    -0.222 NA
ATOM     24  C   UNL     1       4.555  12.001   0.327  0.00  0.00    +0.119 A 
ATOM     25  C   UNL     1       4.490  10.989   1.276  0.00  0.00    +0.099 A 
ENDBRANCH   1  21
TORSDOF 4
ENDMDL
MODEL 7
REMARK VINA RESULT:      -5.2     16.256     18.456
REMARK  Name = 
REMARK  4 active torsions:
REMARK  status: ('A' for Active; 'I' for Inactive)
REMARK    1  A    between atoms: C_7  and  C_8
REMARK    2  A    between atoms: C_8  and  C_9
REMARK    3  A    between atoms: C_8  and  C_15
REMARK    4  A    between atoms: C_8  and  N_21
REMARK                            x       y       z     vdW  Elec       q    Type
REMARK                         _______ _______ _______ _____ _____    ______ ____
ROOT
ATOM      1  C   UNL     1       2.753   9.070   1.601  0.00  0.00    +0.128 C 
ENDROOT
BRANCH   1   4
ATOM      2 CL   UNL     1       5.178   7.687   0.321  0.00  0.00    -0.082 Cl
ATOM      3  C   UNL     1       3.498   7.448  -0.144  0.00  0.00    +0.056 A 
ATOM      4  C   UNL     1       2.494   8.006   0.615  0.00  0.00    +0.015 A 
ATOM      5  C   UNL     1       1.286   7.317   0.622  0.00  0.00    -0.001 A 
ATOM      6  C   UNL     1       1.013   6.373  -0.346  0.00  0.00    -0.000 A 
ATOM      7  C   UNL     1       1.922   6.094  -1.356  0.00  0.00    +0.001 A 
ATOM      8  C   UNL     1       3.225   6.531  -1.152  0.00  0.00    +0.011 A 
ENDBRANCH   1   4
BRANCH   1   9
ATOM      9  C   UNL     1       1.477   9.515   2.206  0.00  0.00    +0.004 A 
ATOM     10  C   UNL     1       0.475  10.033   1.405  0.00  0.00    -0.002 A 
ATOM     11  C   UNL     1      -0.811  10.256   1.865  0.00  0.00    -0.000 A 
ATOM     12  C   UNL     1      -1.181   9.556   3.004  0.00  0.00    -0.000 A 
ATOM     13  C   UNL     1      -0.238   8.865   3.750  0.00  0.00    -0.000 A 
ATOM     14  C   UNL     1       1.091   9.165   3.495  0.00  0.00    -0.002 A 
ENDBRANCH   1   9
BRANCH   1  15
ATOM     15  C   UNL     1       3.463  10.242   0.999  0.00  0.00    +0.004 A 
ATOM     16  C   UNL     1       3.248  10.593  -0.327  0.00  0.00    -0.002 A 
ATOM     17  C   UNL     1       3.753  11.765  -0.865  0.00  0.00    -0.000 A 
ATOM     18  C   UNL     1       4.391  12.623   0.023  0.00  0.00    -0.000 A 
ATOM     19  C   UNL     1       4.254  12.448   1.375  0.00  0.00    -0.000 A 
ATOM     20  C   UNL     1       3.655  11.317   1.860  0.00  0.00    -0.002 A 
ENDBRANCH   1  15
BRANCH   1  21
ATOM     21  N   UNL     1       3.652   8.580   2.644  0.00  0.00    -0.301 N 
ATOM     22  C   UNL     1       4.711   9.225   3.169  0.00  0.00    +0.179 A 
ATOM     23  N   UNL     1       5.544   8.265   3.641  0.00  0.00    -0.222 NA
ATOM     24  C   UNL     1       4.820   7.133   3.750  0.00  0.00    +0.119 A 
ATOM     25  C   UNL     1       3.517   7.481   3.419  0.00  0.00    +0.099 A 
ENDBRANCH   1  21
TORSDOF 4
ENDMDL
MODEL 8
REMARK VINA RESULT:      -5.2     15.721     17.554
REMARK  Name = 
REMARK  4 active torsions:
REMARK  status: ('A' for Active; 'I' for Inactive)
REMARK    1  A    between atoms: C_7  and  C_8
REMARK    2  A    between atoms: C_8  and  C_9
REMARK    3  A    between atoms: C_8  and  C_15
REMARK    4  A    between atoms: C_8  and  N_21
REMARK                            x       y       z     vdW  Elec       q    Type
REMARK                         _______ _______ _______ _____ _____    ______ ____
ROOT
ATOM      1  C   UNL     1       3.262   8.834   0.648  0.00  0.00    +0.128 C 
ENDROOT
BRANCH   1   4
ATOM      2 CL   UNL     1       1.261   6.596   0.002  0.00  0.00    -0.082 Cl
ATOM      3  C   UNL     1       0.847   8.208   0.572  0.00  0.00    +0.056 A 
ATOM      4  C   UNL     1       1.845   9.066   0.978  0.00  0.00    +0.015 A 
ATOM      5  C   UNL     1       1.491   9.987   1.957  0.00  0.00    -0.001 A 
ATOM      6  C   UNL     1       0.163  10.258   2.216  0.00  0.00    -0.000 A 
ATOM      7  C   UNL     1      -0.851   9.636   1.502  0.00  0.00    +0.001 A 
ATOM      8  C   UNL     1      -0.495   8.498   0.789  0.00  0.00    +0.011 A 
ENDBRANCH   1   4
BRANCH   1   9
ATOM      9  C   UNL     1       3.954  10.130   0.468  0.00  0.00    +0.004 A 
ATOM     10  C   UNL     1       3.557  10.993  -0.539  0.00  0.00    -0.002 A 
ATOM     11  C   UNL     1       4.002  12.301  -0.623  0.00  0.00    -0.000 A 
ATOM     12  C   UNL     1       4.504  12.850   0.547  0.00  0.00    -0.000 A 
ATOM     13  C   UNL     1       4.754  12.054   1.655  0.00  0.00    -0.000 A 
ATOM     14  C   UNL     1       4.781  10.686   1.437  0.00  0.00    -0.002 A 
ENDBRANCH   1   9
BRANCH   1  15
ATOM     15  C   UNL     1       3.429   7.997  -0.581  0.00  0.00    +0.004 A 
ATOM     16  C   UNL     1       3.624   8.592  -1.821  0.00  0.00    -0.002 A 
ATOM     17  C   UNL     1       3.951   7.852  -2.945  0.00  0.00    -0.000 A 
ATOM     18  C   UNL     1       4.184   6.497  -2.741  0.00  0.00    -0.000 A 
ATOM     19  C   UNL     1       4.368   6.008  -1.475  0.00  0.00    -0.000 A 
ATOM     20  C   UNL     1       4.129   6.810  -0.392  0.00  0.00    -0.002 A 
ENDBRANCH   1  15
BRANCH   1  21
ATOM     21  N   UNL     1       3.909   8.072   1.714  0.00  0.00    -0.301 N 
ATOM     22  C   UNL     1       3.336   7.613   2.843  0.00  0.00    +0.179 A 
ATOM     23  N   UNL     1       4.336   7.485   3.750  0.00  0.00    -0.222 NA
ATOM     24  C   UNL     1       5.496   7.482   3.062  0.00  0.00    +0.119 A 
ATOM     25  C   UNL     1       5.142   7.517   1.719  0.00  0.00    +0.099 A 
ENDBRANCH   1  21
TORSDOF 4
ENDMDL
MODEL 9
REMARK VINA RESULT:      -5.1     14.366     17.403
REMARK  Name = 
REMARK  4 active torsions:
REMARK  status: ('A' for Active; 'I' for Inactive)
REMARK    1  A    between atoms: C_7  and  C_8
REMARK    2  A    between atoms: C_8  and  C_9
REMARK    3  A    between atoms: C_8  and  C_15
REMARK    4  A    between atoms: C_8  and  N_21
REMARK                            x       y       z     vdW  Elec       q    Type
REMARK                         _______ _______ _______ _____ _____    ______ ____
ROOT
ATOM      1  C   UNL     1       6.621  14.963  -0.991  0.00  0.00    +0.128 C 
ENDROOT
BRANCH   1   4
ATOM      2 CL   UNL     1       8.596  17.237  -1.592  0.00  0.00    -0.082 Cl
ATOM      3  C   UNL     1       9.006  15.531  -1.463  0.00  0.00    +0.056 A 
ATOM      4  C   UNL     1       8.056  14.632  -1.032  0.00  0.00    +0.015 A 
ATOM      5  C   UNL     1       8.541  13.515  -0.360  0.00  0.00    -0.001 A 
ATOM      6  C   UNL     1       9.871  13.162  -0.457  0.00  0.00    -0.000 A 
ATOM      7  C   UNL     1      10.756  13.896  -1.233  0.00  0.00    +0.001 A 
ATOM      8  C   UNL     1      10.339  15.168  -1.607  0.00  0.00    +0.011 A 
ENDBRANCH   1   4
BRANCH   1   9
ATOM      9  C   UNL     1       6.364  15.952   0.080  0.00  0.00    +0.004 A 
ATOM     10  C   UNL     1       5.124  16.557   0.180  0.00  0.00    -0.002 A 
ATOM     11  C   UNL     1       4.746  17.312   1.277  0.00  0.00    -0.000 A 
ATOM     12  C   UNL     1       5.462  17.092   2.444  0.00  0.00    -0.000 A 
ATOM     13  C   UNL     1       6.625  16.336   2.432  0.00  0.00    -0.000 A 
ATOM     14  C   UNL     1       7.189  16.094   1.190  0.00  0.00    -0.002 A 
ENDBRANCH   1   9
BRANCH   1  15
ATOM     15  C   UNL     1       5.765  13.754  -0.778  0.00  0.00    +0.004 A 
ATOM     16  C   UNL     1       5.664  13.172   0.479  0.00  0.00    -0.002 A 
ATOM     17  C   UNL     1       4.754  12.163   0.748  0.00  0.00    -0.000 A 
ATOM     18  C   UNL     1       3.872  11.843  -0.277  0.00  0.00    -0.000 A 
ATOM     19  C   UNL     1       3.729  12.677  -1.354  0.00  0.00    -0.000 A 
ATOM     20  C   UNL     1       4.593  13.726  -1.525  0.00  0.00    -0.002 A 
ENDBRANCH   1  15
BRANCH   1  21
ATOM     21  N   UNL     1       6.193  15.505  -2.279  0.00  0.00    -0.301 N 
ATOM     22  C   UNL     1       6.292  14.907  -3.482  0.00  0.00    +0.179 A 
ATOM     23  N   UNL     1       6.320  15.905  -4.400  0.00  0.00    -0.222 NA
ATOM     24  C   UNL     1       5.852  17.014  -3.792  0.00  0.00    +0.119 A 
ATOM     25  C   UNL     1       5.461  16.615  -2.520  0.00  0.00    +0.099 A 
ENDBRANCH   1  21
TORSDOF 4
ENDMDL
