MODEL 1
REMARK VINA RESULT:      -7.9      0.000      0.000
REMARK  Name = 
REMARK  11 active torsions:
REMARK  status: ('A' for Active; 'I' for Inactive)
REMARK    1  A    between atoms: C_2  and  C_4
REMARK    2  A    between atoms: C_4  and  O_6
REMARK    3  A    between atoms: O_6  and  C_7
REMARK    4  A    between atoms: C_10  and  C_11
REMARK    5  A    between atoms: C_14  and  C_15
REMARK    6  A    between atoms: C_15  and  C_16
REMARK    7  A    between atoms: C_15  and  C_25
REMARK    8  A    between atoms: C_16  and  C_17
REMARK    9  A    between atoms: C_17  and  N_18
REMARK   10  A    between atoms: N_18  and  C_19
REMARK   11  A    between atoms: N_18  and  C_22
REMARK                            x       y       z     vdW  Elec       q    Type
REMARK                         _______ _______ _______ _____ _____    ______ ____
ROOT
ATOM      1  C   UNL     1       3.050   4.798  -6.590  0.00  0.00    +0.049 C 
ENDROOT
BRANCH   1   3
ATOM      2  C   UNL     1       2.837   5.708  -8.974  0.00  0.00    +0.145 A 
ATOM      3  C   UNL     1       3.665   5.201  -8.040  0.00  0.00    +0.016 A 
ATOM      4  C   UNL     1       5.039   5.414  -8.013  0.00  0.00    -0.003 A 
ATOM      5  C   UNL     1       5.641   5.774  -9.211  0.00  0.00    +0.010 A 
ATOM      6  C   UNL     1       4.845   6.436 -10.137  0.00  0.00    +0.001 A 
ATOM      7  C   UNL     1       3.462   6.358 -10.036  0.00  0.00    +0.037 A 
BRANCH   5   8
ATOM      8  C   UNL     1       7.116   5.705  -9.406  0.00  0.00    +0.209 C 
ATOM      9  O   UNL     1       7.499   6.657 -10.364  0.00  0.00    -0.215 OA
ENDBRANCH   5   8
BRANCH   2  10
ATOM     10  O   UNL     1       1.683   4.935  -9.164  0.00  0.00    -0.424 OA
BRANCH  10  11
ATOM     11  C   UNL     1       0.552   5.491  -9.780  0.00  0.00    +0.321 C 
ATOM     12  O   UNL     1      -0.427   5.592  -8.979  0.00  0.00    -0.250 OA
BRANCH  11  14
ATOM     13  C   UNL     1      -0.414   7.032 -11.418  0.00  0.00    +0.012 C 
ATOM     14  C   UNL     1       0.547   6.023 -11.156  0.00  0.00    +0.099 C 
ATOM     15  C   UNL     1       0.303   4.820 -12.062  0.00  0.00    +0.012 C 
ENDBRANCH  11  14
ENDBRANCH  10  11
ENDBRANCH   2  10
ENDBRANCH   1   3
BRANCH   1  16
ATOM     16  C   UNL     1       4.337   5.395  -5.778  0.00  0.00    -0.018 A 
ATOM     17  C   UNL     1       4.177   6.774  -5.707  0.00  0.00    -0.004 A 
ATOM     18  C   UNL     1       4.292   7.480  -4.515  0.00  0.00    -0.000 A 
ATOM     19  C   UNL     1       4.871   6.855  -3.441  0.00  0.00    -0.000 A 
ATOM     20  C   UNL     1       4.910   5.486  -3.457  0.00  0.00    -0.000 A 
ATOM     21  C   UNL     1       4.537   4.747  -4.565  0.00  0.00    -0.004 A 
ENDBRANCH   1  16
BRANCH   1  22
ATOM     22  C   UNL     1       2.194   6.205  -6.368  0.00  0.00    +0.026 C 
BRANCH  22  23
ATOM     23  C   UNL     1       0.801   5.737  -6.014  0.00  0.00    +0.073 C 
BRANCH  23  24
ATOM     24  N   UNL     1       0.410   6.424  -4.787  0.00  0.00    -0.275 NA
BRANCH  24  25
ATOM     25  C   UNL     1      -1.020   6.611  -4.733  0.00  0.00    +0.058 C 
ATOM     26  C   UNL     1      -1.376   8.085  -4.653  0.00  0.00    +0.017 C 
ATOM     27  C   UNL     1      -1.726   5.944  -5.880  0.00  0.00    +0.017 C 
ENDBRANCH  24  25
BRANCH  24  28
ATOM     28  C   UNL     1       0.908   5.700  -3.628  0.00  0.00    +0.058 C 
ATOM     29  C   UNL     1       1.504   6.719  -2.663  0.00  0.00    +0.017 C 
ATOM     30  C   UNL     1      -0.223   5.032  -2.858  0.00  0.00    +0.017 C 
ENDBRANCH  24  28
ENDBRANCH  23  24
ENDBRANCH  22  23
ENDBRANCH   1  22
TORSDOF 11
ENDMDL
MODEL 2
REMARK VINA RESULT:      -7.8      3.644      6.101
REMARK  Name = 
REMARK  11 active torsions:
REMARK  status: ('A' for Active; 'I' for Inactive)
REMARK    1  A    between atoms: C_2  and  C_4
REMARK    2  A    between atoms: C_4  and  O_6
REMARK    3  A    between atoms: O_6  and  C_7
REMARK    4  A    between atoms: C_10  and  C_11
REMARK    5  A    between atoms: C_14  and  C_15
REMARK    6  A    between atoms: C_15  and  C_16
REMARK    7  A    between atoms: C_15  and  C_25
REMARK    8  A    between atoms: C_16  and  C_17
REMARK    9  A    between atoms: C_17  and  N_18
REMARK   10  A    between atoms: N_18  and  C_19
REMARK   11  A    between atoms: N_18  and  C_22
REMARK                            x       y       z     vdW  Elec       q    Type
REMARK                         _______ _______ _______ _____ _____    ______ ____
ROOT
ATOM      1  C   UNL     1       4.977   5.300 -12.535  0.00  0.00    +0.049 C 
ENDROOT
BRANCH   1   3
ATOM      2  C   UNL     1       3.445   6.051 -14.443  0.00  0.00    +0.145 A 
ATOM      3  C   UNL     1       4.715   5.920 -14.015  0.00  0.00    +0.016 A 
ATOM      4  C   UNL     1       5.785   6.670 -14.493  0.00  0.00    -0.003 A 
ATOM      5  C   UNL     1       5.635   7.244 -15.747  0.00  0.00    +0.010 A 
ATOM      6  C   UNL     1       4.339   7.530 -16.154  0.00  0.00    +0.001 A 
ATOM      7  C   UNL     1       3.268   6.900 -15.534  0.00  0.00    +0.037 A 
BRANCH   5   8
ATOM      8  C   UNL     1       6.795   7.777 -16.514  0.00  0.00    +0.209 C 
ATOM      9  O   UNL     1       6.570   9.131 -16.810  0.00  0.00    -0.215 OA
ENDBRANCH   5   8
BRANCH   2  10
ATOM     10  O   UNL     1       2.691   4.878 -14.298  0.00  0.00    -0.424 OA
BRANCH  10  11
ATOM     11  C   UNL     1       1.339   4.946 -13.931  0.00  0.00    +0.321 C 
ATOM     12  O   UNL     1       0.584   4.384 -14.781  0.00  0.00    -0.250 OA
BRANCH  11  14
ATOM     13  C   UNL     1      -0.096   4.694 -11.964  0.00  0.00    +0.012 C 
ATOM     14  C   UNL     1       0.867   5.485 -12.641  0.00  0.00    +0.099 C 
ATOM     15  C   UNL     1       0.288   6.860 -12.955  0.00  0.00    +0.012 C 
ENDBRANCH  11  14
ENDBRANCH  10  11
ENDBRANCH   2  10
ENDBRANCH   1   3
BRANCH   1  16
ATOM     16  C   UNL     1       6.448   6.002 -12.403  0.00  0.00    -0.018 A 
ATOM     17  C   UNL     1       6.267   7.222 -11.760  0.00  0.00    -0.004 A 
ATOM     18  C   UNL     1       7.030   7.610 -10.664  0.00  0.00    -0.000 A 
ATOM     19  C   UNL     1       8.182   6.918 -10.395  0.00  0.00    -0.000 A 
ATOM     20  C   UNL     1       8.299   5.661 -10.925  0.00  0.00    -0.000 A 
ATOM     21  C   UNL     1       7.385   5.151 -11.830  0.00  0.00    -0.004 A 
ENDBRANCH   1  16
BRANCH   1  22
ATOM     22  C   UNL     1       4.255   6.540 -11.697  0.00  0.00    +0.026 C 
BRANCH  22  23
ATOM     23  C   UNL     1       3.427   5.841 -10.643  0.00  0.00    +0.073 C 
BRANCH  23  24
ATOM     24  N   UNL     1       3.806   6.401  -9.349  0.00  0.00    -0.275 NA
BRANCH  24  25
ATOM     25  C   UNL     1       2.756   7.237  -8.822  0.00  0.00    +0.058 C 
ATOM     26  C   UNL     1       1.396   6.802  -9.342  0.00  0.00    +0.017 C 
ATOM     27  C   UNL     1       2.768   7.290  -7.320  0.00  0.00    +0.017 C 
ENDBRANCH  24  25
BRANCH  24  28
ATOM     28  C   UNL     1       4.166   5.333  -8.429  0.00  0.00    +0.058 C 
ATOM     29  C   UNL     1       3.598   4.031  -8.980  0.00  0.00    +0.017 C 
ATOM     30  C   UNL     1       5.674   5.125  -8.381  0.00  0.00    +0.017 C 
ENDBRANCH  24  28
ENDBRANCH  23  24
ENDBRANCH  22  23
ENDBRANCH   1  22
TORSDOF 11
ENDMDL
MODEL 3
REMARK VINA RESULT:      -7.8      2.393      5.125
REMARK  Name = 
REMARK  11 active torsions:
REMARK  status: ('A' for Active; 'I' for Inactive)
REMARK    1  A    between atoms: C_2  and  C_4
REMARK    2  A    between atoms: C_4  and  O_6
REMARK    3  A    between atoms: O_6  and  C_7
REMARK    4  A    between atoms: C_10  and  C_11
REMARK    5  A    between atoms: C_14  and  C_15
REMARK    6  A    between atoms: C_15  and  C_16
REMARK    7  A    between atoms: C_15  and  C_25
REMARK    8  A    between atoms: C_16  and  C_17
REMARK    9  A    between atoms: C_17  and  N_18
REMARK   10  A    between atoms: N_18  and  C_19
REMARK   11  A    between atoms: N_18  and  C_22
REMARK                            x       y       z     vdW  Elec       q    Type
REMARK                         _______ _______ _______ _____ _____    ______ ____
ROOT
ATOM      1  C   UNL     1       1.630   4.993  -3.998  0.00  0.00    +0.049 C 
ENDROOT
BRANCH   1   3
ATOM      2  C   UNL     1       0.294   4.740  -6.167  0.00  0.00    +0.145 A 
ATOM      3  C   UNL     1       0.483   5.467  -5.049  0.00  0.00    +0.016 A 
ATOM      4  C   UNL     1      -0.482   6.287  -4.475  0.00  0.00    -0.003 A 
ATOM      5  C   UNL     1      -1.505   6.726  -5.304  0.00  0.00    +0.010 A 
ATOM      6  C   UNL     1      -1.823   5.916  -6.386  0.00  0.00    +0.001 A 
ATOM      7  C   UNL     1      -0.909   4.971  -6.832  0.00  0.00    +0.037 A 
BRANCH   5   8
ATOM      8  C   UNL     1      -2.398   7.856  -4.926  0.00  0.00    +0.209 C 
ATOM      9  O   UNL     1      -1.970   8.392  -3.701  0.00  0.00    -0.215 OA
ENDBRANCH   5   8
BRANCH   2  10
ATOM     10  O   UNL     1       1.481   4.488  -6.867  0.00  0.00    -0.424 OA
BRANCH  10  11
ATOM     11  C   UNL     1       1.693   5.059  -8.131  0.00  0.00    +0.321 C 
ATOM     12  O   UNL     1       2.027   4.194  -8.997  0.00  0.00    -0.250 OA
BRANCH  11  14
ATOM     13  C   UNL     1       1.002   6.737  -9.773  0.00  0.00    +0.012 C 
ATOM     14  C   UNL     1       1.423   6.475  -8.445  0.00  0.00    +0.099 C 
ATOM     15  C   UNL     1       2.723   7.218  -8.151  0.00  0.00    +0.012 C 
ENDBRANCH  11  14
ENDBRANCH  10  11
ENDBRANCH   2  10
ENDBRANCH   1   3
BRANCH   1  16
ATOM     16  C   UNL     1       2.828   5.722  -4.838  0.00  0.00    -0.018 A 
ATOM     17  C   UNL     1       2.848   7.059  -4.453  0.00  0.00    -0.004 A 
ATOM     18  C   UNL     1       4.013   7.706  -4.059  0.00  0.00    -0.000 A 
ATOM     19  C   UNL     1       5.216   7.112  -4.342  0.00  0.00    -0.000 A 
ATOM     20  C   UNL     1       5.208   5.766  -4.593  0.00  0.00    -0.000 A 
ATOM     21  C   UNL     1       4.035   5.044  -4.725  0.00  0.00    -0.004 A 
ENDBRANCH   1  16
BRANCH   1  22
ATOM     22  C   UNL     1       1.482   6.298  -2.979  0.00  0.00    +0.026 C 
BRANCH  22  23
ATOM     23  C   UNL     1       1.695   5.716  -1.601  0.00  0.00    +0.073 C 
BRANCH  23  24
ATOM     24  N   UNL     1       2.338   6.745  -0.789  0.00  0.00    -0.275 NA
BRANCH  24  25
ATOM     25  C   UNL     1       1.478   7.164   0.291  0.00  0.00    +0.058 C 
ATOM     26  C   UNL     1       1.592   8.659   0.532  0.00  0.00    +0.017 C 
ATOM     27  C   UNL     1       0.048   6.758   0.071  0.00  0.00    +0.017 C 
ENDBRANCH  24  25
BRANCH  24  28
ATOM     28  C   UNL     1       3.626   6.268  -0.307  0.00  0.00    +0.058 C 
ATOM     29  C   UNL     1       3.939   4.963  -1.028  0.00  0.00    +0.017 C 
ATOM     30  C   UNL     1       4.752   7.219  -0.690  0.00  0.00    +0.017 C 
ENDBRANCH  24  28
ENDBRANCH  23  24
ENDBRANCH  22  23
ENDBRANCH   1  22
TORSDOF 11
ENDMDL
MODEL 4
REMARK VINA RESULT:      -7.6      2.383      7.322
REMARK  Name = 
REMARK  11 active torsions:
REMARK  status: ('A' for Active; 'I' for Inactive)
REMARK    1  A    between atoms: C_2  and  C_4
REMARK    2  A    between atoms: C_4  and  O_6
REMARK    3  A    between atoms: O_6  and  C_7
REMARK    4  A    between atoms: C_10  and  C_11
REMARK    5  A    between atoms: C_14  and  C_15
REMARK    6  A    between atoms: C_15  and  C_16
REMARK    7  A    between atoms: C_15  and  C_25
REMARK    8  A    between atoms: C_16  and  C_17
REMARK    9  A    between atoms: C_17  and  N_18
REMARK   10  A    between atoms: N_18  and  C_19
REMARK   11  A    between atoms: N_18  and  C_22
REMARK                            x       y       z     vdW  Elec       q    Type
REMARK                         _______ _______ _______ _____ _____    ______ ____
ROOT
ATOM      1  C   UNL     1       1.848   5.287  -8.417  0.00  0.00    +0.049 C 
ENDROOT
BRANCH   1   3
ATOM      2  C   UNL     1       1.541   6.307  -6.089  0.00  0.00    +0.145 A 
ATOM      3  C   UNL     1       0.970   5.603  -7.086  0.00  0.00    +0.016 A 
ATOM      4  C   UNL     1      -0.401   5.520  -7.301  0.00  0.00    -0.003 A 
ATOM      5  C   UNL     1      -1.223   5.788  -6.215  0.00  0.00    +0.010 A 
ATOM      6  C   UNL     1      -0.714   6.636  -5.240  0.00  0.00    +0.001 A 
ATOM      7  C   UNL     1       0.656   6.849  -5.159  0.00  0.00    +0.037 A 
BRANCH   5   8
ATOM      8  C   UNL     1      -2.665   5.416  -6.205  0.00  0.00    +0.209 C 
ATOM      9  O   UNL     1      -3.091   5.260  -4.876  0.00  0.00    -0.215 OA
ENDBRANCH   5   8
BRANCH   2  10
ATOM     10  O   UNL     1       2.791   5.803  -5.705  0.00  0.00    -0.424 OA
BRANCH  10  11
ATOM     11  C   UNL     1       3.340   6.144  -4.460  0.00  0.00    +0.321 C 
ATOM     12  O   UNL     1       3.262   5.192  -3.625  0.00  0.00    -0.250 OA
BRANCH  11  14
ATOM     13  C   UNL     1       5.464   7.339  -4.232  0.00  0.00    +0.012 C 
ATOM     14  C   UNL     1       4.048   7.412  -4.198  0.00  0.00    +0.099 C 
ATOM     15  C   UNL     1       3.581   7.869  -2.820  0.00  0.00    +0.012 C 
ENDBRANCH  11  14
ENDBRANCH  10  11
ENDBRANCH   2  10
ENDBRANCH   1   3
BRANCH   1  16
ATOM     16  C   UNL     1       0.551   5.393  -9.407  0.00  0.00    -0.018 A 
ATOM     17  C   UNL     1       0.517   6.691  -9.905  0.00  0.00    -0.004 A 
ATOM     18  C   UNL     1       0.389   6.968 -11.262  0.00  0.00    -0.000 A 
ATOM     19  C   UNL     1      -0.016   5.960 -12.097  0.00  0.00    -0.000 A 
ATOM     20  C   UNL     1       0.141   4.674 -11.652  0.00  0.00    -0.000 A 
ATOM     21  C   UNL     1       0.534   4.381 -10.358  0.00  0.00    -0.004 A 
ENDBRANCH   1  16
BRANCH   1  22
ATOM     22  C   UNL     1       2.274   6.864  -8.724  0.00  0.00    +0.026 C 
BRANCH  22  23
ATOM     23  C   UNL     1       3.785   6.847  -8.715  0.00  0.00    +0.073 C 
BRANCH  23  24
ATOM     24  N   UNL     1       4.212   5.702  -9.514  0.00  0.00    -0.275 NA
BRANCH  24  25
ATOM     25  C   UNL     1       4.683   6.124 -10.810  0.00  0.00    +0.058 C 
ATOM     26  C   UNL     1       3.710   5.721 -11.904  0.00  0.00    +0.017 C 
ATOM     27  C   UNL     1       4.973   7.598 -10.860  0.00  0.00    +0.017 C 
ENDBRANCH  24  25
BRANCH  24  28
ATOM     28  C   UNL     1       5.216   4.935  -8.792  0.00  0.00    +0.058 C 
ATOM     29  C   UNL     1       6.584   5.327  -9.339  0.00  0.00    +0.017 C 
ATOM     30  C   UNL     1       5.251   5.311  -7.317  0.00  0.00    +0.017 C 
ENDBRANCH  24  28
ENDBRANCH  23  24
ENDBRANCH  22  23
ENDBRANCH   1  22
TORSDOF 11
ENDMDL
MODEL 5
REMARK VINA RESULT:      -7.6      2.263      7.612
REMARK  Name = 
REMARK  11 active torsions:
REMARK  status: ('A' for Active; 'I' for Inactive)
REMARK    1  A    between atoms: C_2  and  C_4
REMARK    2  A    between atoms: C_4  and  O_6
REMARK    3  A    between atoms: O_6  and  C_7
REMARK    4  A    between atoms: C_10  and  C_11
REMARK    5  A    between atoms: C_14  and  C_15
REMARK    6  A    between atoms: C_15  and  C_16
REMARK    7  A    between atoms: C_15  and  C_25
REMARK    8  A    between atoms: C_16  and  C_17
REMARK    9  A    between atoms: C_17  and  N_18
REMARK   10  A    between atoms: N_18  and  C_19
REMARK   11  A    between atoms: N_18  and  C_22
REMARK                            x       y       z     vdW  Elec       q    Type
REMARK                         _______ _______ _______ _____ _____    ______ ____
ROOT
ATOM      1  C   UNL     1       1.782   4.587  -8.633  0.00  0.00    +0.049 C 
ENDROOT
BRANCH   1   3
ATOM      2  C   UNL     1       2.094   5.823  -6.413  0.00  0.00    +0.145 A 
ATOM      3  C   UNL     1       1.224   5.208  -7.238  0.00  0.00    +0.016 A 
ATOM      4  C   UNL     1      -0.145   5.449  -7.253  0.00  0.00    -0.003 A 
ATOM      5  C   UNL     1      -0.698   5.992  -6.101  0.00  0.00    +0.010 A 
ATOM      6  C   UNL     1       0.142   6.759  -5.305  0.00  0.00    +0.001 A 
ATOM      7  C   UNL     1       1.518   6.634  -5.436  0.00  0.00    +0.037 A 
BRANCH   5   8
ATOM      8  C   UNL     1      -2.167   5.987  -5.853  0.00  0.00    +0.209 C 
ATOM      9  O   UNL     1      -2.573   7.275  -5.469  0.00  0.00    -0.215 OA
ENDBRANCH   5   8
BRANCH   2  10
ATOM     10  O   UNL     1       3.238   5.057  -6.149  0.00  0.00    -0.424 OA
BRANCH  10  11
ATOM     11  C   UNL     1       4.398   5.666  -5.649  0.00  0.00    +0.321 C 
ATOM     12  O   UNL     1       4.928   6.452  -6.493  0.00  0.00    -0.250 OA
BRANCH  11  14
ATOM     13  C   UNL     1       3.967   4.865  -3.377  0.00  0.00    +0.012 C 
ATOM     14  C   UNL     1       4.867   5.516  -4.258  0.00  0.00    +0.099 C 
ATOM     15  C   UNL     1       5.151   6.931  -3.763  0.00  0.00    +0.012 C 
ENDBRANCH  11  14
ENDBRANCH  10  11
ENDBRANCH   2  10
ENDBRANCH   1   3
BRANCH   1  16
ATOM     16  C   UNL     1       0.462   5.059  -9.474  0.00  0.00    -0.018 A 
ATOM     17  C   UNL     1       0.566   6.433  -9.670  0.00  0.00    -0.004 A 
ATOM     18  C   UNL     1       0.409   7.024 -10.918  0.00  0.00    -0.000 A 
ATOM     19  C   UNL     1      -0.158   6.285 -11.923  0.00  0.00    -0.000 A 
ATOM     20  C   UNL     1      -0.142   4.922 -11.786  0.00  0.00    -0.000 A 
ATOM     21  C   UNL     1       0.272   4.299 -10.622  0.00  0.00    -0.004 A 
ENDBRANCH   1  16
BRANCH   1  22
ATOM     22  C   UNL     1       2.626   5.939  -9.101  0.00  0.00    +0.026 C 
BRANCH  22  23
ATOM     23  C   UNL     1       3.935   5.395  -9.625  0.00  0.00    +0.073 C 
BRANCH  23  24
ATOM     24  N   UNL     1       4.274   6.157 -10.823  0.00  0.00    -0.275 NA
BRANCH  24  25
ATOM     25  C   UNL     1       5.690   6.431 -10.877  0.00  0.00    +0.058 C 
ATOM     26  C   UNL     1       5.953   7.914 -11.077  0.00  0.00    +0.017 C 
ATOM     27  C   UNL     1       6.418   5.910  -9.670  0.00  0.00    +0.017 C 
ENDBRANCH  24  25
BRANCH  24  28
ATOM     28  C   UNL     1       3.810   5.456 -12.011  0.00  0.00    +0.058 C 
ATOM     29  C   UNL     1       3.084   6.464 -12.893  0.00  0.00    +0.017 C 
ATOM     30  C   UNL     1       4.974   4.952 -12.852  0.00  0.00    +0.017 C 
ENDBRANCH  24  28
ENDBRANCH  23  24
ENDBRANCH  22  23
ENDBRANCH   1  22
TORSDOF 11
ENDMDL
MODEL 6
REMARK VINA RESULT:      -7.6      2.755      7.077
REMARK  Name = 
REMARK  11 active torsions:
REMARK  status: ('A' for Active; 'I' for Inactive)
REMARK    1  A    between atoms: C_2  and  C_4
REMARK    2  A    between atoms: C_4  and  O_6
REMARK    3  A    between atoms: O_6  and  C_7
REMARK    4  A    between atoms: C_10  and  C_11
REMARK    5  A    between atoms: C_14  and  C_15
REMARK    6  A    between atoms: C_15  and  C_16
REMARK    7  A    between atoms: C_15  and  C_25
REMARK    8  A    between atoms: C_16  and  C_17
REMARK    9  A    between atoms: C_17  and  N_18
REMARK   10  A    between atoms: N_18  and  C_19
REMARK   11  A    between atoms: N_18  and  C_22
REMARK                            x       y       z     vdW  Elec       q    Type
REMARK                         _______ _______ _______ _____ _____    ______ ____
ROOT
ATOM      1  C   UNL     1       0.673   4.880  -5.470  0.00  0.00    +0.049 C 
ENDROOT
BRANCH   1   3
ATOM      2  C   UNL     1       0.558   5.087  -2.921  0.00  0.00    +0.145 A 
ATOM      3  C   UNL     1       1.083   5.578  -4.060  0.00  0.00    +0.016 A 
ATOM      4  C   UNL     1       2.272   6.296  -4.129  0.00  0.00    -0.003 A 
ATOM      5  C   UNL     1       2.699   6.914  -2.962  0.00  0.00    +0.010 A 
ATOM      6  C   UNL     1       2.294   6.338  -1.765  0.00  0.00    +0.001 A 
ATOM      7  C   UNL     1       1.207   5.474  -1.750  0.00  0.00    +0.037 A 
BRANCH   5   8
ATOM      8  C   UNL     1       3.748   7.971  -2.967  0.00  0.00    +0.209 C 
ATOM      9  O   UNL     1       4.991   7.386  -3.253  0.00  0.00    -0.215 OA
ENDBRANCH   5   8
BRANCH   2  10
ATOM     10  O   UNL     1      -0.836   4.946  -2.974  0.00  0.00    -0.424 OA
BRANCH  10  11
ATOM     11  C   UNL     1      -1.644   5.521  -1.983  0.00  0.00    +0.321 C 
ATOM     12  O   UNL     1      -2.746   4.908  -1.848  0.00  0.00    -0.250 OA
BRANCH  11  14
ATOM     13  C   UNL     1      -1.395   6.414   0.283  0.00  0.00    +0.012 C 
ATOM     14  C   UNL     1      -1.204   6.624  -1.107  0.00  0.00    +0.099 C 
ATOM     15  C   UNL     1      -1.988   7.851  -1.563  0.00  0.00    +0.012 C 
ENDBRANCH  11  14
ENDBRANCH  10  11
ENDBRANCH   2  10
ENDBRANCH   1   3
BRANCH   1  16
ATOM     16  C   UNL     1      -0.212   6.167  -5.953  0.00  0.00    -0.018 A 
ATOM     17  C   UNL     1      -1.470   5.693  -6.310  0.00  0.00    -0.004 A 
ATOM     18  C   UNL     1      -2.646   6.258  -5.831  0.00  0.00    -0.000 A 
ATOM     19  C   UNL     1      -2.581   7.492  -5.238  0.00  0.00    -0.000 A 
ATOM     20  C   UNL     1      -1.361   7.901  -4.770  0.00  0.00    -0.000 A 
ATOM     21  C   UNL     1      -0.198   7.193  -5.016  0.00  0.00    -0.004 A 
ENDBRANCH   1  16
BRANCH   1  22
ATOM     22  C   UNL     1       1.999   5.410  -6.319  0.00  0.00    +0.026 C 
BRANCH  22  23
ATOM     23  C   UNL     1       1.946   4.630  -7.613  0.00  0.00    +0.073 C 
BRANCH  23  24
ATOM     24  N   UNL     1       1.922   5.599  -8.705  0.00  0.00    -0.275 NA
BRANCH  24  25
ATOM     25  C   UNL     1       3.057   5.420  -9.578  0.00  0.00    +0.058 C 
ATOM     26  C   UNL     1       3.845   6.711  -9.720  0.00  0.00    +0.017 C 
ATOM     27  C   UNL     1       3.944   4.290  -9.138  0.00  0.00    +0.017 C 
ENDBRANCH  24  25
BRANCH  24  28
ATOM     28  C   UNL     1       0.661   5.510  -9.425  0.00  0.00    +0.058 C 
ATOM     29  C   UNL     1       0.490   6.795 -10.226  0.00  0.00    +0.017 C 
ATOM     30  C   UNL     1       0.687   4.393 -10.460  0.00  0.00    +0.017 C 
ENDBRANCH  24  28
ENDBRANCH  23  24
ENDBRANCH  22  23
ENDBRANCH   1  22
TORSDOF 11
ENDMDL
MODEL 7
REMARK VINA RESULT:      -7.5      3.907      8.621
REMARK  Name = 
REMARK  11 active torsions:
REMARK  status: ('A' for Active; 'I' for Inactive)
REMARK    1  A    between atoms: C_2  and  C_4
REMARK    2  A    between atoms: C_4  and  O_6
REMARK    3  A    between atoms: O_6  and  C_7
REMARK    4  A    between atoms: C_10  and  C_11
REMARK    5  A    between atoms: C_14  and  C_15
REMARK    6  A    between atoms: C_15  and  C_16
REMARK    7  A    between atoms: C_15  and  C_25
REMARK    8  A    between atoms: C_16  and  C_17
REMARK    9  A    between atoms: C_17  and  N_18
REMARK   10  A    between atoms: N_18  and  C_19
REMARK   11  A    between atoms: N_18  and  C_22
REMARK                            x       y       z     vdW  Elec       q    Type
REMARK                         _______ _______ _______ _____ _____    ______ ____
ROOT
ATOM      1  C   UNL     1       0.097   5.378  -2.534  0.00  0.00    +0.049 C 
ENDROOT
BRANCH   1   3
ATOM      2  C   UNL     1       1.330   6.367  -0.520  0.00  0.00    +0.145 A 
ATOM      3  C   UNL     1       0.138   6.015  -1.038  0.00  0.00    +0.016 A 
ATOM      4  C   UNL     1      -1.081   6.553  -0.638  0.00  0.00    -0.003 A 
ATOM      5  C   UNL     1      -1.127   7.127   0.625  0.00  0.00    +0.010 A 
ATOM      6  C   UNL     1       0.065   7.636   1.124  0.00  0.00    +0.001 A 
ATOM      7  C   UNL     1       1.273   7.218   0.582  0.00  0.00    +0.037 A 
BRANCH   5   8
ATOM      8  C   UNL     1      -2.415   7.431   1.307  0.00  0.00    +0.209 C 
ATOM      9  O   UNL     1      -2.571   6.568   2.403  0.00  0.00    -0.215 OA
ENDBRANCH   5   8
BRANCH   2  10
ATOM     10  O   UNL     1       2.292   5.351  -0.612  0.00  0.00    -0.424 OA
BRANCH  10  11
ATOM     11  C   UNL     1       3.654   5.672  -0.705  0.00  0.00    +0.321 C 
ATOM     12  O   UNL     1       4.386   4.637  -0.763  0.00  0.00    -0.250 OA
BRANCH  11  14
ATOM     13  C   UNL     1       4.842   7.318  -2.071  0.00  0.00    +0.012 C 
ATOM     14  C   UNL     1       4.162   7.049  -0.857  0.00  0.00    +0.099 C 
ATOM     15  C   UNL     1       5.095   7.277   0.328  0.00  0.00    +0.012 C 
ENDBRANCH  11  14
ENDBRANCH  10  11
ENDBRANCH   2  10
ENDBRANCH   1   3
BRANCH   1  16
ATOM     16  C   UNL     1      -1.294   6.147  -2.920  0.00  0.00    -0.018 A 
ATOM     17  C   UNL     1      -0.948   7.329  -3.566  0.00  0.00    -0.004 A 
ATOM     18  C   UNL     1      -1.507   7.708  -4.781  0.00  0.00    -0.000 A 
ATOM     19  C   UNL     1      -2.639   7.064  -5.206  0.00  0.00    -0.000 A 
ATOM     20  C   UNL     1      -2.907   5.837  -4.660  0.00  0.00    -0.000 A 
ATOM     21  C   UNL     1      -2.176   5.320  -3.605  0.00  0.00    -0.004 A 
ENDBRANCH   1  16
BRANCH   1  22
ATOM     22  C   UNL     1       1.011   6.566  -3.253  0.00  0.00    +0.026 C 
BRANCH  22  23
ATOM     23  C   UNL     1       2.027   5.805  -4.072  0.00  0.00    +0.073 C 
BRANCH  23  24
ATOM     24  N   UNL     1       1.597   5.867  -5.466  0.00  0.00    -0.275 NA
BRANCH  24  25
ATOM     25  C   UNL     1       2.678   6.292  -6.321  0.00  0.00    +0.058 C 
ATOM     26  C   UNL     1       2.238   7.419  -7.240  0.00  0.00    +0.017 C 
ATOM     27  C   UNL     1       3.905   6.677  -5.543  0.00  0.00    +0.017 C 
ENDBRANCH  24  25
BRANCH  24  28
ATOM     28  C   UNL     1       1.049   4.584  -5.878  0.00  0.00    +0.058 C 
ATOM     29  C   UNL     1      -0.128   4.857  -6.807  0.00  0.00    +0.017 C 
ATOM     30  C   UNL     1       2.046   3.794  -6.715  0.00  0.00    +0.017 C 
ENDBRANCH  24  28
ENDBRANCH  23  24
ENDBRANCH  22  23
ENDBRANCH   1  22
TORSDOF 11
ENDMDL
MODEL 8
REMARK VINA RESULT:      -7.5      3.123      6.786
REMARK  Name = 
REMARK  11 active torsions:
REMARK  status: ('A' for Active; 'I' for Inactive)
REMARK    1  A    between atoms: C_2  and  C_4
REMARK    2  A    between atoms: C_4  and  O_6
REMARK    3  A    between atoms: O_6  and  C_7
REMARK    4  A    between atoms: C_10  and  C_11
REMARK    5  A    between atoms: C_14  and  C_15
REMARK    6  A    between atoms: C_15  and  C_16
REMARK    7  A    between atoms: C_15  and  C_25
REMARK    8  A    between atoms: C_16  and  C_17
REMARK    9  A    between atoms: C_17  and  N_18
REMARK   10  A    between atoms: N_18  and  C_19
REMARK   11  A    between atoms: N_18  and  C_22
REMARK                            x       y       z     vdW  Elec       q    Type
REMARK                         _______ _______ _______ _____ _____    ______ ____
ROOT
ATOM      1  C   UNL     1       1.769   6.499  -4.338  0.00  0.00    +0.049 C 
ENDROOT
BRANCH   1   3
ATOM      2  C   UNL     1       0.154   5.280  -2.768  0.00  0.00    +0.145 A 
ATOM      3  C   UNL     1       1.029   6.296  -2.904  0.00  0.00    +0.016 A 
ATOM      4  C   UNL     1       1.708   6.891  -1.847  0.00  0.00    -0.003 A 
ATOM      5  C   UNL     1       1.147   6.753  -0.585  0.00  0.00    +0.010 A 
ATOM      6  C   UNL     1       0.358   5.631  -0.371  0.00  0.00    +0.001 A 
ATOM      7  C   UNL     1      -0.164   4.939  -1.455  0.00  0.00    +0.037 A 
BRANCH   5   8
ATOM      8  C   UNL     1       1.569   7.603   0.563  0.00  0.00    +0.209 C 
ATOM      9  O   UNL     1       0.920   7.160   1.727  0.00  0.00    -0.215 OA
ENDBRANCH   5   8
BRANCH   2  10
ATOM     10  O   UNL     1      -0.806   5.240  -3.789  0.00  0.00    -0.424 OA
BRANCH  10  11
ATOM     11  C   UNL     1      -2.119   5.665  -3.543  0.00  0.00    +0.321 C 
ATOM     12  O   UNL     1      -2.853   4.724  -3.111  0.00  0.00    -0.250 OA
BRANCH  11  14
ATOM     13  C   UNL     1      -1.886   7.852  -4.616  0.00  0.00    +0.012 C 
ATOM     14  C   UNL     1      -2.557   7.071  -3.642  0.00  0.00    +0.099 C 
ATOM     15  C   UNL     1      -2.344   7.668  -2.254  0.00  0.00    +0.012 C 
ENDBRANCH  11  14
ENDBRANCH  10  11
ENDBRANCH   2  10
ENDBRANCH   1   3
BRANCH   1  16
ATOM     16  C   UNL     1       3.238   6.706  -3.651  0.00  0.00    -0.018 A 
ATOM     17  C   UNL     1       3.855   5.460  -3.610  0.00  0.00    -0.004 A 
ATOM     18  C   UNL     1       5.148   5.251  -4.075  0.00  0.00    -0.000 A 
ATOM     19  C   UNL     1       5.945   6.343  -4.298  0.00  0.00    -0.000 A 
ATOM     20  C   UNL     1       5.323   7.551  -4.468  0.00  0.00    -0.000 A 
ATOM     21  C   UNL     1       3.964   7.719  -4.265  0.00  0.00    -0.004 A 
ENDBRANCH   1  16
BRANCH   1  22
ATOM     22  C   UNL     1       2.068   4.886  -4.609  0.00  0.00    +0.026 C 
BRANCH  22  23
ATOM     23  C   UNL     1       1.616   4.661  -6.033  0.00  0.00    +0.073 C 
BRANCH  23  24
ATOM     24  N   UNL     1       2.484   5.456  -6.896  0.00  0.00    -0.275 NA
BRANCH  24  25
ATOM     25  C   UNL     1       3.528   4.642  -7.468  0.00  0.00    +0.058 C 
ATOM     26  C   UNL     1       3.039   3.920  -8.712  0.00  0.00    +0.017 C 
ATOM     27  C   UNL     1       4.775   5.432  -7.756  0.00  0.00    +0.017 C 
ENDBRANCH  24  25
BRANCH  24  28
ATOM     28  C   UNL     1       1.695   6.127  -7.918  0.00  0.00    +0.058 C 
ATOM     29  C   UNL     1       0.223   5.869  -7.616  0.00  0.00    +0.017 C 
ATOM     30  C   UNL     1       1.859   7.639  -7.847  0.00  0.00    +0.017 C 
ENDBRANCH  24  28
ENDBRANCH  23  24
ENDBRANCH  22  23
ENDBRANCH   1  22
TORSDOF 11
ENDMDL
MODEL 9
REMARK VINA RESULT:      -7.5      2.493      5.697
REMARK  Name = 
REMARK  11 active torsions:
REMARK  status: ('A' for Active; 'I' for Inactive)
REMARK    1  A    between atoms: C_2  and  C_4
REMARK    2  A    between atoms: C_4  and  O_6
REMARK    3  A    between atoms: O_6  and  C_7
REMARK    4  A    between atoms: C_10  and  C_11
REMARK    5  A    between atoms: C_14  and  C_15
REMARK    6  A    between atoms: C_15  and  C_16
REMARK    7  A    between atoms: C_15  and  C_25
REMARK    8  A    between atoms: C_16  and  C_17
REMARK    9  A    between atoms: C_17  and  N_18
REMARK   10  A    between atoms: N_18  and  C_19
REMARK   11  A    between atoms: N_18  and  C_22
REMARK                            x       y       z     vdW  Elec       q    Type
REMARK                         _______ _______ _______ _____ _____    ______ ____
ROOT
ATOM      1  C   UNL     1       0.731   6.739  -4.102  0.00  0.00    +0.049 C 
ENDROOT
BRANCH   1   3
ATOM      2  C   UNL     1       2.692   5.324  -4.944  0.00  0.00    +0.145 A 
ATOM      3  C   UNL     1       1.898   6.387  -5.178  0.00  0.00    +0.016 A 
ATOM      4  C   UNL     1       1.663   6.927  -6.438  0.00  0.00    -0.003 A 
ATOM      5  C   UNL     1       2.609   6.661  -7.419  0.00  0.00    +0.010 A 
ATOM      6  C   UNL     1       3.341   5.490  -7.281  0.00  0.00    +0.001 A 
ATOM      7  C   UNL     1       3.412   4.863  -6.044  0.00  0.00    +0.037 A 
BRANCH   5   8
ATOM      8  C   UNL     1       2.665   7.434  -8.690  0.00  0.00    +0.209 C 
ATOM      9  O   UNL     1       1.450   7.282  -9.377  0.00  0.00    -0.215 OA
ENDBRANCH   5   8
BRANCH   2  10
ATOM     10  O   UNL     1       3.241   5.321  -3.654  0.00  0.00    -0.424 OA
BRANCH  10  11
ATOM     11  C   UNL     1       4.551   5.776  -3.442  0.00  0.00    +0.321 C 
ATOM     12  O   UNL     1       5.416   4.886  -3.707  0.00  0.00    -0.250 OA
BRANCH  11  14
ATOM     13  C   UNL     1       3.859   7.896  -2.433  0.00  0.00    +0.012 C 
ATOM     14  C   UNL     1       4.886   7.168  -3.086  0.00  0.00    +0.099 C 
ATOM     15  C   UNL     1       5.258   7.851  -4.399  0.00  0.00    +0.012 C 
ENDBRANCH  11  14
ENDBRANCH  10  11
ENDBRANCH   2  10
ENDBRANCH   1   3
BRANCH   1  16
ATOM     16  C   UNL     1      -0.368   7.067  -5.267  0.00  0.00    -0.018 A 
ATOM     17  C   UNL     1      -0.832   5.849  -5.752  0.00  0.00    -0.004 A 
ATOM     18  C   UNL     1      -2.187   5.561  -5.876  0.00  0.00    -0.000 A 
ATOM     19  C   UNL     1      -3.082   6.596  -5.807  0.00  0.00    -0.000 A 
ATOM     20  C   UNL     1      -2.660   7.753  -5.209  0.00  0.00    -0.000 A 
ATOM     21  C   UNL     1      -1.345   7.954  -4.830  0.00  0.00    -0.004 A 
ENDBRANCH   1  16
BRANCH   1  22
ATOM     22  C   UNL     1       0.169   5.183  -3.940  0.00  0.00    +0.026 C 
BRANCH  22  23
ATOM     23  C   UNL     1       0.059   4.984  -2.446  0.00  0.00    +0.073 C 
BRANCH  23  24
ATOM     24  N   UNL     1      -0.162   6.296  -1.847  0.00  0.00    -0.275 NA
BRANCH  24  25
ATOM     25  C   UNL     1      -1.508   6.412  -1.341  0.00  0.00    +0.058 C 
ATOM     26  C   UNL     1      -2.017   7.838  -1.463  0.00  0.00    +0.017 C 
ATOM     27  C   UNL     1      -2.451   5.443  -1.997  0.00  0.00    +0.017 C 
ENDBRANCH  24  25
BRANCH  24  28
ATOM     28  C   UNL     1       0.832   6.549  -0.814  0.00  0.00    +0.058 C 
ATOM     29  C   UNL     1       0.099   6.679   0.516  0.00  0.00    +0.017 C 
ATOM     30  C   UNL     1       1.769   5.362  -0.641  0.00  0.00    +0.017 C 
ENDBRANCH  24  28
ENDBRANCH  23  24
ENDBRANCH  22  23
ENDBRANCH   1  22
TORSDOF 11
ENDMDL
