MODEL 1
REMARK VINA RESULT:      -2.9      0.000      0.000
REMARK  Name = 
REMARK  0 active torsions:
REMARK  status: ('A' for Active; 'I' for Inactive)
REMARK                            x       y       z     vdW  Elec       q    Type
REMARK                         _______ _______ _______ _____ _____    ______ ____
ROOT
ATOM      1  O   UNL     1       9.472   6.062 -12.296  0.00  0.00    -0.144 OA
ATOM      2  S   UNL     1       8.086   5.691 -11.845  0.00  0.00    +0.126 S 
ATOM      3  S   UNL     1       7.067   7.045 -11.952  0.00  0.00    +0.110 S 
ATOM      4  O   UNL     1       7.502   4.528 -12.904  0.00  0.00    -0.046 OA
ATOM      5  O   UNL     1       8.081   5.123 -10.259  0.00  0.00    -0.046 OA
ENDROOT
TORSDOF 0
ENDMDL
MODEL 2
REMARK VINA RESULT:      -2.9     12.529     13.503
REMARK  Name = 
REMARK  0 active torsions:
REMARK  status: ('A' for Active; 'I' for Inactive)
REMARK                            x       y       z     vdW  Elec       q    Type
REMARK                         _______ _______ _______ _____ _____    ______ ____
ROOT
ATOM      1  O   UNL     1      -2.894   4.667  -2.709  0.00  0.00    -0.144 OA
ATOM      2  S   UNL     1      -1.670   5.539  -2.761  0.00  0.00    +0.126 S 
ATOM      3  S   UNL     1      -2.079   7.126  -2.315  0.00  0.00    +0.110 S 
ATOM      4  O   UNL     1      -0.583   4.954  -1.625  0.00  0.00    -0.046 OA
ATOM      5  O   UNL     1      -0.986   5.558  -4.300  0.00  0.00    -0.046 OA
ENDROOT
TORSDOF 0
ENDMDL
MODEL 3
REMARK VINA RESULT:      -2.9      1.943      2.734
REMARK  Name = 
REMARK  0 active torsions:
REMARK  status: ('A' for Active; 'I' for Inactive)
REMARK                            x       y       z     vdW  Elec       q    Type
REMARK                         _______ _______ _______ _____ _____    ______ ____
ROOT
ATOM      1  O   UNL     1       7.710   4.672 -12.998  0.00  0.00    -0.144 OA
ATOM      2  S   UNL     1       6.568   5.521 -13.485  0.00  0.00    +0.126 S 
ATOM      3  S   UNL     1       6.461   6.930 -12.544  0.00  0.00    +0.110 S 
ATOM      4  O   UNL     1       6.916   5.984 -15.060  0.00  0.00    -0.046 OA
ATOM      5  O   UNL     1       5.103   4.694 -13.407  0.00  0.00    -0.046 OA
ENDROOT
TORSDOF 0
ENDMDL
MODEL 4
REMARK VINA RESULT:      -2.8      2.002      3.003
REMARK  Name = 
REMARK  0 active torsions:
REMARK  status: ('A' for Active; 'I' for Inactive)
REMARK                            x       y       z     vdW  Elec       q    Type
REMARK                         _______ _______ _______ _____ _____    ______ ____
ROOT
ATOM      1  O   UNL     1       5.264   4.714 -13.443  0.00  0.00    -0.144 OA
ATOM      2  S   UNL     1       6.334   5.529 -12.772  0.00  0.00    +0.126 S 
ATOM      3  S   UNL     1       5.928   5.777 -11.141  0.00  0.00    +0.110 S 
ATOM      4  O   UNL     1       7.754   4.636 -12.813  0.00  0.00    -0.046 OA
ATOM      5  O   UNL     1       6.537   7.024 -13.521  0.00  0.00    -0.046 OA
ENDROOT
TORSDOF 0
ENDMDL
MODEL 5
REMARK VINA RESULT:      -2.8      1.977      2.487
REMARK  Name = 
REMARK  0 active torsions:
REMARK  status: ('A' for Active; 'I' for Inactive)
REMARK                            x       y       z     vdW  Elec       q    Type
REMARK                         _______ _______ _______ _____ _____    ______ ____
ROOT
ATOM      1  O   UNL     1       6.503   6.808 -13.517  0.00  0.00    -0.144 OA
ATOM      2  S   UNL     1       6.373   5.515 -12.760  0.00  0.00    +0.126 S 
ATOM      3  S   UNL     1       5.985   5.836 -11.139  0.00  0.00    +0.110 S 
ATOM      4  O   UNL     1       5.095   4.660 -13.432  0.00  0.00    -0.046 OA
ATOM      5  O   UNL     1       7.797   4.617 -12.817  0.00  0.00    -0.046 OA
ENDROOT
TORSDOF 0
ENDMDL
MODEL 6
REMARK VINA RESULT:      -2.8     12.892     13.607
REMARK  Name = 
REMARK  0 active torsions:
REMARK  status: ('A' for Active; 'I' for Inactive)
REMARK                            x       y       z     vdW  Elec       q    Type
REMARK                         _______ _______ _______ _____ _____    ______ ____
ROOT
ATOM      1  O   UNL     1      -2.895   4.674  -2.725  0.00  0.00    -0.144 OA
ATOM      2  S   UNL     1      -1.705   5.584  -2.595  0.00  0.00    +0.126 S 
ATOM      3  S   UNL     1      -1.004   5.832  -4.122  0.00  0.00    +0.110 S 
ATOM      4  O   UNL     1      -2.259   7.068  -2.042  0.00  0.00    -0.046 OA
ATOM      5  O   UNL     1      -0.544   4.945  -1.555  0.00  0.00    -0.046 OA
ENDROOT
TORSDOF 0
ENDMDL
MODEL 7
REMARK VINA RESULT:      -2.7     12.622     13.375
REMARK  Name = 
REMARK  0 active torsions:
REMARK  status: ('A' for Active; 'I' for Inactive)
REMARK                            x       y       z     vdW  Elec       q    Type
REMARK                         _______ _______ _______ _____ _____    ______ ____
ROOT
ATOM      1  O   UNL     1      -1.473   6.899  -1.751  0.00  0.00    -0.144 OA
ATOM      2  S   UNL     1      -1.307   5.589  -2.471  0.00  0.00    +0.126 S 
ATOM      3  S   UNL     1      -0.754   5.871  -4.052  0.00  0.00    +0.110 S 
ATOM      4  O   UNL     1      -0.124   4.714  -1.665  0.00  0.00    -0.046 OA
ATOM      5  O   UNL     1      -2.754   4.730  -2.539  0.00  0.00    -0.046 OA
ENDROOT
TORSDOF 0
ENDMDL
MODEL 8
REMARK VINA RESULT:      -2.7     12.298     12.967
REMARK  Name = 
REMARK  0 active torsions:
REMARK  status: ('A' for Active; 'I' for Inactive)
REMARK                            x       y       z     vdW  Elec       q    Type
REMARK                         _______ _______ _______ _____ _____    ______ ____
ROOT
ATOM      1  O   UNL     1      -0.459   5.381  -3.720  0.00  0.00    -0.144 OA
ATOM      2  S   UNL     1      -1.929   5.692  -3.642  0.00  0.00    +0.126 S 
ATOM      3  S   UNL     1      -2.148   7.302  -3.149  0.00  0.00    +0.110 S 
ATOM      4  O   UNL     1      -2.562   5.541  -5.189  0.00  0.00    -0.046 OA
ATOM      5  O   UNL     1      -2.722   4.672  -2.561  0.00  0.00    -0.046 OA
ENDROOT
TORSDOF 0
ENDMDL
MODEL 9
REMARK VINA RESULT:      -2.6     12.525     13.371
REMARK  Name = 
REMARK  0 active torsions:
REMARK  status: ('A' for Active; 'I' for Inactive)
REMARK                            x       y       z     vdW  Elec       q    Type
REMARK                         _______ _______ _______ _____ _____    ______ ____
ROOT
ATOM      1  O   UNL     1      -2.798   4.652  -2.606  0.00  0.00    -0.144 OA
ATOM      2  S   UNL     1      -2.085   5.753  -3.340  0.00  0.00    +0.126 S 
ATOM      3  S   UNL     1      -0.409   5.602  -3.112  0.00  0.00    +0.110 S 
ATOM      4  O   UNL     1      -2.396   5.555  -4.977  0.00  0.00    -0.046 OA
ATOM      5  O   UNL     1      -2.577   7.274  -2.810  0.00  0.00    -0.046 OA
ENDROOT
TORSDOF 0
ENDMDL
