MODEL 1
REMARK VINA RESULT:      -8.9      0.000      0.000
REMARK  Name = 
REMARK  2 active torsions:
REMARK  status: ('A' for Active; 'I' for Inactive)
REMARK    1  A    between atoms: C_23  and  C_25
REMARK    2  A    between atoms: C_25  and  C_27
REMARK                            x       y       z     vdW  Elec       q    Type
REMARK                         _______ _______ _______ _____ _____    ______ ____
ROOT
ATOM      1  C   UNL     1       3.769   6.946 -10.328  0.00  0.00    +0.003 C 
ATOM      2  C   UNL     1       3.833   5.412  -9.772  0.00  0.00    +0.035 C 
ATOM      3  C   UNL     1       2.268   5.320  -9.368  0.00  0.00    +0.180 C 
ATOM      4  O   UNL     1       2.175   3.920  -9.185  0.00  0.00    -0.218 OA
ATOM      5  C   UNL     1       2.140   5.872  -8.020  0.00  0.00    +0.035 C 
ATOM      6  C   UNL     1       3.363   4.973  -7.467  0.00  0.00    +0.006 C 
ATOM      7  C   UNL     1       3.465   5.933  -6.078  0.00  0.00    +0.034 C 
ATOM      8  C   UNL     1       2.329   5.112  -5.306  0.00  0.00    +0.168 C 
ATOM      9  C   UNL     1       0.868   5.678  -5.781  0.00  0.00    +0.182 C 
ATOM     10  O   UNL     1       1.332   7.113  -5.963  0.00  0.00    -0.220 OA
ATOM     11  F   UNL     1       2.394   3.825  -5.516  0.00  0.00    -0.237 F 
ATOM     12  C   UNL     1       2.439   5.720  -3.998  0.00  0.00    +0.064 C 
ATOM     13  C   UNL     1       3.609   5.173  -3.229  0.00  0.00    -0.035 C 
ATOM     14  C   UNL     1       3.890   5.851  -2.110  0.00  0.00    +0.034 C 
ATOM     15  C   UNL     1       2.915   6.871  -1.681  0.00  0.00    +0.195 C 
ATOM     16  C   UNL     1       1.532   6.443  -1.956  0.00  0.00    +0.038 C 
ATOM     17  O   UNL     1       3.220   7.952  -1.134  0.00  0.00    -0.287 OA
ATOM     18  C   UNL     1       4.565   4.597  -4.152  0.00  0.00    +0.023 C 
ATOM     19  C   UNL     1       2.870   7.196  -4.079  0.00  0.00    +0.011 C 
ATOM     20  C   UNL     1       1.324   5.709  -3.061  0.00  0.00    -0.017 C 
ATOM     21  C   UNL     1       4.666   5.014  -5.509  0.00  0.00    +0.007 C 
ATOM     22  C   UNL     1       2.485   7.291  -8.026  0.00  0.00    +0.003 C 
ATOM     23  C   UNL     1       1.030   5.304  -7.365  0.00  0.00    +0.038 C 
ATOM     24  C   UNL     1       4.373   5.909  -8.308  0.00  0.00    +0.003 C 
ENDROOT
BRANCH   3  25
ATOM     25  C   UNL     1       1.385   5.675 -10.414  0.00  0.00    +0.211 C 
ATOM     26  O   UNL     1       1.348   4.917 -11.391  0.00  0.00    -0.291 OA
BRANCH  25  27
ATOM     27  C   UNL     1       0.186   6.569 -10.425  0.00  0.00    +0.248 C 
ATOM     28  O   UNL     1       0.162   7.329 -11.583  0.00  0.00    -0.212 OA
ENDBRANCH  25  27
ENDBRANCH   3  25
TORSDOF 2
ENDMDL
MODEL 2
REMARK VINA RESULT:      -8.8      1.719      6.607
REMARK  Name = 
REMARK  2 active torsions:
REMARK  status: ('A' for Active; 'I' for Inactive)
REMARK    1  A    between atoms: C_23  and  C_25
REMARK    2  A    between atoms: C_25  and  C_27
REMARK                            x       y       z     vdW  Elec       q    Type
REMARK                         _______ _______ _______ _____ _____    ______ ____
ROOT
ATOM      1  C   UNL     1       4.244   4.268  -4.138  0.00  0.00    +0.003 C 
ATOM      2  C   UNL     1       4.710   5.700  -4.769  0.00  0.00    +0.035 C 
ATOM      3  C   UNL     1       3.254   6.402  -4.673  0.00  0.00    +0.180 C 
ATOM      4  O   UNL     1       3.646   7.743  -4.894  0.00  0.00    -0.218 OA
ATOM      5  C   UNL     1       2.520   6.034  -5.883  0.00  0.00    +0.035 C 
ATOM      6  C   UNL     1       3.759   6.443  -6.836  0.00  0.00    +0.006 C 
ATOM      7  C   UNL     1       3.058   5.615  -8.134  0.00  0.00    +0.034 C 
ATOM      8  C   UNL     1       2.140   6.855  -8.559  0.00  0.00    +0.168 C 
ATOM      9  C   UNL     1       0.796   6.847  -7.626  0.00  0.00    +0.182 C 
ATOM     10  O   UNL     1       0.714   5.335  -7.518  0.00  0.00    -0.220 OA
ATOM     11  F   UNL     1       2.749   8.004  -8.450  0.00  0.00    -0.237 F 
ATOM     12  C   UNL     1       1.606   6.342  -9.802  0.00  0.00    +0.064 C 
ATOM     13  C   UNL     1       2.599   6.462 -10.923  0.00  0.00    -0.035 C 
ATOM     14  C   UNL     1       2.245   5.807 -12.036  0.00  0.00    +0.034 C 
ATOM     15  C   UNL     1       0.875   5.261 -12.086  0.00  0.00    +0.195 C 
ATOM     16  C   UNL     1      -0.087   6.158 -11.420  0.00  0.00    +0.038 C 
ATOM     17  O   UNL     1       0.565   4.186 -12.641  0.00  0.00    -0.287 OA
ATOM     18  C   UNL     1       3.935   6.570 -10.375  0.00  0.00    +0.023 C 
ATOM     19  C   UNL     1       1.448   4.811  -9.778  0.00  0.00    +0.011 C 
ATOM     20  C   UNL     1       0.349   6.837 -10.347  0.00  0.00    -0.017 C 
ATOM     21  C   UNL     1       4.281   6.052  -9.095  0.00  0.00    +0.007 C 
ATOM     22  C   UNL     1       2.286   4.592  -5.907  0.00  0.00    +0.003 C 
ATOM     23  C   UNL     1       1.565   7.022  -6.192  0.00  0.00    +0.038 C 
ATOM     24  C   UNL     1       4.545   5.140  -6.299  0.00  0.00    +0.003 C 
ENDROOT
BRANCH   3  25
ATOM     25  C   UNL     1       2.669   6.333  -3.387  0.00  0.00    +0.211 C 
ATOM     26  O   UNL     1       3.198   7.012  -2.499  0.00  0.00    -0.291 OA
BRANCH  25  27
ATOM     27  C   UNL     1       1.300   5.916  -2.953  0.00  0.00    +0.248 C 
ATOM     28  O   UNL     1       1.381   5.004  -1.913  0.00  0.00    -0.212 OA
ENDBRANCH  25  27
ENDBRANCH   3  25
TORSDOF 2
ENDMDL
MODEL 3
REMARK VINA RESULT:      -8.5      1.822      3.313
REMARK  Name = 
REMARK  2 active torsions:
REMARK  status: ('A' for Active; 'I' for Inactive)
REMARK    1  A    between atoms: C_23  and  C_25
REMARK    2  A    between atoms: C_25  and  C_27
REMARK                            x       y       z     vdW  Elec       q    Type
REMARK                         _______ _______ _______ _____ _____    ______ ____
ROOT
ATOM      1  C   UNL     1       0.252   3.887 -10.890  0.00  0.00    +0.003 C 
ATOM      2  C   UNL     1      -0.229   5.368 -10.394  0.00  0.00    +0.035 C 
ATOM      3  C   UNL     1       1.220   6.071 -10.556  0.00  0.00    +0.180 C 
ATOM      4  O   UNL     1       0.816   7.423 -10.460  0.00  0.00    -0.218 OA
ATOM      5  C   UNL     1       1.957   5.824  -9.316  0.00  0.00    +0.035 C 
ATOM      6  C   UNL     1       0.714   6.309  -8.406  0.00  0.00    +0.006 C 
ATOM      7  C   UNL     1       1.421   5.611  -7.036  0.00  0.00    +0.034 C 
ATOM      8  C   UNL     1       2.327   6.894  -6.728  0.00  0.00    +0.168 C 
ATOM      9  C   UNL     1       3.672   6.812  -7.657  0.00  0.00    +0.182 C 
ATOM     10  O   UNL     1       3.769   5.297  -7.623  0.00  0.00    -0.220 OA
ATOM     11  F   UNL     1       1.708   8.023  -6.943  0.00  0.00    -0.237 F 
ATOM     12  C   UNL     1       2.865   6.504  -5.443  0.00  0.00    +0.064 C 
ATOM     13  C   UNL     1       1.870   6.718  -4.337  0.00  0.00    -0.035 C 
ATOM     14  C   UNL     1       2.229   6.173  -3.169  0.00  0.00    +0.034 C 
ATOM     15  C   UNL     1       3.604   5.647  -3.068  0.00  0.00    +0.195 C 
ATOM     16  C   UNL     1       4.558   6.487  -3.814  0.00  0.00    +0.038 C 
ATOM     17  O   UNL     1       3.924   4.631  -2.415  0.00  0.00    -0.287 OA
ATOM     18  C   UNL     1       0.533   6.762  -4.893  0.00  0.00    +0.023 C 
ATOM     19  C   UNL     1       3.037   4.979  -5.325  0.00  0.00    +0.011 C 
ATOM     20  C   UNL     1       4.117   7.060  -4.947  0.00  0.00    -0.017 C 
ATOM     21  C   UNL     1       0.193   6.124  -6.120  0.00  0.00    +0.007 C 
ATOM     22  C   UNL     1       2.205   4.394  -9.158  0.00  0.00    +0.003 C 
ATOM     23  C   UNL     1       2.903   6.846  -9.100  0.00  0.00    +0.038 C 
ATOM     24  C   UNL     1      -0.059   4.954  -8.819  0.00  0.00    +0.003 C 
ENDROOT
BRANCH   3  25
ATOM     25  C   UNL     1       1.808   5.888 -11.829  0.00  0.00    +0.211 C 
ATOM     26  O   UNL     1       1.163   6.300 -12.801  0.00  0.00    -0.291 OA
BRANCH  25  27
ATOM     27  C   UNL     1       3.229   5.654 -12.230  0.00  0.00    +0.248 C 
ATOM     28  O   UNL     1       3.297   5.251 -13.554  0.00  0.00    -0.212 OA
ENDBRANCH  25  27
ENDBRANCH   3  25
TORSDOF 2
ENDMDL
MODEL 4
REMARK VINA RESULT:      -8.5      2.115      6.912
REMARK  Name = 
REMARK  2 active torsions:
REMARK  status: ('A' for Active; 'I' for Inactive)
REMARK    1  A    between atoms: C_23  and  C_25
REMARK    2  A    between atoms: C_25  and  C_27
REMARK                            x       y       z     vdW  Elec       q    Type
REMARK                         _______ _______ _______ _____ _____    ______ ____
ROOT
ATOM      1  C   UNL     1       1.050   6.889  -4.513  0.00  0.00    +0.003 C 
ATOM      2  C   UNL     1       1.033   5.341  -5.032  0.00  0.00    +0.035 C 
ATOM      3  C   UNL     1       2.569   5.325  -5.545  0.00  0.00    +0.180 C 
ATOM      4  O   UNL     1       2.728   3.929  -5.706  0.00  0.00    -0.218 OA
ATOM      5  C   UNL     1       2.570   5.851  -6.910  0.00  0.00    +0.035 C 
ATOM      6  C   UNL     1       1.365   4.873  -7.356  0.00  0.00    +0.006 C 
ATOM      7  C   UNL     1       1.111   5.793  -8.753  0.00  0.00    +0.034 C 
ATOM      8  C   UNL     1       2.235   5.017  -9.588  0.00  0.00    +0.168 C 
ATOM      9  C   UNL     1       3.690   5.675  -9.231  0.00  0.00    +0.182 C 
ATOM     10  O   UNL     1       3.160   7.085  -9.044  0.00  0.00    -0.220 OA
ATOM     11  F   UNL     1       2.257   3.734  -9.348  0.00  0.00    -0.237 F 
ATOM     12  C   UNL     1       1.998   5.587 -10.897  0.00  0.00    +0.064 C 
ATOM     13  C   UNL     1       0.810   4.958 -11.568  0.00  0.00    -0.035 C 
ATOM     14  C   UNL     1       0.413   5.592 -12.678  0.00  0.00    +0.034 C 
ATOM     15  C   UNL     1       1.296   6.654 -13.196  0.00  0.00    +0.195 C 
ATOM     16  C   UNL     1       2.717   6.310 -13.013  0.00  0.00    +0.038 C 
ATOM     17  O   UNL     1       0.892   7.703 -13.742  0.00  0.00    -0.287 OA
ATOM     18  C   UNL     1      -0.045   4.352 -10.568  0.00  0.00    +0.023 C 
ATOM     19  C   UNL     1       1.491   7.038 -10.814  0.00  0.00    +0.011 C 
ATOM     20  C   UNL     1       3.044   5.615 -11.911  0.00  0.00    -0.017 C 
ATOM     21  C   UNL     1      -0.073   4.796  -9.216  0.00  0.00    +0.007 C 
ATOM     22  C   UNL     1       2.147   7.249  -6.908  0.00  0.00    +0.003 C 
ATOM     23  C   UNL     1       3.662   5.330  -7.632  0.00  0.00    +0.038 C 
ATOM     24  C   UNL     1       0.364   5.772  -6.464  0.00  0.00    +0.003 C 
ENDROOT
BRANCH   3  25
ATOM     25  C   UNL     1       3.502   5.754  -4.572  0.00  0.00    +0.211 C 
ATOM     26  O   UNL     1       3.502   5.143  -3.497  0.00  0.00    -0.291 OA
BRANCH  25  27
ATOM     27  C   UNL     1       4.768   6.539  -4.706  0.00  0.00    +0.248 C 
ATOM     28  O   UNL     1       4.511   7.894  -4.575  0.00  0.00    -0.212 OA
ENDBRANCH  25  27
ENDBRANCH   3  25
TORSDOF 2
ENDMDL
MODEL 5
REMARK VINA RESULT:      -8.1      2.313      6.317
REMARK  Name = 
REMARK  2 active torsions:
REMARK  status: ('A' for Active; 'I' for Inactive)
REMARK    1  A    between atoms: C_23  and  C_25
REMARK    2  A    between atoms: C_25  and  C_27
REMARK                            x       y       z     vdW  Elec       q    Type
REMARK                         _______ _______ _______ _____ _____    ______ ____
ROOT
ATOM      1  C   UNL     1      -0.534   6.981  -5.637  0.00  0.00    +0.003 C 
ATOM      2  C   UNL     1      -0.369   5.506  -6.320  0.00  0.00    +0.035 C 
ATOM      3  C   UNL     1       1.025   5.141  -5.583  0.00  0.00    +0.180 C 
ATOM      4  O   UNL     1       1.063   3.756  -5.868  0.00  0.00    -0.218 OA
ATOM      5  C   UNL     1       2.100   5.709  -6.395  0.00  0.00    +0.035 C 
ATOM      6  C   UNL     1       1.499   5.072  -7.752  0.00  0.00    +0.006 C 
ATOM      7  C   UNL     1       2.482   6.085  -8.685  0.00  0.00    +0.034 C 
ATOM      8  C   UNL     1       3.738   5.097  -8.614  0.00  0.00    +0.168 C 
ATOM      9  C   UNL     1       4.529   5.365  -7.206  0.00  0.00    +0.182 C 
ATOM     10  O   UNL     1       4.228   6.853  -7.164  0.00  0.00    -0.220 OA
ATOM     11  F   UNL     1       3.405   3.837  -8.702  0.00  0.00    -0.237 F 
ATOM     12  C   UNL     1       4.620   5.763  -9.548  0.00  0.00    +0.064 C 
ATOM     13  C   UNL     1       4.243   5.470 -10.972  0.00  0.00    -0.035 C 
ATOM     14  C   UNL     1       4.880   6.229 -11.871  0.00  0.00    +0.034 C 
ATOM     15  C   UNL     1       5.990   7.066 -11.377  0.00  0.00    +0.195 C 
ATOM     16  C   UNL     1       6.752   6.379 -10.318  0.00  0.00    +0.038 C 
ATOM     17  O   UNL     1       6.264   8.204 -11.814  0.00  0.00    -0.287 OA
ATOM     18  C   UNL     1       2.858   5.047 -11.027  0.00  0.00    +0.023 C 
ATOM     19  C   UNL     1       4.417   7.288  -9.550  0.00  0.00    +0.011 C 
ATOM     20  C   UNL     1       6.064   5.579  -9.487  0.00  0.00    -0.017 C 
ATOM     21  C   UNL     1       1.903   5.426 -10.042  0.00  0.00    +0.007 C 
ATOM     22  C   UNL     1       2.005   7.166  -6.404  0.00  0.00    +0.003 C 
ATOM     23  C   UNL     1       3.287   4.969  -6.218  0.00  0.00    +0.038 C 
ATOM     24  C   UNL     1       0.298   6.148  -7.671  0.00  0.00    +0.003 C 
ENDROOT
BRANCH   3  25
ATOM     25  C   UNL     1       0.985   5.288  -4.177  0.00  0.00    +0.211 C 
ATOM     26  O   UNL     1      -0.029   4.872  -3.604  0.00  0.00    -0.291 OA
BRANCH  25  27
ATOM     27  C   UNL     1       2.082   5.485  -3.179  0.00  0.00    +0.248 C 
ATOM     28  O   UNL     1       2.335   6.835  -3.001  0.00  0.00    -0.212 OA
ENDBRANCH  25  27
ENDBRANCH   3  25
TORSDOF 2
ENDMDL
MODEL 6
REMARK VINA RESULT:      -8.0      2.110      6.309
REMARK  Name = 
REMARK  2 active torsions:
REMARK  status: ('A' for Active; 'I' for Inactive)
REMARK    1  A    between atoms: C_23  and  C_25
REMARK    2  A    between atoms: C_25  and  C_27
REMARK                            x       y       z     vdW  Elec       q    Type
REMARK                         _______ _______ _______ _____ _____    ______ ____
ROOT
ATOM      1  C   UNL     1      -1.363   7.543  -4.477  0.00  0.00    +0.003 C 
ATOM      2  C   UNL     1      -1.318   5.975  -4.935  0.00  0.00    +0.035 C 
ATOM      3  C   UNL     1       0.092   5.637  -4.215  0.00  0.00    +0.180 C 
ATOM      4  O   UNL     1       0.038   4.225  -4.288  0.00  0.00    -0.218 OA
ATOM      5  C   UNL     1       1.152   6.009  -5.152  0.00  0.00    +0.035 C 
ATOM      6  C   UNL     1       0.442   5.216  -6.368  0.00  0.00    +0.006 C 
ATOM      7  C   UNL     1       1.427   6.014  -7.488  0.00  0.00    +0.034 C 
ATOM      8  C   UNL     1       2.629   4.970  -7.325  0.00  0.00    +0.168 C 
ATOM      9  C   UNL     1       3.509   5.395  -6.012  0.00  0.00    +0.182 C 
ATOM     10  O   UNL     1       3.294   6.889  -6.182  0.00  0.00    -0.220 OA
ATOM     11  F   UNL     1       2.223   3.735  -7.205  0.00  0.00    -0.237 F 
ATOM     12  C   UNL     1       3.495   5.433  -8.388  0.00  0.00    +0.064 C 
ATOM     13  C   UNL     1       3.024   4.955  -9.733  0.00  0.00    -0.035 C 
ATOM     14  C   UNL     1       3.653   5.530 -10.765  0.00  0.00    +0.034 C 
ATOM     15  C   UNL     1       4.832   6.359 -10.455  0.00  0.00    +0.195 C 
ATOM     16  C   UNL     1       5.612   5.792  -9.340  0.00  0.00    +0.038 C 
ATOM     17  O   UNL     1       5.145   7.400 -11.072  0.00  0.00    -0.287 OA
ATOM     18  C   UNL     1       1.618   4.617  -9.660  0.00  0.00    +0.023 C 
ATOM     19  C   UNL     1       3.376   6.951  -8.613  0.00  0.00    +0.011 C 
ATOM     20  C   UNL     1       4.928   5.170  -8.366  0.00  0.00    -0.017 C 
ATOM     21  C   UNL     1       0.740   5.198  -8.701  0.00  0.00    +0.007 C 
ATOM     22  C   UNL     1       1.136   7.451  -5.378  0.00  0.00    +0.003 C 
ATOM     23  C   UNL     1       2.303   5.230  -4.919  0.00  0.00    +0.038 C 
ATOM     24  C   UNL     1      -0.691   6.365  -6.397  0.00  0.00    +0.003 C 
ENDROOT
BRANCH   3  25
ATOM     25  C   UNL     1       0.138   5.994  -2.847  0.00  0.00    +0.211 C 
ATOM     26  O   UNL     1      -0.778   5.571  -2.133  0.00  0.00    -0.291 OA
BRANCH  25  27
ATOM     27  C   UNL     1       1.274   6.453  -1.990  0.00  0.00    +0.248 C 
ATOM     28  O   UNL     1       1.859   5.374  -1.347  0.00  0.00    -0.212 OA
ENDBRANCH  25  27
ENDBRANCH   3  25
TORSDOF 2
ENDMDL
MODEL 7
REMARK VINA RESULT:      -7.8      1.809      3.050
REMARK  Name = 
REMARK  2 active torsions:
REMARK  status: ('A' for Active; 'I' for Inactive)
REMARK    1  A    between atoms: C_23  and  C_25
REMARK    2  A    between atoms: C_25  and  C_27
REMARK                            x       y       z     vdW  Elec       q    Type
REMARK                         _______ _______ _______ _____ _____    ______ ____
ROOT
ATOM      1  C   UNL     1       2.094   3.897  -9.241  0.00  0.00    +0.003 C 
ATOM      2  C   UNL     1       1.081   5.035  -8.654  0.00  0.00    +0.035 C 
ATOM      3  C   UNL     1       2.196   6.202  -8.538  0.00  0.00    +0.180 C 
ATOM      4  O   UNL     1       1.334   7.307  -8.348  0.00  0.00    -0.218 OA
ATOM      5  C   UNL     1       2.861   6.033  -7.246  0.00  0.00    +0.035 C 
ATOM      6  C   UNL     1       1.452   5.926  -6.463  0.00  0.00    +0.006 C 
ATOM      7  C   UNL     1       2.236   5.309  -5.097  0.00  0.00    +0.034 C 
ATOM      8  C   UNL     1       2.600   6.760  -4.528  0.00  0.00    +0.168 C 
ATOM      9  C   UNL     1       3.964   7.279  -5.270  0.00  0.00    +0.182 C 
ATOM     10  O   UNL     1       4.585   5.899  -5.393  0.00  0.00    -0.220 OA
ATOM     11  F   UNL     1       1.644   7.632  -4.698  0.00  0.00    -0.237 F 
ATOM     12  C   UNL     1       3.126   6.384  -3.234  0.00  0.00    +0.064 C 
ATOM     13  C   UNL     1       2.026   6.080  -2.256  0.00  0.00    -0.035 C 
ATOM     14  C   UNL     1       2.451   5.518  -1.118  0.00  0.00    +0.034 C 
ATOM     15  C   UNL     1       3.908   5.478  -0.891  0.00  0.00    +0.195 C 
ATOM     16  C   UNL     1       4.566   6.693  -1.404  0.00  0.00    +0.038 C 
ATOM     17  O   UNL     1       4.507   4.543  -0.318  0.00  0.00    -0.287 OA
ATOM     18  C   UNL     1       0.815   5.754  -2.979  0.00  0.00    +0.023 C 
ATOM     19  C   UNL     1       3.814   5.008  -3.264  0.00  0.00    +0.011 C 
ATOM     20  C   UNL     1       4.053   7.248  -2.514  0.00  0.00    -0.017 C 
ATOM     21  C   UNL     1       0.831   5.232  -4.304  0.00  0.00    +0.007 C 
ATOM     22  C   UNL     1       3.582   4.764  -7.216  0.00  0.00    +0.003 C 
ATOM     23  C   UNL     1       3.363   7.269  -6.791  0.00  0.00    +0.038 C 
ATOM     24  C   UNL     1       1.246   4.469  -7.126  0.00  0.00    +0.003 C 
ENDROOT
BRANCH   3  25
ATOM     25  C   UNL     1       2.920   6.423  -9.733  0.00  0.00    +0.211 C 
ATOM     26  O   UNL     1       2.256   6.681 -10.744  0.00  0.00    -0.291 OA
BRANCH  25  27
ATOM     27  C   UNL     1       4.349   6.802  -9.960  0.00  0.00    +0.248 C 
ATOM     28  O   UNL     1       5.085   5.695 -10.350  0.00  0.00    -0.212 OA
ENDBRANCH  25  27
ENDBRANCH   3  25
TORSDOF 2
ENDMDL
MODEL 8
REMARK VINA RESULT:      -7.8      2.182      3.237
REMARK  Name = 
REMARK  2 active torsions:
REMARK  status: ('A' for Active; 'I' for Inactive)
REMARK    1  A    between atoms: C_23  and  C_25
REMARK    2  A    between atoms: C_25  and  C_27
REMARK                            x       y       z     vdW  Elec       q    Type
REMARK                         _______ _______ _______ _____ _____    ______ ____
ROOT
ATOM      1  C   UNL     1       5.548   6.665  -9.116  0.00  0.00    +0.003 C 
ATOM      2  C   UNL     1       5.188   5.199  -8.492  0.00  0.00    +0.035 C 
ATOM      3  C   UNL     1       3.873   4.952  -9.404  0.00  0.00    +0.180 C 
ATOM      4  O   UNL     1       3.695   3.571  -9.157  0.00  0.00    -0.218 OA
ATOM      5  C   UNL     1       2.750   5.592  -8.719  0.00  0.00    +0.035 C 
ATOM      6  C   UNL     1       3.128   4.893  -7.312  0.00  0.00    +0.006 C 
ATOM      7  C   UNL     1       2.115   5.967  -6.486  0.00  0.00    +0.034 C 
ATOM      8  C   UNL     1       0.806   5.080  -6.734  0.00  0.00    +0.168 C 
ATOM      9  C   UNL     1       0.221   5.427  -8.223  0.00  0.00    +0.182 C 
ATOM     10  O   UNL     1       0.635   6.887  -8.195  0.00  0.00    -0.220 OA
ATOM     11  F   UNL     1       1.029   3.798  -6.634  0.00  0.00    -0.237 F 
ATOM     12  C   UNL     1      -0.134   5.800  -5.902  0.00  0.00    +0.064 C 
ATOM     13  C   UNL     1       0.040   5.461  -4.449  0.00  0.00    -0.035 C 
ATOM     14  C   UNL     1      -0.647   6.255  -3.619  0.00  0.00    +0.034 C 
ATOM     15  C   UNL     1      -1.619   7.182  -4.228  0.00  0.00    +0.195 C 
ATOM     16  C   UNL     1      -2.292   6.571  -5.388  0.00  0.00    +0.038 C 
ATOM     17  O   UNL     1      -1.859   8.332  -3.803  0.00  0.00    -0.287 OA
ATOM     18  C   UNL     1       1.370   4.931  -4.233  0.00  0.00    +0.023 C 
ATOM     19  C   UNL     1       0.183   7.306  -5.841  0.00  0.00    +0.011 C 
ATOM     20  C   UNL     1      -1.568   5.730  -6.146  0.00  0.00    -0.017 C 
ATOM     21  C   UNL     1       2.467   5.247  -5.083  0.00  0.00    +0.007 C 
ATOM     22  C   UNL     1       2.954   7.037  -8.666  0.00  0.00    +0.003 C 
ATOM     23  C   UNL     1       1.543   4.949  -9.058  0.00  0.00    +0.038 C 
ATOM     24  C   UNL     1       4.407   5.873  -7.220  0.00  0.00    +0.003 C 
ENDROOT
BRANCH   3  25
ATOM     25  C   UNL     1       4.100   5.114 -10.791  0.00  0.00    +0.211 C 
ATOM     26  O   UNL     1       3.174   5.601 -11.451  0.00  0.00    -0.291 OA
BRANCH  25  27
ATOM     27  C   UNL     1       5.370   5.187 -11.576  0.00  0.00    +0.248 C 
ATOM     28  O   UNL     1       5.148   4.806 -12.889  0.00  0.00    -0.212 OA
ENDBRANCH  25  27
ENDBRANCH   3  25
TORSDOF 2
ENDMDL
MODEL 9
REMARK VINA RESULT:      -7.7      2.775      4.352
REMARK  Name = 
REMARK  2 active torsions:
REMARK  status: ('A' for Active; 'I' for Inactive)
REMARK    1  A    between atoms: C_23  and  C_25
REMARK    2  A    between atoms: C_25  and  C_27
REMARK                            x       y       z     vdW  Elec       q    Type
REMARK                         _______ _______ _______ _____ _____    ______ ____
ROOT
ATOM      1  C   UNL     1       2.555   3.646  -8.643  0.00  0.00    +0.003 C 
ATOM      2  C   UNL     1       1.902   5.125  -8.878  0.00  0.00    +0.035 C 
ATOM      3  C   UNL     1       2.813   5.882  -7.775  0.00  0.00    +0.180 C 
ATOM      4  O   UNL     1       2.537   7.218  -8.148  0.00  0.00    -0.218 OA
ATOM      5  C   UNL     1       2.146   5.720  -6.484  0.00  0.00    +0.035 C 
ATOM      6  C   UNL     1       0.723   6.190  -7.088  0.00  0.00    +0.006 C 
ATOM      7  C   UNL     1      -0.077   5.583  -5.727  0.00  0.00    +0.034 C 
ATOM      8  C   UNL     1       0.158   6.916  -4.872  0.00  0.00    +0.168 C 
ATOM      9  C   UNL     1       1.655   6.852  -4.214  0.00  0.00    +0.182 C 
ATOM     10  O   UNL     1       1.656   5.346  -4.025  0.00  0.00    -0.220 OA
ATOM     11  F   UNL     1       0.029   8.007  -5.577  0.00  0.00    -0.237 F 
ATOM     12  C   UNL     1      -0.656   6.605  -3.716  0.00  0.00    +0.064 C 
ATOM     13  C   UNL     1      -2.116   6.824  -3.991  0.00  0.00    -0.035 C 
ATOM     14  C   UNL     1      -2.927   6.346  -3.039  0.00  0.00    +0.034 C 
ATOM     15  C   UNL     1      -2.295   5.884  -1.789  0.00  0.00    +0.195 C 
ATOM     16  C   UNL     1      -1.146   6.731  -1.422  0.00  0.00    +0.038 C 
ATOM     17  O   UNL     1      -2.695   4.912  -1.114  0.00  0.00    -0.287 OA
ATOM     18  C   UNL     1      -2.349   6.787  -5.420  0.00  0.00    +0.023 C 
ATOM     19  C   UNL     1      -0.687   5.095  -3.418  0.00  0.00    +0.011 C 
ATOM     20  C   UNL     1      -0.409   7.235  -2.426  0.00  0.00    -0.017 C 
ATOM     21  C   UNL     1      -1.496   6.082  -6.316  0.00  0.00    +0.007 C 
ATOM     22  C   UNL     1       2.122   4.310  -6.106  0.00  0.00    +0.003 C 
ATOM     23  C   UNL     1       2.476   6.790  -5.628  0.00  0.00    +0.038 C 
ATOM     24  C   UNL     1       0.647   4.787  -7.881  0.00  0.00    +0.003 C 
ENDROOT
BRANCH   3  25
ATOM     25  C   UNL     1       4.202   5.670  -7.936  0.00  0.00    +0.211 C 
ATOM     26  O   UNL     1       4.841   5.383  -6.917  0.00  0.00    -0.291 OA
BRANCH  25  27
ATOM     27  C   UNL     1       5.009   5.329  -9.148  0.00  0.00    +0.248 C 
ATOM     28  O   UNL     1       5.237   6.464  -9.910  0.00  0.00    -0.212 OA
ENDBRANCH  25  27
ENDBRANCH   3  25
TORSDOF 2
ENDMDL
