MODEL 1
REMARK VINA RESULT:      -3.7      0.000      0.000
REMARK  Name = 
REMARK  12 active torsions:
REMARK  status: ('A' for Active; 'I' for Inactive)
REMARK    1  A    between atoms: C_2  and  C_3
REMARK    2  A    between atoms: C_24  and  C_25
REMARK    3  A    between atoms: C_25  and  C_26
REMARK    4  A    between atoms: C_26  and  C_27
REMARK    5  A    between atoms: C_30  and  C_31
REMARK    6  A    between atoms: C_31  and  C_32
REMARK    7  A    between atoms: C_32  and  C_33
REMARK    8  A    between atoms: C_33  and  O_35
REMARK    9  A    between atoms: C_44  and  C_45
REMARK   10  A    between atoms: C_45  and  O_47
REMARK   11  A    between atoms: C_49  and  C_50
REMARK   12  A    between atoms: C_50  and  O_52
REMARK                            x       y       z     vdW  Elec       q    Type
REMARK                         _______ _______ _______ _____ _____    ______ ____
ROOT
ATOM      1  C   UNL     1      -2.819   7.961   1.091  0.00  0.00    +0.015 A 
ATOM      2  C   UNL     1      -2.197   7.500  -0.061  0.00  0.00    +0.082 A 
ATOM      3  N   UNL     1      -0.862   7.668  -0.019  0.00  0.00    -0.246 NA
ATOM      4  C   UNL     1      -0.656   8.148   1.226  0.00  0.00    +0.079 A 
ATOM      5  C   UNL     1       0.362   9.087   1.356  0.00  0.00    +0.038 C 
ATOM      6  C   UNL     1       1.531   8.770   0.721  0.00  0.00    +0.079 C 
ATOM      7  C   UNL     1       2.862   9.264   1.111  0.00  0.00    +0.001 C 
ATOM      8  C   UNL     1       3.244  10.441   1.629  0.00  0.00    -0.003 C 
ATOM      9  C   UNL     1       4.681  10.364   1.971  0.00  0.00    +0.002 C 
ATOM     10  C   UNL     1       5.094   9.092   1.967  0.00  0.00    +0.064 C 
ATOM     11  C   UNL     1       5.205   8.462   0.482  0.00  0.00    +0.136 C 
ATOM     12  C   UNL     1       3.673   8.766   0.053  0.00  0.00    +0.070 C 
ATOM     13  C   UNL     1       3.743   9.831  -1.033  0.00  0.00    +0.011 C 
ATOM     14  C   UNL     1       2.977   7.553  -0.353  0.00  0.00    +0.064 C 
ATOM     15  C   UNL     1       3.232   6.406  -1.101  0.00  0.00    +0.034 C 
ATOM     16  C   UNL     1       2.552   6.116  -2.282  0.00  0.00    +0.078 A 
ATOM     17  C   UNL     1       2.981   5.692  -3.541  0.00  0.00    -0.007 A 
ATOM     18  C   UNL     1       4.107   4.793  -3.790  0.00  0.00    +0.032 C 
ATOM     19  C   UNL     1       2.424   6.535  -4.498  0.00  0.00    -0.006 A 
ATOM     20  C   UNL     1       1.338   7.086  -3.821  0.00  0.00    +0.079 A 
ATOM     21  C   UNL     1       0.123   7.541  -4.327  0.00  0.00    +0.038 C 
ATOM     22  C   UNL     1      -1.094   7.167  -3.770  0.00  0.00    +0.079 C 
ATOM     23  C   UNL     1      -2.263   6.660  -4.328  0.00  0.00    -0.006 C 
ATOM     24  C   UNL     1      -2.851   5.945  -3.294  0.00  0.00    -0.007 C 
ATOM     25  C   UNL     1      -3.997   4.996  -3.403  0.00  0.00    +0.032 C 
ATOM     26  C   UNL     1      -2.198   6.357  -2.133  0.00  0.00    +0.079 C 
ATOM     27  N   UNL     1      -1.082   7.021  -2.424  0.00  0.00    -0.246 NA
ATOM     28  N   UNL     1       1.393   6.786  -2.513  0.00  0.00    -0.246 NA
ATOM     29  N   UNL     1       1.644   7.813  -0.236  0.00  0.00    -0.250 NA
ATOM     30  C   UNL     1      -2.803   6.594  -0.927  0.00  0.00    +0.038 C 
ATOM     31  C   UNL     1      -1.782   8.033   2.014  0.00  0.00    -0.003 A 
ATOM     32  C   UNL     1      -1.908   8.340   3.475  0.00  0.00    +0.033 C 
ENDROOT
BRANCH  11  33
ATOM     33  C   UNL     1       4.949   6.951   0.964  0.00  0.00    +0.322 C 
ATOM     34  O   UNL     1       4.757   6.681   2.128  0.00  0.00    -0.250 OA
BRANCH  33  35
ATOM     35  O   UNL     1       5.846   6.144   0.252  0.00  0.00    -0.444 OA
ATOM     36  C   UNL     1       5.358   4.949  -0.298  0.00  0.00    +0.256 C 
ENDBRANCH  33  35
ENDBRANCH  11  33
BRANCH  10  37
ATOM     37  C   UNL     1       6.033   8.569   2.956  0.00  0.00    +0.338 C 
ATOM     38  O   UNL     1       5.682   7.636   3.740  0.00  0.00    -0.245 OA
BRANCH  37  39
ATOM     39  O   UNL     1       7.420   8.680   2.811  0.00  0.00    -0.442 OA
ATOM     40  C   UNL     1       8.137   9.874   3.113  0.00  0.00    +0.256 C 
ENDBRANCH  37  39
ENDBRANCH  10  37
BRANCH   1  42
ATOM     41  C   UNL     1      -4.736   7.789   2.582  0.00  0.00    +0.000 C 
ATOM     42  C   UNL     1      -4.257   8.057   1.376  0.00  0.00    +0.001 C 
ENDBRANCH   1  42
BRANCH  23  43
ATOM     43  C   UNL     1      -2.539   6.434  -5.782  0.00  0.00    +0.039 C 
BRANCH  43  44
ATOM     44  C   UNL     1      -2.128   5.033  -6.205  0.00  0.00    +0.119 C 
BRANCH  44  45
ATOM     45  C   UNL     1      -0.737   5.155  -6.737  0.00  0.00    +0.365 C 
ATOM     46  O   UNL     1      -0.534   5.739  -7.990  0.00  0.00    -0.246 OA
ATOM     47  O   UNL     1       0.163   4.511  -6.159  0.00  0.00    -0.246 OA
ENDBRANCH  44  45
ENDBRANCH  43  44
ENDBRANCH  23  43
BRANCH  19  48
ATOM     48  C   UNL     1       2.958   7.018  -5.783  0.00  0.00    +0.039 C 
BRANCH  48  49
ATOM     49  C   UNL     1       3.670   5.852  -6.462  0.00  0.00    +0.114 C 
BRANCH  49  50
ATOM     50  C   UNL     1       3.325   5.734  -7.888  0.00  0.00    +0.317 C 
ATOM     51  O   UNL     1       2.642   4.713  -8.203  0.00  0.00    -0.250 OA
BRANCH  50  52
ATOM     52  O   UNL     1       3.175   6.827  -8.747  0.00  0.00    -0.444 OA
ATOM     53  C   UNL     1       4.084   6.856  -9.844  0.00  0.00    +0.256 C 
ENDBRANCH  50  52
ENDBRANCH  49  50
ENDBRANCH  48  49
ENDBRANCH  19  48
TORSDOF 12
ENDMDL
MODEL 2
REMARK VINA RESULT:      -3.6      1.975      8.177
REMARK  Name = 
REMARK  12 active torsions:
REMARK  status: ('A' for Active; 'I' for Inactive)
REMARK    1  A    between atoms: C_2  and  C_3
REMARK    2  A    between atoms: C_24  and  C_25
REMARK    3  A    between atoms: C_25  and  C_26
REMARK    4  A    between atoms: C_26  and  C_27
REMARK    5  A    between atoms: C_30  and  C_31
REMARK    6  A    between atoms: C_31  and  C_32
REMARK    7  A    between atoms: C_32  and  C_33
REMARK    8  A    between atoms: C_33  and  O_35
REMARK    9  A    between atoms: C_44  and  C_45
REMARK   10  A    between atoms: C_45  and  O_47
REMARK   11  A    between atoms: C_49  and  C_50
REMARK   12  A    between atoms: C_50  and  O_52
REMARK                            x       y       z     vdW  Elec       q    Type
REMARK                         _______ _______ _______ _____ _____    ______ ____
ROOT
ATOM      1  C   UNL     1      -3.191   5.844  -3.775  0.00  0.00    +0.015 A 
ATOM      2  C   UNL     1      -2.134   6.237  -2.966  0.00  0.00    +0.082 A 
ATOM      3  N   UNL     1      -0.943   6.079  -3.574  0.00  0.00    -0.246 NA
ATOM      4  C   UNL     1      -1.289   5.677  -4.816  0.00  0.00    +0.079 A 
ATOM      5  C   UNL     1      -0.439   4.753  -5.415  0.00  0.00    +0.038 C 
ATOM      6  C   UNL     1       0.895   5.036  -5.312  0.00  0.00    +0.079 C 
ATOM      7  C   UNL     1       1.929   4.573  -6.252  0.00  0.00    +0.001 C 
ATOM      8  C   UNL     1       2.034   3.432  -6.949  0.00  0.00    -0.003 C 
ATOM      9  C   UNL     1       3.196   3.537  -7.858  0.00  0.00    +0.002 C 
ATOM     10  C   UNL     1       3.600   4.808  -7.954  0.00  0.00    +0.064 C 
ATOM     11  C   UNL     1       4.336   5.347  -6.620  0.00  0.00    +0.136 C 
ATOM     12  C   UNL     1       3.119   5.010  -5.606  0.00  0.00    +0.070 C 
ATOM     13  C   UNL     1       3.615   3.881  -4.712  0.00  0.00    +0.011 C 
ATOM     14  C   UNL     1       2.683   6.192  -4.876  0.00  0.00    +0.064 C 
ATOM     15  C   UNL     1       3.253   7.292  -4.240  0.00  0.00    +0.034 C 
ATOM     16  C   UNL     1       3.137   7.506  -2.868  0.00  0.00    +0.078 A 
ATOM     17  C   UNL     1       4.063   7.855  -1.882  0.00  0.00    -0.007 A 
ATOM     18  C   UNL     1       5.208   8.743  -2.078  0.00  0.00    +0.032 C 
ATOM     19  C   UNL     1       3.940   6.952  -0.831  0.00  0.00    -0.006 A 
ATOM     20  C   UNL     1       2.660   6.438  -1.019  0.00  0.00    +0.079 A 
ATOM     21  C   UNL     1       1.759   5.948  -0.078  0.00  0.00    +0.038 C 
ATOM     22  C   UNL     1       0.428   6.348  -0.050  0.00  0.00    +0.079 C 
ATOM     23  C   UNL     1      -0.388   6.815   0.975  0.00  0.00    -0.006 C 
ATOM     24  C   UNL     1      -1.340   7.589   0.327  0.00  0.00    -0.007 C 
ATOM     25  C   UNL     1      -2.314   8.524   0.961  0.00  0.00    +0.032 C 
ATOM     26  C   UNL     1      -1.242   7.252  -1.022  0.00  0.00    +0.079 C 
ATOM     27  N   UNL     1      -0.122   6.577  -1.266  0.00  0.00    -0.246 NA
ATOM     28  N   UNL     1       2.168   6.818  -2.211  0.00  0.00    -0.246 NA
ATOM     29  N   UNL     1       1.419   5.933  -4.437  0.00  0.00    -0.250 NA
ATOM     30  C   UNL     1      -2.302   7.086  -1.875  0.00  0.00    +0.038 C 
ATOM     31  C   UNL     1      -2.638   5.834  -5.050  0.00  0.00    -0.003 A 
ATOM     32  C   UNL     1      -3.372   5.616  -6.339  0.00  0.00    +0.033 C 
ENDROOT
BRANCH  11  33
ATOM     33  C   UNL     1       3.934   6.883  -6.862  0.00  0.00    +0.322 C 
ATOM     34  O   UNL     1       4.232   7.749  -6.071  0.00  0.00    -0.250 OA
BRANCH  33  35
ATOM     35  O   UNL     1       2.623   6.882  -7.357  0.00  0.00    -0.444 OA
ATOM     36  C   UNL     1       2.145   8.059  -7.952  0.00  0.00    +0.256 C 
ENDBRANCH  33  35
ENDBRANCH  11  33
BRANCH  10  37
ATOM     37  C   UNL     1       4.049   5.395  -9.214  0.00  0.00    +0.338 C 
ATOM     38  O   UNL     1       5.283   5.406  -9.510  0.00  0.00    -0.245 OA
BRANCH  37  39
ATOM     39  O   UNL     1       3.211   5.526 -10.326  0.00  0.00    -0.442 OA
ATOM     40  C   UNL     1       3.445   6.473 -11.365  0.00  0.00    +0.256 C 
ENDBRANCH  37  39
ENDBRANCH  10  37
BRANCH   1  42
ATOM     41  C   UNL     1      -5.232   6.750  -2.803  0.00  0.00    +0.000 C 
ATOM     42  C   UNL     1      -4.618   5.759  -3.435  0.00  0.00    +0.001 C 
ENDBRANCH   1  42
BRANCH  23  43
ATOM     43  C   UNL     1      -0.024   6.951   2.421  0.00  0.00    +0.039 C 
BRANCH  43  44
ATOM     44  C   UNL     1       0.996   8.058   2.627  0.00  0.00    +0.119 C 
BRANCH  44  45
ATOM     45  C   UNL     1       0.315   9.098   3.456  0.00  0.00    +0.365 C 
ATOM     46  O   UNL     1      -1.043   8.956   3.749  0.00  0.00    -0.246 OA
ATOM     47  O   UNL     1       0.919  10.174   3.647  0.00  0.00    -0.246 OA
ENDBRANCH  44  45
ENDBRANCH  43  44
ENDBRANCH  23  43
BRANCH  19  48
ATOM     48  C   UNL     1       4.953   6.394   0.082  0.00  0.00    +0.039 C 
BRANCH  48  49
ATOM     49  C   UNL     1       5.472   7.532   0.957  0.00  0.00    +0.114 C 
BRANCH  49  50
ATOM     50  C   UNL     1       4.542   7.875   2.045  0.00  0.00    +0.317 C 
ATOM     51  O   UNL     1       4.272   6.934   2.851  0.00  0.00    -0.250 OA
BRANCH  50  52
ATOM     52  O   UNL     1       4.409   9.160   2.580  0.00  0.00    -0.444 OA
ATOM     53  C   UNL     1       3.968  10.150   1.655  0.00  0.00    +0.256 C 
ENDBRANCH  50  52
ENDBRANCH  49  50
ENDBRANCH  48  49
ENDBRANCH  19  48
TORSDOF 12
ENDMDL
MODEL 3
REMARK VINA RESULT:      -3.5      2.282      8.696
REMARK  Name = 
REMARK  12 active torsions:
REMARK  status: ('A' for Active; 'I' for Inactive)
REMARK    1  A    between atoms: C_2  and  C_3
REMARK    2  A    between atoms: C_24  and  C_25
REMARK    3  A    between atoms: C_25  and  C_26
REMARK    4  A    between atoms: C_26  and  C_27
REMARK    5  A    between atoms: C_30  and  C_31
REMARK    6  A    between atoms: C_31  and  C_32
REMARK    7  A    between atoms: C_32  and  C_33
REMARK    8  A    between atoms: C_33  and  O_35
REMARK    9  A    between atoms: C_44  and  C_45
REMARK   10  A    between atoms: C_45  and  O_47
REMARK   11  A    between atoms: C_49  and  C_50
REMARK   12  A    between atoms: C_50  and  O_52
REMARK                            x       y       z     vdW  Elec       q    Type
REMARK                         _______ _______ _______ _____ _____    ______ ____
ROOT
ATOM      1  C   UNL     1      -3.477   6.707  -4.480  0.00  0.00    +0.015 A 
ATOM      2  C   UNL     1      -2.230   6.787  -3.875  0.00  0.00    +0.082 A 
ATOM      3  N   UNL     1      -1.229   6.530  -4.737  0.00  0.00    -0.246 NA
ATOM      4  C   UNL     1      -1.874   6.391  -5.915  0.00  0.00    +0.079 A 
ATOM      5  C   UNL     1      -1.348   5.443  -6.788  0.00  0.00    +0.038 C 
ATOM      6  C   UNL     1       0.011   5.482  -6.939  0.00  0.00    +0.079 C 
ATOM      7  C   UNL     1       0.740   5.007  -8.127  0.00  0.00    +0.001 C 
ATOM      8  C   UNL     1       0.488   3.988  -8.962  0.00  0.00    -0.003 C 
ATOM      9  C   UNL     1       1.456   4.039 -10.078  0.00  0.00    +0.002 C 
ATOM     10  C   UNL     1       2.074   5.225 -10.106  0.00  0.00    +0.064 C 
ATOM     11  C   UNL     1       3.139   5.418  -8.905  0.00  0.00    +0.136 C 
ATOM     12  C   UNL     1       2.092   5.132  -7.702  0.00  0.00    +0.070 C 
ATOM     13  C   UNL     1       2.518   3.811  -7.077  0.00  0.00    +0.011 C 
ATOM     14  C   UNL     1       2.039   6.242  -6.760  0.00  0.00    +0.064 C 
ATOM     15  C   UNL     1       2.921   7.119  -6.133  0.00  0.00    +0.034 C 
ATOM     16  C   UNL     1       3.109   7.131  -4.752  0.00  0.00    +0.078 A 
ATOM     17  C   UNL     1       4.254   7.162  -3.953  0.00  0.00    -0.007 A 
ATOM     18  C   UNL     1       5.493   7.867  -4.281  0.00  0.00    +0.032 C 
ATOM     19  C   UNL     1       4.158   6.139  -3.015  0.00  0.00    -0.006 A 
ATOM     20  C   UNL     1       2.789   5.880  -2.986  0.00  0.00    +0.079 A 
ATOM     21  C   UNL     1       2.004   5.405  -1.940  0.00  0.00    +0.038 C 
ATOM     22  C   UNL     1       0.806   6.012  -1.580  0.00  0.00    +0.079 C 
ATOM     23  C   UNL     1       0.304   6.441  -0.357  0.00  0.00    -0.006 C 
ATOM     24  C   UNL     1      -0.584   7.454  -0.690  0.00  0.00    -0.007 C 
ATOM     25  C   UNL     1      -1.221   8.427   0.245  0.00  0.00    +0.032 C 
ATOM     26  C   UNL     1      -0.809   7.322  -2.059  0.00  0.00    +0.079 C 
ATOM     27  N   UNL     1       0.093   6.517  -2.615  0.00  0.00    -0.246 NA
ATOM     28  N   UNL     1       2.166   6.519  -3.991  0.00  0.00    -0.246 NA
ATOM     29  N   UNL     1       0.854   6.130  -6.096  0.00  0.00    -0.250 NA
ATOM     30  C   UNL     1      -2.022   7.470  -2.679  0.00  0.00    +0.038 C 
ATOM     31  C   UNL     1      -3.186   6.805  -5.836  0.00  0.00    -0.003 A 
ATOM     32  C   UNL     1      -4.177   6.916  -6.954  0.00  0.00    +0.033 C 
ENDROOT
BRANCH  11  33
ATOM     33  C   UNL     1       3.004   7.018  -8.870  0.00  0.00    +0.322 C 
ATOM     34  O   UNL     1       1.962   7.572  -9.135  0.00  0.00    -0.250 OA
BRANCH  33  35
ATOM     35  O   UNL     1       4.175   7.532  -9.443  0.00  0.00    -0.444 OA
ATOM     36  C   UNL     1       5.273   6.668  -9.577  0.00  0.00    +0.256 C 
ENDBRANCH  33  35
ENDBRANCH  11  33
BRANCH  10  37
ATOM     37  C   UNL     1       2.384   5.919 -11.354  0.00  0.00    +0.338 C 
ATOM     38  O   UNL     1       3.361   5.541 -12.069  0.00  0.00    -0.245 OA
BRANCH  37  39
ATOM     39  O   UNL     1       1.431   6.659 -12.061  0.00  0.00    -0.442 OA
ATOM     40  C   UNL     1       0.950   6.275 -13.346  0.00  0.00    +0.256 C 
ENDBRANCH  37  39
ENDBRANCH  10  37
BRANCH   1  42
ATOM     41  C   UNL     1      -4.989   6.474  -2.587  0.00  0.00    +0.000 C 
ATOM     42  C   UNL     1      -4.802   6.808  -3.856  0.00  0.00    +0.001 C 
ENDBRANCH   1  42
BRANCH  23  43
ATOM     43  C   UNL     1       0.952   6.286   0.984  0.00  0.00    +0.039 C 
BRANCH  43  44
ATOM     44  C   UNL     1       1.483   7.616   1.492  0.00  0.00    +0.119 C 
BRANCH  44  45
ATOM     45  C   UNL     1       1.226   7.629   2.963  0.00  0.00    +0.365 C 
ATOM     46  O   UNL     1       0.375   6.669   3.516  0.00  0.00    -0.246 OA
ATOM     47  O   UNL     1       1.581   8.640   3.605  0.00  0.00    -0.246 OA
ENDBRANCH  44  45
ENDBRANCH  43  44
ENDBRANCH  23  43
BRANCH  19  48
ATOM     48  C   UNL     1       5.196   5.284  -2.414  0.00  0.00    +0.039 C 
BRANCH  48  49
ATOM     49  C   UNL     1       4.860   5.110  -0.935  0.00  0.00    +0.114 C 
BRANCH  49  50
ATOM     50  C   UNL     1       4.713   6.396  -0.235  0.00  0.00    +0.317 C 
ATOM     51  O   UNL     1       4.804   6.344   1.029  0.00  0.00    -0.250 OA
BRANCH  50  52
ATOM     52  O   UNL     1       5.048   7.632  -0.796  0.00  0.00    -0.444 OA
ATOM     53  C   UNL     1       4.082   8.661  -0.599  0.00  0.00    +0.256 C 
ENDBRANCH  50  52
ENDBRANCH  49  50
ENDBRANCH  48  49
ENDBRANCH  19  48
TORSDOF 12
ENDMDL
MODEL 4
REMARK VINA RESULT:      -3.2      4.717     11.397
REMARK  Name = 
REMARK  12 active torsions:
REMARK  status: ('A' for Active; 'I' for Inactive)
REMARK    1  A    between atoms: C_2  and  C_3
REMARK    2  A    between atoms: C_24  and  C_25
REMARK    3  A    between atoms: C_25  and  C_26
REMARK    4  A    between atoms: C_26  and  C_27
REMARK    5  A    between atoms: C_30  and  C_31
REMARK    6  A    between atoms: C_31  and  C_32
REMARK    7  A    between atoms: C_32  and  C_33
REMARK    8  A    between atoms: C_33  and  O_35
REMARK    9  A    between atoms: C_44  and  C_45
REMARK   10  A    between atoms: C_45  and  O_47
REMARK   11  A    between atoms: C_49  and  C_50
REMARK   12  A    between atoms: C_50  and  O_52
REMARK                            x       y       z     vdW  Elec       q    Type
REMARK                         _______ _______ _______ _____ _____    ______ ____
ROOT
ATOM      1  C   UNL     1      -1.005   5.824  -6.648  0.00  0.00    +0.015 A 
ATOM      2  C   UNL     1       0.351   6.065  -6.826  0.00  0.00    +0.082 A 
ATOM      3  N   UNL     1       0.710   6.011  -8.122  0.00  0.00    -0.246 NA
ATOM      4  C   UNL     1      -0.469   5.833  -8.756  0.00  0.00    +0.079 A 
ATOM      5  C   UNL     1      -0.435   5.024  -9.887  0.00  0.00    +0.038 C 
ATOM      6  C   UNL     1       0.589   5.280 -10.756  0.00  0.00    +0.079 C 
ATOM      7  C   UNL     1       0.564   4.984 -12.198  0.00  0.00    +0.001 C 
ATOM      8  C   UNL     1      -0.012   3.981 -12.878  0.00  0.00    -0.003 C 
ATOM      9  C   UNL     1       0.147   4.238 -14.326  0.00  0.00    +0.002 C 
ATOM     10  C   UNL     1       0.519   5.505 -14.537  0.00  0.00    +0.064 C 
ATOM     11  C   UNL     1       2.049   5.800 -14.110  0.00  0.00    +0.136 C 
ATOM     12  C   UNL     1       1.899   5.296 -12.578  0.00  0.00    +0.070 C 
ATOM     13  C   UNL     1       2.733   4.027 -12.467  0.00  0.00    +0.011 C 
ATOM     14  C   UNL     1       2.276   6.335 -11.629  0.00  0.00    +0.064 C 
ATOM     15  C   UNL     1       3.265   7.305 -11.487  0.00  0.00    +0.034 C 
ATOM     16  C   UNL     1       4.197   7.278 -10.451  0.00  0.00    +0.078 A 
ATOM     17  C   UNL     1       5.583   7.445 -10.419  0.00  0.00    -0.007 A 
ATOM     18  C   UNL     1       6.342   8.350 -11.283  0.00  0.00    +0.032 C 
ATOM     19  C   UNL     1       6.136   6.374  -9.726  0.00  0.00    -0.006 A 
ATOM     20  C   UNL     1       5.056   5.905  -8.980  0.00  0.00    +0.079 A 
ATOM     21  C   UNL     1       5.051   5.262  -7.746  0.00  0.00    +0.038 C 
ATOM     22  C   UNL     1       4.211   5.657  -6.710  0.00  0.00    +0.079 C 
ATOM     23  C   UNL     1       4.447   5.941  -5.370  0.00  0.00    -0.006 C 
ATOM     24  C   UNL     1       3.430   6.819  -5.024  0.00  0.00    -0.007 C 
ATOM     25  C   UNL     1       3.338   7.633  -3.777  0.00  0.00    +0.032 C 
ATOM     26  C   UNL     1       2.486   6.722  -6.045  0.00  0.00    +0.079 C 
ATOM     27  N   UNL     1       2.992   6.096  -7.104  0.00  0.00    -0.246 NA
ATOM     28  N   UNL     1       3.914   6.489  -9.382  0.00  0.00    -0.246 NA
ATOM     29  N   UNL     1       1.691   6.008 -10.443  0.00  0.00    -0.250 NA
ATOM     30  C   UNL     1       1.128   6.712  -5.868  0.00  0.00    +0.038 C 
ATOM     31  C   UNL     1      -1.541   6.034  -7.913  0.00  0.00    -0.003 A 
ATOM     32  C   UNL     1      -2.996   6.046  -8.274  0.00  0.00    +0.033 C 
ENDROOT
BRANCH  11  33
ATOM     33  C   UNL     1       1.799   7.357 -13.801  0.00  0.00    +0.322 C 
ATOM     34  O   UNL     1       0.735   7.757 -13.388  0.00  0.00    -0.250 OA
BRANCH  33  35
ATOM     35  O   UNL     1       2.401   8.075 -14.842  0.00  0.00    -0.444 OA
ATOM     36  C   UNL     1       3.516   7.503 -15.473  0.00  0.00    +0.256 C 
ENDBRANCH  33  35
ENDBRANCH  11  33
BRANCH  10  37
ATOM     37  C   UNL     1      -0.001   6.301 -15.647  0.00  0.00    +0.338 C 
ATOM     38  O   UNL     1      -0.973   7.096 -15.463  0.00  0.00    -0.245 OA
BRANCH  37  39
ATOM     39  O   UNL     1       0.765   6.611 -16.775  0.00  0.00    -0.442 OA
ATOM     40  C   UNL     1       0.410   7.643 -17.691  0.00  0.00    +0.256 C 
ENDBRANCH  37  39
ENDBRANCH  10  37
BRANCH   1  42
ATOM     41  C   UNL     1      -2.270   6.743  -4.782  0.00  0.00    +0.000 C 
ATOM     42  C   UNL     1      -1.749   5.686  -5.389  0.00  0.00    +0.001 C 
ENDBRANCH   1  42
BRANCH  23  43
ATOM     43  C   UNL     1       5.750   5.821  -4.642  0.00  0.00    +0.039 C 
BRANCH  43  44
ATOM     44  C   UNL     1       5.697   4.713  -3.605  0.00  0.00    +0.119 C 
BRANCH  44  45
ATOM     45  C   UNL     1       4.737   5.173  -2.558  0.00  0.00    +0.365 C 
ATOM     46  O   UNL     1       5.098   6.226  -1.714  0.00  0.00    -0.246 OA
ATOM     47  O   UNL     1       3.752   4.445  -2.313  0.00  0.00    -0.246 OA
ENDBRANCH  44  45
ENDBRANCH  43  44
ENDBRANCH  23  43
BRANCH  19  48
ATOM     48  C   UNL     1       7.412   5.661  -9.912  0.00  0.00    +0.039 C 
BRANCH  48  49
ATOM     49  C   UNL     1       7.286   4.797 -11.164  0.00  0.00    +0.114 C 
BRANCH  49  50
ATOM     50  C   UNL     1       8.014   5.359 -12.313  0.00  0.00    +0.317 C 
ATOM     51  O   UNL     1       9.206   5.724 -12.080  0.00  0.00    -0.250 OA
BRANCH  50  52
ATOM     52  O   UNL     1       7.756   5.014 -13.643  0.00  0.00    -0.444 OA
ATOM     53  C   UNL     1       6.662   5.705 -14.239  0.00  0.00    +0.256 C 
ENDBRANCH  50  52
ENDBRANCH  49  50
ENDBRANCH  48  49
ENDBRANCH  19  48
TORSDOF 12
ENDMDL
MODEL 5
REMARK VINA RESULT:      -1.6      4.052     11.907
REMARK  Name = 
REMARK  12 active torsions:
REMARK  status: ('A' for Active; 'I' for Inactive)
REMARK    1  A    between atoms: C_2  and  C_3
REMARK    2  A    between atoms: C_24  and  C_25
REMARK    3  A    between atoms: C_25  and  C_26
REMARK    4  A    between atoms: C_26  and  C_27
REMARK    5  A    between atoms: C_30  and  C_31
REMARK    6  A    between atoms: C_31  and  C_32
REMARK    7  A    between atoms: C_32  and  C_33
REMARK    8  A    between atoms: C_33  and  O_35
REMARK    9  A    between atoms: C_44  and  C_45
REMARK   10  A    between atoms: C_45  and  O_47
REMARK   11  A    between atoms: C_49  and  C_50
REMARK   12  A    between atoms: C_50  and  O_52
REMARK                            x       y       z     vdW  Elec       q    Type
REMARK                         _______ _______ _______ _____ _____    ______ ____
ROOT
ATOM      1  C   UNL     1       6.739   5.905  -9.313  0.00  0.00    +0.015 A 
ATOM      2  C   UNL     1       5.642   5.871  -8.463  0.00  0.00    +0.082 A 
ATOM      3  N   UNL     1       4.477   5.910  -9.135  0.00  0.00    -0.246 NA
ATOM      4  C   UNL     1       4.871   5.864 -10.426  0.00  0.00    +0.079 A 
ATOM      5  C   UNL     1       4.107   6.604 -11.322  0.00  0.00    +0.038 C 
ATOM      6  C   UNL     1       2.753   6.466 -11.186  0.00  0.00    +0.079 C 
ATOM      7  C   UNL     1       1.773   6.674 -12.265  0.00  0.00    +0.001 C 
ATOM      8  C   UNL     1       1.770   7.534 -13.295  0.00  0.00    -0.003 C 
ATOM      9  C   UNL     1       0.616   7.226 -14.166  0.00  0.00    +0.002 C 
ATOM     10  C   UNL     1       0.113   6.023 -13.866  0.00  0.00    +0.064 C 
ATOM     11  C   UNL     1      -0.683   5.998 -12.459  0.00  0.00    +0.136 C 
ATOM     12  C   UNL     1       0.543   6.556 -11.560  0.00  0.00    +0.070 C 
ATOM     13  C   UNL     1       0.127   7.945 -11.095  0.00  0.00    +0.011 C 
ATOM     14  C   UNL     1       0.872   5.644 -10.473  0.00  0.00    +0.064 C 
ATOM     15  C   UNL     1       0.207   4.851  -9.541  0.00  0.00    +0.034 C 
ATOM     16  C   UNL     1       0.286   5.083  -8.169  0.00  0.00    +0.078 A 
ATOM     17  C   UNL     1      -0.679   5.139  -7.161  0.00  0.00    -0.007 A 
ATOM     18  C   UNL     1      -1.890   4.319  -7.107  0.00  0.00    +0.032 C 
ATOM     19  C   UNL     1      -0.499   6.321  -6.450  0.00  0.00    -0.006 A 
ATOM     20  C   UNL     1       0.822   6.653  -6.743  0.00  0.00    +0.079 A 
ATOM     21  C   UNL     1       1.746   7.355  -5.974  0.00  0.00    +0.038 C 
ATOM     22  C   UNL     1       3.039   6.890  -5.767  0.00  0.00    +0.079 C 
ATOM     23  C   UNL     1       3.801   6.722  -4.616  0.00  0.00    -0.006 C 
ATOM     24  C   UNL     1       4.696   5.714  -4.944  0.00  0.00    -0.007 C 
ATOM     25  C   UNL     1       5.583   4.966  -4.006  0.00  0.00    +0.032 C 
ATOM     26  C   UNL     1       4.645   5.604  -6.333  0.00  0.00    +0.079 C 
ATOM     27  N   UNL     1       3.586   6.243  -6.823  0.00  0.00    -0.246 NA
ATOM     28  N   UNL     1       1.298   5.875  -7.730  0.00  0.00    -0.246 NA
ATOM     29  N   UNL     1       2.147   5.939 -10.091  0.00  0.00    -0.250 NA
ATOM     30  C   UNL     1       5.727   5.410  -7.151  0.00  0.00    +0.038 C 
ATOM     31  C   UNL     1       6.206   5.543 -10.545  0.00  0.00    -0.003 A 
ATOM     32  C   UNL     1       6.974   5.281 -11.805  0.00  0.00    +0.033 C 
ENDROOT
BRANCH  11  33
ATOM     33  C   UNL     1      -0.402   4.441 -12.181  0.00  0.00    +0.322 C 
ATOM     34  O   UNL     1       0.529   3.863 -12.694  0.00  0.00    -0.250 OA
BRANCH  33  35
ATOM     35  O   UNL     1      -1.648   3.800 -12.192  0.00  0.00    -0.444 OA
ATOM     36  C   UNL     1      -1.892   2.824 -11.214  0.00  0.00    +0.256 C 
ENDBRANCH  33  35
ENDBRANCH  11  33
BRANCH  10  37
ATOM     37  C   UNL     1      -0.365   5.095 -14.888  0.00  0.00    +0.338 C 
ATOM     38  O   UNL     1      -0.800   5.535 -15.997  0.00  0.00    -0.245 OA
BRANCH  37  39
ATOM     39  O   UNL     1       0.042   3.759 -14.942  0.00  0.00    -0.442 OA
ATOM     40  C   UNL     1      -0.825   2.702 -15.346  0.00  0.00    +0.256 C 
ENDBRANCH  37  39
ENDBRANCH  10  37
BRANCH   1  42
ATOM     41  C   UNL     1       8.837   7.124  -9.111  0.00  0.00    +0.000 C 
ATOM     42  C   UNL     1       8.163   5.992  -8.962  0.00  0.00    +0.001 C 
ENDBRANCH   1  42
BRANCH  23  43
ATOM     43  C   UNL     1       3.407   7.086  -3.217  0.00  0.00    +0.039 C 
BRANCH  43  44
ATOM     44  C   UNL     1       2.342   6.142  -2.686  0.00  0.00    +0.119 C 
BRANCH  44  45
ATOM     45  C   UNL     1       2.798   5.730  -1.324  0.00  0.00    +0.365 C 
ATOM     46  O   UNL     1       1.858   5.268  -0.400  0.00  0.00    -0.246 OA
ATOM     47  O   UNL     1       3.956   6.046  -0.980  0.00  0.00    -0.246 OA
ENDBRANCH  44  45
ENDBRANCH  43  44
ENDBRANCH  23  43
BRANCH  19  48
ATOM     48  C   UNL     1      -1.476   7.214  -5.805  0.00  0.00    +0.039 C 
BRANCH  48  49
ATOM     49  C   UNL     1      -1.306   7.081  -4.294  0.00  0.00    +0.114 C 
BRANCH  49  50
ATOM     50  C   UNL     1      -1.817   5.800  -3.780  0.00  0.00    +0.317 C 
ATOM     51  O   UNL     1      -1.022   5.154  -3.033  0.00  0.00    -0.250 OA
BRANCH  50  52
ATOM     52  O   UNL     1      -3.172   5.533  -3.562  0.00  0.00    -0.444 OA
ATOM     53  C   UNL     1      -3.805   6.388  -2.613  0.00  0.00    +0.256 C 
ENDBRANCH  50  52
ENDBRANCH  49  50
ENDBRANCH  48  49
ENDBRANCH  19  48
TORSDOF 12
ENDMDL
MODEL 6
REMARK VINA RESULT:      -1.4      6.007     14.071
REMARK  Name = 
REMARK  12 active torsions:
REMARK  status: ('A' for Active; 'I' for Inactive)
REMARK    1  A    between atoms: C_2  and  C_3
REMARK    2  A    between atoms: C_24  and  C_25
REMARK    3  A    between atoms: C_25  and  C_26
REMARK    4  A    between atoms: C_26  and  C_27
REMARK    5  A    between atoms: C_30  and  C_31
REMARK    6  A    between atoms: C_31  and  C_32
REMARK    7  A    between atoms: C_32  and  C_33
REMARK    8  A    between atoms: C_33  and  O_35
REMARK    9  A    between atoms: C_44  and  C_45
REMARK   10  A    between atoms: C_45  and  O_47
REMARK   11  A    between atoms: C_49  and  C_50
REMARK   12  A    between atoms: C_50  and  O_52
REMARK                            x       y       z     vdW  Elec       q    Type
REMARK                         _______ _______ _______ _____ _____    ______ ____
ROOT
ATOM      1  C   UNL     1       7.216   6.497 -13.237  0.00  0.00    +0.015 A 
ATOM      2  C   UNL     1       6.262   6.153 -12.289  0.00  0.00    +0.082 A 
ATOM      3  N   UNL     1       5.008   6.279 -12.762  0.00  0.00    -0.246 NA
ATOM      4  C   UNL     1       5.205   6.611 -14.056  0.00  0.00    +0.079 A 
ATOM      5  C   UNL     1       4.287   7.503 -14.602  0.00  0.00    +0.038 C 
ATOM      6  C   UNL     1       2.975   7.228 -14.328  0.00  0.00    +0.079 C 
ATOM      7  C   UNL     1       1.837   7.641 -15.166  0.00  0.00    +0.001 C 
ATOM      8  C   UNL     1       1.647   8.742 -15.909  0.00  0.00    -0.003 C 
ATOM      9  C   UNL     1       0.387   8.590 -16.668  0.00  0.00    +0.002 C 
ATOM     10  C   UNL     1      -0.020   7.316 -16.646  0.00  0.00    +0.064 C 
ATOM     11  C   UNL     1      -0.594   6.854 -15.207  0.00  0.00    +0.136 C 
ATOM     12  C   UNL     1       0.732   7.244 -14.362  0.00  0.00    +0.070 C 
ATOM     13  C   UNL     1       0.339   8.423 -13.481  0.00  0.00    +0.011 C 
ATOM     14  C   UNL     1       1.255   6.104 -13.623  0.00  0.00    +0.064 C 
ATOM     15  C   UNL     1       0.768   5.042 -12.865  0.00  0.00    +0.034 C 
ATOM     16  C   UNL     1       1.044   4.904 -11.506  0.00  0.00    +0.078 A 
ATOM     17  C   UNL     1       0.241   4.614 -10.401  0.00  0.00    -0.007 A 
ATOM     18  C   UNL     1      -0.916   3.719 -10.413  0.00  0.00    +0.032 C 
ATOM     19  C   UNL     1       0.481   5.573  -9.423  0.00  0.00    -0.006 A 
ATOM     20  C   UNL     1       1.729   6.073  -9.788  0.00  0.00    +0.079 A 
ATOM     21  C   UNL     1       2.732   6.613  -8.987  0.00  0.00    +0.038 C 
ATOM     22  C   UNL     1       4.058   6.211  -9.092  0.00  0.00    +0.079 C 
ATOM     23  C   UNL     1       4.990   5.800  -8.145  0.00  0.00    -0.006 C 
ATOM     24  C   UNL     1       5.863   4.989  -8.856  0.00  0.00    -0.007 C 
ATOM     25  C   UNL     1       6.908   4.088  -8.289  0.00  0.00    +0.032 C 
ATOM     26  C   UNL     1       5.607   5.250 -10.201  0.00  0.00    +0.079 C 
ATOM     27  N   UNL     1       4.463   5.913 -10.349  0.00  0.00    -0.246 NA
ATOM     28  N   UNL     1       2.080   5.626 -11.006  0.00  0.00    -0.246 NA
ATOM     29  N   UNL     1       2.561   6.384 -13.350  0.00  0.00    -0.250 NA
ATOM     30  C   UNL     1       6.560   5.366 -11.179  0.00  0.00    +0.038 C 
ATOM     31  C   UNL     1       6.518   6.438 -14.437  0.00  0.00    -0.003 A 
ATOM     32  C   UNL     1       7.096   6.582 -15.813  0.00  0.00    +0.033 C 
ENDROOT
BRANCH  11  33
ATOM     33  C   UNL     1      -0.216   5.306 -15.408  0.00  0.00    +0.322 C 
ATOM     34  O   UNL     1       0.842   4.969 -15.889  0.00  0.00    -0.250 OA
BRANCH  33  35
ATOM     35  O   UNL     1      -1.372   4.668 -15.876  0.00  0.00    -0.444 OA
ATOM     36  C   UNL     1      -1.367   3.266 -15.939  0.00  0.00    +0.256 C 
ENDBRANCH  33  35
ENDBRANCH  11  33
BRANCH  10  37
ATOM     37  C   UNL     1      -0.611   6.661 -17.810  0.00  0.00    +0.338 C 
ATOM     38  O   UNL     1       0.131   6.222 -18.741  0.00  0.00    -0.245 OA
BRANCH  37  39
ATOM     39  O   UNL     1      -1.875   6.063 -17.778  0.00  0.00    -0.442 OA
ATOM     40  C   UNL     1      -3.025   6.650 -18.381  0.00  0.00    +0.256 C 
ENDBRANCH  37  39
ENDBRANCH  10  37
BRANCH   1  42
ATOM     41  C   UNL     1       9.329   5.770 -12.270  0.00  0.00    +0.000 C 
ATOM     42  C   UNL     1       8.672   6.597 -13.071  0.00  0.00    +0.001 C 
ENDBRANCH   1  42
BRANCH  23  43
ATOM     43  C   UNL     1       4.798   5.746  -6.661  0.00  0.00    +0.039 C 
BRANCH  43  44
ATOM     44  C   UNL     1       3.533   4.985  -6.301  0.00  0.00    +0.119 C 
BRANCH  44  45
ATOM     45  C   UNL     1       3.550   4.836  -4.815  0.00  0.00    +0.365 C 
ATOM     46  O   UNL     1       2.437   5.241  -4.075  0.00  0.00    -0.246 OA
ATOM     47  O   UNL     1       4.646   4.588  -4.270  0.00  0.00    -0.246 OA
ENDBRANCH  44  45
ENDBRANCH  43  44
ENDBRANCH  23  43
BRANCH  19  48
ATOM     48  C   UNL     1      -0.420   6.184  -8.431  0.00  0.00    +0.039 C 
BRANCH  48  49
ATOM     49  C   UNL     1      -0.280   5.402  -7.128  0.00  0.00    +0.114 C 
BRANCH  49  50
ATOM     50  C   UNL     1      -0.874   6.107  -5.980  0.00  0.00    +0.317 C 
ATOM     51  O   UNL     1      -0.099   6.899  -5.364  0.00  0.00    -0.250 OA
BRANCH  50  52
ATOM     52  O   UNL     1      -2.234   6.418  -5.875  0.00  0.00    -0.444 OA
ATOM     53  C   UNL     1      -2.525   7.569  -5.087  0.00  0.00    +0.256 C 
ENDBRANCH  50  52
ENDBRANCH  49  50
ENDBRANCH  48  49
ENDBRANCH  19  48
TORSDOF 12
ENDMDL
MODEL 7
REMARK VINA RESULT:      -1.1      2.282      7.525
REMARK  Name = 
REMARK  12 active torsions:
REMARK  status: ('A' for Active; 'I' for Inactive)
REMARK    1  A    between atoms: C_2  and  C_3
REMARK    2  A    between atoms: C_24  and  C_25
REMARK    3  A    between atoms: C_25  and  C_26
REMARK    4  A    between atoms: C_26  and  C_27
REMARK    5  A    between atoms: C_30  and  C_31
REMARK    6  A    between atoms: C_31  and  C_32
REMARK    7  A    between atoms: C_32  and  C_33
REMARK    8  A    between atoms: C_33  and  O_35
REMARK    9  A    between atoms: C_44  and  C_45
REMARK   10  A    between atoms: C_45  and  O_47
REMARK   11  A    between atoms: C_49  and  C_50
REMARK   12  A    between atoms: C_50  and  O_52
REMARK                            x       y       z     vdW  Elec       q    Type
REMARK                         _______ _______ _______ _____ _____    ______ ____
ROOT
ATOM      1  C   UNL     1      -3.489   6.250  -3.306  0.00  0.00    +0.015 A 
ATOM      2  C   UNL     1      -2.467   6.623  -2.443  0.00  0.00    +0.082 A 
ATOM      3  N   UNL     1      -1.251   6.456  -2.994  0.00  0.00    -0.246 NA
ATOM      4  C   UNL     1      -1.541   6.070  -4.255  0.00  0.00    +0.079 A 
ATOM      5  C   UNL     1      -0.673   5.140  -4.821  0.00  0.00    +0.038 C 
ATOM      6  C   UNL     1       0.658   5.407  -4.651  0.00  0.00    +0.079 C 
ATOM      7  C   UNL     1       1.731   4.941  -5.545  0.00  0.00    +0.001 C 
ATOM      8  C   UNL     1       1.856   3.805  -6.247  0.00  0.00    -0.003 C 
ATOM      9  C   UNL     1       3.062   3.904  -7.097  0.00  0.00    +0.002 C 
ATOM     10  C   UNL     1       3.485   5.171  -7.162  0.00  0.00    +0.064 C 
ATOM     11  C   UNL     1       4.162   5.689  -5.788  0.00  0.00    +0.136 C 
ATOM     12  C   UNL     1       2.893   5.357  -4.837  0.00  0.00    +0.070 C 
ATOM     13  C   UNL     1       3.332   4.214  -3.932  0.00  0.00    +0.011 C 
ATOM     14  C   UNL     1       2.435   6.538  -4.118  0.00  0.00    +0.064 C 
ATOM     15  C   UNL     1       2.986   7.626  -3.444  0.00  0.00    +0.034 C 
ATOM     16  C   UNL     1       2.806   7.829  -2.078  0.00  0.00    +0.078 A 
ATOM     17  C   UNL     1       3.687   8.157  -1.045  0.00  0.00    -0.007 A 
ATOM     18  C   UNL     1       4.851   9.033  -1.177  0.00  0.00    +0.032 C 
ATOM     19  C   UNL     1       3.504   7.246  -0.010  0.00  0.00    -0.006 A 
ATOM     20  C   UNL     1       2.228   6.749  -0.265  0.00  0.00    +0.079 A 
ATOM     21  C   UNL     1       1.277   6.261   0.627  0.00  0.00    +0.038 C 
ATOM     22  C   UNL     1      -0.049   6.677   0.595  0.00  0.00    +0.079 C 
ATOM     23  C   UNL     1      -0.908   7.144   1.583  0.00  0.00    -0.006 C 
ATOM     24  C   UNL     1      -1.819   7.935   0.897  0.00  0.00    -0.007 C 
ATOM     25  C   UNL     1      -2.812   8.876   1.492  0.00  0.00    +0.032 C 
ATOM     26  C   UNL     1      -1.660   7.609  -0.449  0.00  0.00    +0.079 C 
ATOM     27  N   UNL     1      -0.536   6.923  -0.644  0.00  0.00    -0.246 NA
ATOM     28  N   UNL     1       1.799   7.146  -1.475  0.00  0.00    -0.246 NA
ATOM     29  N   UNL     1       1.149   6.290  -3.743  0.00  0.00    -0.250 NA
ATOM     30  C   UNL     1      -2.679   7.463  -1.353  0.00  0.00    +0.038 C 
ATOM     31  C   UNL     1      -2.874   6.244  -4.553  0.00  0.00    -0.003 A 
ATOM     32  C   UNL     1      -3.548   6.047  -5.878  0.00  0.00    +0.033 C 
ENDROOT
BRANCH  11  33
ATOM     33  C   UNL     1       3.789   7.232  -6.035  0.00  0.00    +0.322 C 
ATOM     34  O   UNL     1       3.105   7.577  -6.972  0.00  0.00    -0.250 OA
BRANCH  33  35
ATOM     35  O   UNL     1       4.949   7.973  -5.772  0.00  0.00    -0.444 OA
ATOM     36  C   UNL     1       5.606   7.751  -4.553  0.00  0.00    +0.256 C 
ENDBRANCH  33  35
ENDBRANCH  11  33
BRANCH  10  37
ATOM     37  C   UNL     1       4.001   5.764  -8.393  0.00  0.00    +0.338 C 
ATOM     38  O   UNL     1       5.244   5.727  -8.647  0.00  0.00    -0.245 OA
BRANCH  37  39
ATOM     39  O   UNL     1       3.207   5.955  -9.528  0.00  0.00    -0.442 OA
ATOM     40  C   UNL     1       3.746   6.308 -10.799  0.00  0.00    +0.256 C 
ENDBRANCH  37  39
ENDBRANCH  10  37
BRANCH   1  42
ATOM     41  C   UNL     1      -5.750   7.146  -3.425  0.00  0.00    +0.000 C 
ATOM     42  C   UNL     1      -4.931   6.178  -3.036  0.00  0.00    +0.001 C 
ENDBRANCH   1  42
BRANCH  23  43
ATOM     43  C   UNL     1      -0.613   7.262   3.047  0.00  0.00    +0.039 C 
BRANCH  43  44
ATOM     44  C   UNL     1       0.710   7.971   3.282  0.00  0.00    +0.119 C 
BRANCH  44  45
ATOM     45  C   UNL     1       0.475   9.407   2.943  0.00  0.00    +0.365 C 
ATOM     46  O   UNL     1       1.232  10.002   1.931  0.00  0.00    -0.246 OA
ATOM     47  O   UNL     1      -0.210  10.085   3.736  0.00  0.00    -0.246 OA
ENDBRANCH  44  45
ENDBRANCH  43  44
ENDBRANCH  23  43
BRANCH  19  48
ATOM     48  C   UNL     1       4.465   6.668   0.945  0.00  0.00    +0.039 C 
BRANCH  48  49
ATOM     49  C   UNL     1       5.333   5.668   0.188  0.00  0.00    +0.114 C 
BRANCH  49  50
ATOM     50  C   UNL     1       4.540   4.756  -0.653  0.00  0.00    +0.317 C 
ATOM     51  O   UNL     1       4.632   4.946  -1.903  0.00  0.00    -0.250 OA
BRANCH  50  52
ATOM     52  O   UNL     1       4.201   3.451  -0.282  0.00  0.00    -0.444 OA
ATOM     53  C   UNL     1       3.003   2.954  -0.874  0.00  0.00    +0.256 C 
ENDBRANCH  50  52
ENDBRANCH  49  50
ENDBRANCH  48  49
ENDBRANCH  19  48
TORSDOF 12
ENDMDL
