MODEL 1
REMARK VINA RESULT:      -8.7      0.000      0.000
REMARK  Name = 
REMARK  1 active torsions:
REMARK  status: ('A' for Active; 'I' for Inactive)
REMARK    1  A    between atoms: C_10  and  C_11
REMARK                            x       y       z     vdW  Elec       q    Type
REMARK                         _______ _______ _______ _____ _____    ______ ____
ROOT
ATOM      1  C   UNL     1      -0.385   7.256 -11.585  0.00  0.00    +0.120 C 
ATOM      2  N   UNL     1       0.783   6.506 -11.712  0.00  0.00    -0.253 N 
ATOM      3  C   UNL     1       1.568   6.707 -12.903  0.00  0.00    +0.284 C 
ATOM      4  O   UNL     1       0.805   6.888 -13.896  0.00  0.00    -0.270 OA
ATOM      5  C   UNL     1       2.546   5.410 -13.293  0.00  0.00    +0.331 C 
ATOM      6  O   UNL     1       3.066   6.132 -14.579  0.00  0.00    -0.186 OA
ATOM      7  N   UNL     1       3.767   6.014 -12.410  0.00  0.00    -0.233 NA
ATOM      8  C   UNL     1       3.776   5.804 -11.125  0.00  0.00    +0.080 C 
ATOM      9  C   UNL     1       2.663   5.810 -10.159  0.00  0.00    +0.032 A 
ATOM     10  C   UNL     1       3.090   5.889  -8.836  0.00  0.00    +0.014 A 
ATOM     11  C   UNL     1       2.154   6.248  -7.875  0.00  0.00    +0.058 A 
ATOM     12 CL   UNL     1       2.550   7.231  -6.476  0.00  0.00    -0.082 Cl
ATOM     13  C   UNL     1       0.835   5.914  -8.175  0.00  0.00    +0.013 A 
ATOM     14  C   UNL     1       0.352   5.949  -9.479  0.00  0.00    +0.016 A 
ATOM     15  C   UNL     1       1.316   5.991 -10.479  0.00  0.00    +0.055 A 
ENDROOT
BRANCH   8  16
ATOM     16  C   UNL     1       5.019   6.356 -10.558  0.00  0.00    +0.017 A 
ATOM     17  C   UNL     1       5.396   7.615 -11.014  0.00  0.00    +0.001 A 
ATOM     18  C   UNL     1       6.753   7.871 -11.194  0.00  0.00    +0.000 A 
ATOM     19  C   UNL     1       7.620   7.153 -10.381  0.00  0.00    +0.000 A 
ATOM     20  C   UNL     1       7.308   5.851 -10.040  0.00  0.00    +0.000 A 
ATOM     21  C   UNL     1       5.991   5.435 -10.189  0.00  0.00    +0.001 A 
ENDBRANCH   8  16
TORSDOF 1
ENDMDL
MODEL 2
REMARK VINA RESULT:      -8.5      3.336      4.688
REMARK  Name = 
REMARK  1 active torsions:
REMARK  status: ('A' for Active; 'I' for Inactive)
REMARK    1  A    between atoms: C_10  and  C_11
REMARK                            x       y       z     vdW  Elec       q    Type
REMARK                         _______ _______ _______ _____ _____    ______ ____
ROOT
ATOM      1  C   UNL     1       0.838   6.612 -10.246  0.00  0.00    +0.120 C 
ATOM      2  N   UNL     1       1.651   5.849  -9.410  0.00  0.00    -0.253 N 
ATOM      3  C   UNL     1       3.076   6.003  -9.560  0.00  0.00    +0.284 C 
ATOM      4  O   UNL     1       3.366   6.154 -10.782  0.00  0.00    -0.270 OA
ATOM      5  C   UNL     1       3.956   4.686  -9.028  0.00  0.00    +0.331 C 
ATOM      6  O   UNL     1       5.302   5.358  -9.452  0.00  0.00    -0.186 OA
ATOM      7  N   UNL     1       4.065   5.312  -7.534  0.00  0.00    -0.233 NA
ATOM      8  C   UNL     1       3.070   5.147  -6.710  0.00  0.00    +0.080 C 
ATOM      9  C   UNL     1       1.619   5.196  -6.960  0.00  0.00    +0.032 A 
ATOM     10  C   UNL     1       0.869   5.318  -5.793  0.00  0.00    +0.014 A 
ATOM     11  C   UNL     1      -0.456   5.718  -5.916  0.00  0.00    +0.058 A 
ATOM     12 CL   UNL     1      -1.256   6.747  -4.740  0.00  0.00    -0.082 Cl
ATOM     13  C   UNL     1      -1.070   5.383  -7.121  0.00  0.00    +0.013 A 
ATOM     14  C   UNL     1      -0.367   5.375  -8.321  0.00  0.00    +0.016 A 
ATOM     15  C   UNL     1       1.019   5.375  -8.208  0.00  0.00    +0.055 A 
ENDROOT
BRANCH   8  16
ATOM     16  C   UNL     1       3.437   5.711  -5.398  0.00  0.00    +0.017 A 
ATOM     17  C   UNL     1       3.756   7.064  -5.378  0.00  0.00    +0.001 A 
ATOM     18  C   UNL     1       4.774   7.488  -4.529  0.00  0.00    +0.000 A 
ATOM     19  C   UNL     1       4.968   6.725  -3.384  0.00  0.00    +0.000 A 
ATOM     20  C   UNL     1       4.782   5.358  -3.442  0.00  0.00    +0.000 A 
ATOM     21  C   UNL     1       4.049   4.843  -4.504  0.00  0.00    +0.001 A 
ENDBRANCH   8  16
TORSDOF 1
ENDMDL
MODEL 3
REMARK VINA RESULT:      -8.3      4.236      7.073
REMARK  Name = 
REMARK  1 active torsions:
REMARK  status: ('A' for Active; 'I' for Inactive)
REMARK    1  A    between atoms: C_10  and  C_11
REMARK                            x       y       z     vdW  Elec       q    Type
REMARK                         _______ _______ _______ _____ _____    ______ ____
ROOT
ATOM      1  C   UNL     1       4.658   5.906  -8.625  0.00  0.00    +0.120 C 
ATOM      2  N   UNL     1       3.611   5.344  -7.897  0.00  0.00    -0.253 N 
ATOM      3  C   UNL     1       3.671   5.456  -6.462  0.00  0.00    +0.284 C 
ATOM      4  O   UNL     1       4.869   5.334  -6.072  0.00  0.00    -0.270 OA
ATOM      5  C   UNL     1       2.794   4.285  -5.656  0.00  0.00    +0.331 C 
ATOM      6  O   UNL     1       3.241   4.843  -4.266  0.00  0.00    -0.186 OA
ATOM      7  N   UNL     1       1.469   5.223  -5.654  0.00  0.00    -0.233 NA
ATOM      8  C   UNL     1       0.714   5.246  -6.715  0.00  0.00    +0.080 C 
ATOM      9  C   UNL     1       1.089   5.244  -8.140  0.00  0.00    +0.032 A 
ATOM     10  C   UNL     1       0.043   5.621  -8.979  0.00  0.00    +0.014 A 
ATOM     11  C   UNL     1       0.360   5.989 -10.281  0.00  0.00    +0.058 A 
ATOM     12 CL   UNL     1      -0.492   7.252 -11.151  0.00  0.00    -0.082 Cl
ATOM     13  C   UNL     1       1.509   5.399 -10.803  0.00  0.00    +0.013 A 
ATOM     14  C   UNL     1       2.616   5.126 -10.006  0.00  0.00    +0.016 A 
ATOM     15  C   UNL     1       2.391   5.146  -8.634  0.00  0.00    +0.055 A 
ENDROOT
BRANCH   8  16
ATOM     16  C   UNL     1      -0.469   6.083  -6.444  0.00  0.00    +0.017 A 
ATOM     17  C   UNL     1      -0.264   7.189  -5.625  0.00  0.00    +0.001 A 
ATOM     18  C   UNL     1      -1.270   7.539  -4.729  0.00  0.00    +0.000 A 
ATOM     19  C   UNL     1      -2.564   7.197  -5.102  0.00  0.00    +0.000 A 
ATOM     20  C   UNL     1      -2.780   6.024  -5.799  0.00  0.00    +0.000 A 
ATOM     21  C   UNL     1      -1.694   5.431  -6.432  0.00  0.00    +0.001 A 
ENDBRANCH   8  16
TORSDOF 1
ENDMDL
MODEL 4
REMARK VINA RESULT:      -8.2      2.615      3.478
REMARK  Name = 
REMARK  1 active torsions:
REMARK  status: ('A' for Active; 'I' for Inactive)
REMARK    1  A    between atoms: C_10  and  C_11
REMARK                            x       y       z     vdW  Elec       q    Type
REMARK                         _______ _______ _______ _____ _____    ______ ____
ROOT
ATOM      1  C   UNL     1       0.069   6.069  -6.445  0.00  0.00    +0.120 C 
ATOM      2  N   UNL     1       1.027   5.467  -7.259  0.00  0.00    -0.253 N 
ATOM      3  C   UNL     1       0.829   5.554  -8.683  0.00  0.00    +0.284 C 
ATOM      4  O   UNL     1      -0.404   5.454  -8.953  0.00  0.00    -0.270 OA
ATOM      5  C   UNL     1       1.597   4.347  -9.546  0.00  0.00    +0.331 C 
ATOM      6  O   UNL     1       1.029   4.890 -10.897  0.00  0.00    -0.186 OA
ATOM      7  N   UNL     1       2.936   5.253  -9.696  0.00  0.00    -0.233 NA
ATOM      8  C   UNL     1       3.791   5.278  -8.715  0.00  0.00    +0.080 C 
ATOM      9  C   UNL     1       3.558   5.311  -7.260  0.00  0.00    +0.032 A 
ATOM     10  C   UNL     1       4.688   5.679  -6.535  0.00  0.00    +0.014 A 
ATOM     11  C   UNL     1       4.508   6.078  -5.217  0.00  0.00    +0.058 A 
ATOM     12 CL   UNL     1       5.470   7.337  -4.461  0.00  0.00    -0.082 Cl
ATOM     13  C   UNL     1       3.403   5.527  -4.573  0.00  0.00    +0.013 A 
ATOM     14  C   UNL     1       2.218   5.265  -5.253  0.00  0.00    +0.016 A 
ATOM     15  C   UNL     1       2.308   5.254  -6.640  0.00  0.00    +0.055 A 
ENDROOT
BRANCH   8  16
ATOM     16  C   UNL     1       4.960   6.080  -9.118  0.00  0.00    +0.017 A 
ATOM     17  C   UNL     1       4.729   7.068 -10.069  0.00  0.00    +0.001 A 
ATOM     18  C   UNL     1       5.713   7.305 -11.025  0.00  0.00    +0.000 A 
ATOM     19  C   UNL     1       7.017   7.024 -10.637  0.00  0.00    +0.000 A 
ATOM     20  C   UNL     1       7.259   5.954  -9.798  0.00  0.00    +0.000 A 
ATOM     21  C   UNL     1       6.192   5.441  -9.070  0.00  0.00    +0.001 A 
ENDBRANCH   8  16
TORSDOF 1
ENDMDL
MODEL 5
REMARK VINA RESULT:      -8.0      5.770      8.533
REMARK  Name = 
REMARK  1 active torsions:
REMARK  status: ('A' for Active; 'I' for Inactive)
REMARK    1  A    between atoms: C_10  and  C_11
REMARK                            x       y       z     vdW  Elec       q    Type
REMARK                         _______ _______ _______ _____ _____    ______ ____
ROOT
ATOM      1  C   UNL     1       5.152   7.431  -4.142  0.00  0.00    +0.120 C 
ATOM      2  N   UNL     1       3.990   6.679  -3.979  0.00  0.00    -0.253 N 
ATOM      3  C   UNL     1       3.162   6.985  -2.841  0.00  0.00    +0.284 C 
ATOM      4  O   UNL     1       3.888   7.275  -1.847  0.00  0.00    -0.270 OA
ATOM      5  C   UNL     1       2.187   5.718  -2.356  0.00  0.00    +0.331 C 
ATOM      6  O   UNL     1       1.615   6.555  -1.166  0.00  0.00    -0.186 OA
ATOM      7  N   UNL     1       0.990   6.212  -3.335  0.00  0.00    -0.233 NA
ATOM      8  C   UNL     1       1.028   5.875  -4.592  0.00  0.00    +0.080 C 
ATOM      9  C   UNL     1       2.173   5.803  -5.517  0.00  0.00    +0.032 A 
ATOM     10  C   UNL     1       1.791   5.744  -6.854  0.00  0.00    +0.014 A 
ATOM     11  C   UNL     1       2.756   6.021  -7.815  0.00  0.00    +0.058 A 
ATOM     12 CL   UNL     1       2.396   6.853  -9.318  0.00  0.00    -0.082 Cl
ATOM     13  C   UNL     1       4.068   5.739  -7.440  0.00  0.00    +0.013 A 
ATOM     14  C   UNL     1       4.505   5.910  -6.131  0.00  0.00    +0.016 A 
ATOM     15  C   UNL     1       3.506   6.036  -5.172  0.00  0.00    +0.055 A 
ENDROOT
BRANCH   8  16
ATOM     16  C   UNL     1      -0.202   6.349  -5.252  0.00  0.00    +0.017 A 
ATOM     17  C   UNL     1      -0.687   7.584  -4.834  0.00  0.00    +0.001 A 
ATOM     18  C   UNL     1      -2.066   7.757  -4.756  0.00  0.00    +0.000 A 
ATOM     19  C   UNL     1      -2.826   6.984  -5.625  0.00  0.00    +0.000 A 
ATOM     20  C   UNL     1      -2.411   5.703  -5.932  0.00  0.00    +0.000 A 
ATOM     21  C   UNL     1      -1.086   5.369  -5.685  0.00  0.00    +0.001 A 
ENDBRANCH   8  16
TORSDOF 1
ENDMDL
MODEL 6
REMARK VINA RESULT:      -7.9      3.857      6.111
REMARK  Name = 
REMARK  1 active torsions:
REMARK  status: ('A' for Active; 'I' for Inactive)
REMARK    1  A    between atoms: C_10  and  C_11
REMARK                            x       y       z     vdW  Elec       q    Type
REMARK                         _______ _______ _______ _____ _____    ______ ____
ROOT
ATOM      1  C   UNL     1       3.494   7.051  -5.063  0.00  0.00    +0.120 C 
ATOM      2  N   UNL     1       2.700   6.178  -5.805  0.00  0.00    -0.253 N 
ATOM      3  C   UNL     1       1.275   6.386  -5.760  0.00  0.00    +0.284 C 
ATOM      4  O   UNL     1       0.929   6.744  -4.597  0.00  0.00    -0.270 OA
ATOM      5  C   UNL     1       0.383   5.019  -6.115  0.00  0.00    +0.331 C 
ATOM      6  O   UNL     1      -0.961   5.782  -5.881  0.00  0.00    -0.186 OA
ATOM      7  N   UNL     1       0.368   5.390  -7.696  0.00  0.00    -0.233 NA
ATOM      8  C   UNL     1       1.398   5.069  -8.425  0.00  0.00    +0.080 C 
ATOM      9  C   UNL     1       2.835   5.126  -8.108  0.00  0.00    +0.032 A 
ATOM     10  C   UNL     1       3.646   5.036  -9.236  0.00  0.00    +0.014 A 
ATOM     11  C   UNL     1       4.975   5.421  -9.109  0.00  0.00    +0.058 A 
ATOM     12 CL   UNL     1       5.864   6.222 -10.393  0.00  0.00    -0.082 Cl
ATOM     13  C   UNL     1       5.517   5.278  -7.834  0.00  0.00    +0.013 A 
ATOM     14  C   UNL     1       4.755   5.485  -6.689  0.00  0.00    +0.016 A 
ATOM     15  C   UNL     1       3.377   5.496  -6.876  0.00  0.00    +0.055 A 
ENDROOT
BRANCH   8  16
ATOM     16  C   UNL     1       1.115   5.414  -9.830  0.00  0.00    +0.017 A 
ATOM     17  C   UNL     1       0.890   6.760 -10.099  0.00  0.00    +0.001 A 
ATOM     18  C   UNL     1      -0.067   7.090 -11.054  0.00  0.00    +0.000 A 
ATOM     19  C   UNL     1      -0.275   6.151 -12.056  0.00  0.00    +0.000 A 
ATOM     20  C   UNL     1      -0.186   4.806 -11.754  0.00  0.00    +0.000 A 
ATOM     21  C   UNL     1       0.474   4.442 -10.587  0.00  0.00    +0.001 A 
ENDBRANCH   8  16
TORSDOF 1
ENDMDL
MODEL 7
REMARK VINA RESULT:      -7.9      3.190      4.155
REMARK  Name = 
REMARK  1 active torsions:
REMARK  status: ('A' for Active; 'I' for Inactive)
REMARK    1  A    between atoms: C_10  and  C_11
REMARK                            x       y       z     vdW  Elec       q    Type
REMARK                         _______ _______ _______ _____ _____    ______ ____
ROOT
ATOM      1  C   UNL     1      -0.202   4.890  -9.201  0.00  0.00    +0.120 C 
ATOM      2  N   UNL     1       0.783   5.874  -9.271  0.00  0.00    -0.253 N 
ATOM      3  C   UNL     1       1.529   6.145  -8.070  0.00  0.00    +0.284 C 
ATOM      4  O   UNL     1       0.767   6.064  -7.063  0.00  0.00    -0.270 OA
ATOM      5  C   UNL     1       2.204   7.673  -8.025  0.00  0.00    +0.331 C 
ATOM      6  O   UNL     1       2.791   7.420  -6.598  0.00  0.00    -0.186 OA
ATOM      7  N   UNL     1       3.566   7.135  -8.726  0.00  0.00    -0.233 NA
ATOM      8  C   UNL     1       3.599   7.014 -10.022  0.00  0.00    +0.080 C 
ATOM      9  C   UNL     1       2.562   6.535 -10.953  0.00  0.00    +0.032 A 
ATOM     10  C   UNL     1       3.065   6.218 -12.212  0.00  0.00    +0.014 A 
ATOM     11  C   UNL     1       2.271   5.443 -13.048  0.00  0.00    +0.058 A 
ATOM     12 CL   UNL     1       2.929   4.246 -14.151  0.00  0.00    -0.082 Cl
ATOM     13  C   UNL     1       0.898   5.559 -12.842  0.00  0.00    +0.013 A 
ATOM     14  C   UNL     1       0.365   5.752 -11.572  0.00  0.00    +0.016 A 
ATOM     15  C   UNL     1       1.264   6.164 -10.596  0.00  0.00    +0.055 A 
ENDROOT
BRANCH   8  16
ATOM     16  C   UNL     1       4.956   6.608 -10.431  0.00  0.00    +0.017 A 
ATOM     17  C   UNL     1       5.550   5.602  -9.676  0.00  0.00    +0.001 A 
ATOM     18  C   UNL     1       6.918   5.681  -9.434  0.00  0.00    +0.000 A 
ATOM     19  C   UNL     1       7.669   6.344 -10.397  0.00  0.00    +0.000 A 
ATOM     20  C   UNL     1       7.124   7.432 -11.050  0.00  0.00    +0.000 A 
ATOM     21  C   UNL     1       5.744   7.592 -11.013  0.00  0.00    +0.001 A 
ENDBRANCH   8  16
TORSDOF 1
ENDMDL
MODEL 8
REMARK VINA RESULT:      -7.9      3.641      6.781
REMARK  Name = 
REMARK  1 active torsions:
REMARK  status: ('A' for Active; 'I' for Inactive)
REMARK    1  A    between atoms: C_10  and  C_11
REMARK                            x       y       z     vdW  Elec       q    Type
REMARK                         _______ _______ _______ _____ _____    ______ ____
ROOT
ATOM      1  C   UNL     1       5.066   5.057  -7.539  0.00  0.00    +0.120 C 
ATOM      2  N   UNL     1       3.991   5.942  -7.476  0.00  0.00    -0.253 N 
ATOM      3  C   UNL     1       3.034   5.891  -8.551  0.00  0.00    +0.284 C 
ATOM      4  O   UNL     1       3.628   5.673  -9.647  0.00  0.00    -0.270 OA
ATOM      5  C   UNL     1       2.175   7.309  -8.757  0.00  0.00    +0.331 C 
ATOM      6  O   UNL     1       1.403   6.717  -9.981  0.00  0.00    -0.186 OA
ATOM      7  N   UNL     1       1.021   6.807  -7.731  0.00  0.00    -0.233 NA
ATOM      8  C   UNL     1       1.212   6.953  -6.452  0.00  0.00    +0.080 C 
ATOM      9  C   UNL     1       2.436   6.771  -5.653  0.00  0.00    +0.032 A 
ATOM     10  C   UNL     1       2.186   6.677  -4.286  0.00  0.00    +0.014 A 
ATOM     11  C   UNL     1       3.194   6.165  -3.479  0.00  0.00    +0.058 A 
ATOM     12 CL   UNL     1       2.876   5.167  -2.071  0.00  0.00    -0.082 Cl
ATOM     13  C   UNL     1       4.491   6.360  -3.949  0.00  0.00    +0.013 A 
ATOM     14  C   UNL     1       4.785   6.335  -5.308  0.00  0.00    +0.016 A 
ATOM     15  C   UNL     1       3.696   6.453  -6.164  0.00  0.00    +0.055 A 
ENDROOT
BRANCH   8  16
ATOM     16  C   UNL     1      -0.000   6.520  -5.735  0.00  0.00    +0.017 A 
ATOM     17  C   UNL     1      -0.675   5.428  -6.271  0.00  0.00    +0.001 A 
ATOM     18  C   UNL     1      -2.066   5.423  -6.220  0.00  0.00    +0.000 A 
ATOM     19  C   UNL     1      -2.638   6.127  -5.168  0.00  0.00    +0.000 A 
ATOM     20  C   UNL     1      -2.038   7.290  -4.725  0.00  0.00    +0.000 A 
ATOM     21  C   UNL     1      -0.709   7.510  -5.068  0.00  0.00    +0.001 A 
ENDBRANCH   8  16
TORSDOF 1
ENDMDL
MODEL 9
REMARK VINA RESULT:      -7.8      6.413      7.672
REMARK  Name = 
REMARK  1 active torsions:
REMARK  status: ('A' for Active; 'I' for Inactive)
REMARK    1  A    between atoms: C_10  and  C_11
REMARK                            x       y       z     vdW  Elec       q    Type
REMARK                         _______ _______ _______ _____ _____    ______ ____
ROOT
ATOM      1  C   UNL     1      -2.366   6.173  -5.881  0.00  0.00    +0.120 C 
ATOM      2  N   UNL     1      -1.222   5.556  -5.378  0.00  0.00    -0.253 N 
ATOM      3  C   UNL     1      -0.054   5.546  -6.221  0.00  0.00    +0.284 C 
ATOM      4  O   UNL     1      -0.397   5.387  -7.428  0.00  0.00    -0.270 OA
ATOM      5  C   UNL     1       1.020   4.316  -5.871  0.00  0.00    +0.331 C 
ATOM      6  O   UNL     1       1.969   4.753  -7.035  0.00  0.00    -0.186 OA
ATOM      7  N   UNL     1       1.815   5.257  -4.813  0.00  0.00    -0.233 NA
ATOM      8  C   UNL     1       1.349   5.372  -3.603  0.00  0.00    +0.080 C 
ATOM      9  C   UNL     1      -0.043   5.487  -3.134  0.00  0.00    +0.032 A 
ATOM     10  C   UNL     1      -0.140   5.939  -1.820  0.00  0.00    +0.014 A 
ATOM     11  C   UNL     1      -1.373   6.413  -1.390  0.00  0.00    +0.058 A 
ATOM     12 CL   UNL     1      -1.542   7.749  -0.264  0.00  0.00    -0.082 Cl
ATOM     13  C   UNL     1      -2.480   5.865  -2.033  0.00  0.00    +0.013 A 
ATOM     14  C   UNL     1      -2.444   5.520  -3.380  0.00  0.00    +0.016 A 
ATOM     15  C   UNL     1      -1.177   5.426  -3.946  0.00  0.00    +0.055 A 
ENDROOT
BRANCH   8  16
ATOM     16  C   UNL     1       2.283   6.188  -2.806  0.00  0.00    +0.017 A 
ATOM     17  C   UNL     1       2.794   7.322  -3.429  0.00  0.00    +0.001 A 
ATOM     18  C   UNL     1       4.116   7.674  -3.173  0.00  0.00    +0.000 A 
ATOM     19  C   UNL     1       4.619   7.291  -1.936  0.00  0.00    +0.000 A 
ATOM     20  C   UNL     1       4.212   6.094  -1.381  0.00  0.00    +0.000 A 
ATOM     21  C   UNL     1       3.051   5.508  -1.870  0.00  0.00    +0.001 A 
ENDBRANCH   8  16
TORSDOF 1
ENDMDL
