MODEL 1
REMARK VINA RESULT:      -8.3      0.000      0.000
REMARK  Name = 
REMARK  7 active torsions:
REMARK  status: ('A' for Active; 'I' for Inactive)
REMARK    1  A    between atoms: C_2  and  C_3
REMARK    2  A    between atoms: C_3  and  C_6
REMARK    3  A    between atoms: C_6  and  O_8
REMARK    4  A    between atoms: O_8  and  C_9
REMARK    5  A    between atoms: C_19  and  C_20
REMARK    6  A    between atoms: C_20  and  C_21
REMARK    7  A    between atoms: C_21  and  C_22
REMARK                            x       y       z     vdW  Elec       q    Type
REMARK                         _______ _______ _______ _____ _____    ______ ____
ROOT
ATOM      1  C   UNL     1      -0.067   6.783  -5.974  0.00  0.00    +0.173 C 
ATOM      2  C   UNL     1      -0.204   7.155  -4.321  0.00  0.00    +0.062 C 
ATOM      3  C   UNL     1      -1.634   7.661  -4.836  0.00  0.00    -0.024 C 
ATOM      4  C   UNL     1      -2.065   8.365  -3.603  0.00  0.00    -0.009 C 
ATOM      5  C   UNL     1      -1.760   7.675  -2.469  0.00  0.00    -0.027 C 
ATOM      6  C   UNL     1      -2.303   6.310  -3.135  0.00  0.00    +0.022 C 
ATOM      7  C   UNL     1      -2.492   5.483  -1.762  0.00  0.00    +0.005 C 
ATOM      8  C   UNL     1      -2.385   6.879  -5.541  0.00  0.00    -0.030 C 
ATOM      9  C   UNL     1      -1.849   5.880  -6.665  0.00  0.00    +0.025 C 
ATOM     10  C   UNL     1      -2.838   4.655  -6.226  0.00  0.00    +0.005 C 
ATOM     11  C   UNL     1      -0.791   5.724  -3.658  0.00  0.00    +0.012 C 
ATOM     12  C   UNL     1      -0.549   5.223  -5.864  0.00  0.00    +0.048 C 
ENDROOT
BRANCH   1  13
ATOM     13  O   UNL     1       1.468   6.622  -6.049  0.00  0.00    -0.452 OA
BRANCH  13  14
ATOM     14  C   UNL     1       1.709   7.019  -7.384  0.00  0.00    +0.316 C 
ATOM     15  O   UNL     1       1.995   8.247  -7.605  0.00  0.00    -0.250 OA
BRANCH  14  16
ATOM     16  C   UNL     1       1.998   6.212  -8.596  0.00  0.00    +0.090 C 
ATOM     17  C   UNL     1       3.178   6.611  -9.410  0.00  0.00    +0.011 C 
ATOM     18  C   UNL     1       2.310   4.783  -8.122  0.00  0.00    +0.011 C 
BRANCH  16  20
ATOM     19  C   UNL     1       0.209   5.348  -9.633  0.00  0.00    +0.001 C 
ATOM     20  C   UNL     1       0.806   5.896  -9.445  0.00  0.00    +0.011 C 
ENDBRANCH  16  20
ENDBRANCH  14  16
ENDBRANCH  13  14
ENDBRANCH   1  13
BRANCH  11  21
ATOM     21  C   UNL     1      -0.035   5.967  -2.269  0.00  0.00    +0.004 C 
BRANCH  21  22
ATOM     22  C   UNL     1       1.425   5.479  -2.401  0.00  0.00    +0.044 C 
BRANCH  22  23
ATOM     23  C   UNL     1       2.010   6.817  -1.589  0.00  0.00    +0.171 C 
ATOM     24  O   UNL     1       2.947   5.990  -0.679  0.00  0.00    -0.452 OA
ATOM     25  C   UNL     1       3.966   6.759  -0.097  0.00  0.00    +0.319 C 
ATOM     26  O   UNL     1       4.726   6.208   0.773  0.00  0.00    -0.250 OA
ATOM     27  C   UNL     1       4.620   7.589  -1.175  0.00  0.00    +0.142 C 
ATOM     28  C   UNL     1       4.455   6.467  -2.377  0.00  0.00    +0.167 C 
ATOM     29  O   UNL     1       5.215   7.334  -3.363  0.00  0.00    -0.222 OA
ATOM     30  C   UNL     1       3.025   7.098  -2.849  0.00  0.00    +0.077 C 
ENDBRANCH  22  23
ENDBRANCH  21  22
ENDBRANCH  11  21
TORSDOF 7
ENDMDL
MODEL 2
REMARK VINA RESULT:      -8.2      2.621      5.486
REMARK  Name = 
REMARK  7 active torsions:
REMARK  status: ('A' for Active; 'I' for Inactive)
REMARK    1  A    between atoms: C_2  and  C_3
REMARK    2  A    between atoms: C_3  and  C_6
REMARK    3  A    between atoms: C_6  and  O_8
REMARK    4  A    between atoms: O_8  and  C_9
REMARK    5  A    between atoms: C_19  and  C_20
REMARK    6  A    between atoms: C_20  and  C_21
REMARK    7  A    between atoms: C_21  and  C_22
REMARK                            x       y       z     vdW  Elec       q    Type
REMARK                         _______ _______ _______ _____ _____    ______ ____
ROOT
ATOM      1  C   UNL     1       1.006   5.857  -3.990  0.00  0.00    +0.173 C 
ATOM      2  C   UNL     1       2.517   5.834  -3.211  0.00  0.00    +0.062 C 
ATOM      3  C   UNL     1       2.860   4.955  -4.506  0.00  0.00    -0.024 C 
ATOM      4  C   UNL     1       4.195   4.465  -4.079  0.00  0.00    -0.009 C 
ATOM      5  C   UNL     1       4.944   5.432  -3.479  0.00  0.00    -0.027 C 
ATOM      6  C   UNL     1       4.538   6.484  -4.632  0.00  0.00    +0.022 C 
ATOM      7  C   UNL     1       5.734   7.535  -4.368  0.00  0.00    +0.005 C 
ATOM      8  C   UNL     1       2.580   5.400  -5.687  0.00  0.00    -0.030 C 
ATOM      9  C   UNL     1       1.259   6.218  -6.056  0.00  0.00    +0.025 C 
ATOM     10  C   UNL     1       2.038   7.288  -7.016  0.00  0.00    +0.005 C 
ATOM     11  C   UNL     1       3.261   7.229  -3.787  0.00  0.00    +0.012 C 
ATOM     12  C   UNL     1       1.213   7.277  -4.777  0.00  0.00    +0.048 C 
ENDROOT
BRANCH   1  13
ATOM     13  O   UNL     1       0.134   6.299  -2.792  0.00  0.00    -0.452 OA
BRANCH  13  14
ATOM     14  C   UNL     1      -1.114   5.745  -3.157  0.00  0.00    +0.316 C 
ATOM     15  O   UNL     1      -1.556   4.756  -2.476  0.00  0.00    -0.250 OA
BRANCH  14  16
ATOM     16  C   UNL     1      -2.197   6.286  -4.016  0.00  0.00    +0.090 C 
ATOM     17  C   UNL     1      -2.394   5.642  -5.343  0.00  0.00    +0.011 C 
ATOM     18  C   UNL     1      -3.520   6.062  -3.267  0.00  0.00    +0.011 C 
BRANCH  16  20
ATOM     19  C   UNL     1      -2.022   8.464  -4.512  0.00  0.00    +0.001 C 
ATOM     20  C   UNL     1      -2.252   7.780  -4.099  0.00  0.00    +0.011 C 
ENDBRANCH  16  20
ENDBRANCH  14  16
ENDBRANCH  13  14
ENDBRANCH   1  13
BRANCH  11  21
ATOM     21  C   UNL     1       4.075   7.449  -2.427  0.00  0.00    +0.004 C 
BRANCH  21  22
ATOM     22  C   UNL     1       3.093   7.362  -1.236  0.00  0.00    +0.044 C 
BRANCH  22  23
ATOM     23  C   UNL     1       4.010   8.422  -0.324  0.00  0.00    +0.171 C 
ATOM     24  O   UNL     1       3.497   9.676  -1.068  0.00  0.00    -0.452 OA
ATOM     25  C   UNL     1       3.696  10.862  -0.346  0.00  0.00    +0.319 C 
ATOM     26  O   UNL     1       3.426  11.976  -0.915  0.00  0.00    -0.250 OA
ATOM     27  C   UNL     1       3.204  10.657   1.066  0.00  0.00    +0.142 C 
ATOM     28  C   UNL     1       1.954   9.653   0.666  0.00  0.00    +0.167 C 
ATOM     29  O   UNL     1       1.475   9.590   2.103  0.00  0.00    -0.222 OA
ATOM     30  C   UNL     1       2.882   8.324   0.865  0.00  0.00    +0.077 C 
ENDBRANCH  22  23
ENDBRANCH  21  22
ENDBRANCH  11  21
TORSDOF 7
ENDMDL
MODEL 3
REMARK VINA RESULT:      -8.0      2.288      5.569
REMARK  Name = 
REMARK  7 active torsions:
REMARK  status: ('A' for Active; 'I' for Inactive)
REMARK    1  A    between atoms: C_2  and  C_3
REMARK    2  A    between atoms: C_3  and  C_6
REMARK    3  A    between atoms: C_6  and  O_8
REMARK    4  A    between atoms: O_8  and  C_9
REMARK    5  A    between atoms: C_19  and  C_20
REMARK    6  A    between atoms: C_20  and  C_21
REMARK    7  A    between atoms: C_21  and  C_22
REMARK                            x       y       z     vdW  Elec       q    Type
REMARK                         _______ _______ _______ _____ _____    ______ ____
ROOT
ATOM      1  C   UNL     1       3.349   5.311  -4.982  0.00  0.00    +0.173 C 
ATOM      2  C   UNL     1       2.684   5.040  -3.442  0.00  0.00    +0.062 C 
ATOM      3  C   UNL     1       4.243   4.957  -3.087  0.00  0.00    -0.024 C 
ATOM      4  C   UNL     1       4.117   4.442  -1.700  0.00  0.00    -0.009 C 
ATOM      5  C   UNL     1       3.113   5.045  -1.004  0.00  0.00    -0.027 C 
ATOM      6  C   UNL     1       3.587   6.490  -1.541  0.00  0.00    +0.022 C 
ATOM      7  C   UNL     1       2.831   7.373  -0.422  0.00  0.00    +0.005 C 
ATOM      8  C   UNL     1       5.045   5.904  -3.452  0.00  0.00    -0.030 C 
ATOM      9  C   UNL     1       4.958   6.674  -4.848  0.00  0.00    +0.025 C 
ATOM     10  C   UNL     1       5.253   8.145  -4.199  0.00  0.00    +0.005 C 
ATOM     11  C   UNL     1       2.484   6.597  -2.835  0.00  0.00    +0.012 C 
ATOM     12  C   UNL     1       3.321   6.947  -4.922  0.00  0.00    +0.048 C 
ENDROOT
BRANCH   1  13
ATOM     13  O   UNL     1       2.091   5.018  -5.832  0.00  0.00    -0.452 OA
BRANCH  13  14
ATOM     14  C   UNL     1       2.582   5.293  -7.129  0.00  0.00    +0.316 C 
ATOM     15  O   UNL     1       3.540   4.572  -7.576  0.00  0.00    -0.250 OA
BRANCH  14  16
ATOM     16  C   UNL     1       1.993   6.086  -8.237  0.00  0.00    +0.090 C 
ATOM     17  C   UNL     1       2.157   7.564  -8.175  0.00  0.00    +0.011 C 
ATOM     18  C   UNL     1       2.713   5.662  -9.526  0.00  0.00    +0.011 C 
BRANCH  16  20
ATOM     19  C   UNL     1       0.104   5.405  -9.232  0.00  0.00    +0.001 C 
ATOM     20  C   UNL     1       0.604   5.688  -8.631  0.00  0.00    +0.011 C 
ENDBRANCH  16  20
ENDBRANCH  14  16
ENDBRANCH  13  14
ENDBRANCH   1  13
BRANCH  11  21
ATOM     21  C   UNL     1       1.195   6.183  -1.982  0.00  0.00    +0.004 C 
BRANCH  21  22
ATOM     22  C   UNL     1       0.304   5.254  -2.839  0.00  0.00    +0.044 C 
BRANCH  22  23
ATOM     23  C   UNL     1      -0.325   6.546  -3.694  0.00  0.00    +0.171 C 
ATOM     24  O   UNL     1      -0.945   5.655  -4.794  0.00  0.00    -0.452 OA
ATOM     25  C   UNL     1      -1.949   6.306  -5.526  0.00  0.00    +0.319 C 
ATOM     26  O   UNL     1      -2.447   5.711  -6.543  0.00  0.00    -0.250 OA
ATOM     27  C   UNL     1      -2.905   6.960  -4.558  0.00  0.00    +0.142 C 
ATOM     28  C   UNL     1      -2.788   5.796  -3.391  0.00  0.00    +0.167 C 
ATOM     29  O   UNL     1      -3.836   6.477  -2.531  0.00  0.00    -0.222 OA
ATOM     30  C   UNL     1      -1.579   6.593  -2.636  0.00  0.00    +0.077 C 
ENDBRANCH  22  23
ENDBRANCH  21  22
ENDBRANCH  11  21
TORSDOF 7
ENDMDL
MODEL 4
REMARK VINA RESULT:      -7.9      2.646      7.050
REMARK  Name = 
REMARK  7 active torsions:
REMARK  status: ('A' for Active; 'I' for Inactive)
REMARK    1  A    between atoms: C_2  and  C_3
REMARK    2  A    between atoms: C_3  and  C_6
REMARK    3  A    between atoms: C_6  and  O_8
REMARK    4  A    between atoms: O_8  and  C_9
REMARK    5  A    between atoms: C_19  and  C_20
REMARK    6  A    between atoms: C_20  and  C_21
REMARK    7  A    between atoms: C_21  and  C_22
REMARK                            x       y       z     vdW  Elec       q    Type
REMARK                         _______ _______ _______ _____ _____    ______ ____
ROOT
ATOM      1  C   UNL     1       2.137   6.283  -5.736  0.00  0.00    +0.173 C 
ATOM      2  C   UNL     1       2.575   5.786  -7.301  0.00  0.00    +0.062 C 
ATOM      3  C   UNL     1       1.827   4.465  -6.791  0.00  0.00    -0.024 C 
ATOM      4  C   UNL     1       2.214   3.561  -7.903  0.00  0.00    -0.009 C 
ATOM      5  C   UNL     1       2.146   4.165  -9.122  0.00  0.00    -0.027 C 
ATOM      6  C   UNL     1       0.711   4.799  -8.744  0.00  0.00    +0.022 C 
ATOM      7  C   UNL     1       0.240   5.131 -10.251  0.00  0.00    +0.005 C 
ATOM      8  C   UNL     1       0.640   4.544  -6.284  0.00  0.00    -0.030 C 
ATOM      9  C   UNL     1       0.141   5.720  -5.327  0.00  0.00    +0.025 C 
ATOM     10  C   UNL     1      -1.326   5.847  -6.037  0.00  0.00    +0.005 C 
ATOM     11  C   UNL     1       1.287   6.322  -8.243  0.00  0.00    +0.012 C 
ATOM     12  C   UNL     1       0.742   7.032  -6.152  0.00  0.00    +0.048 C 
ENDROOT
BRANCH   1  13
ATOM     13  O   UNL     1       3.097   7.487  -5.598  0.00  0.00    -0.452 OA
BRANCH  13  14
ATOM     14  C   UNL     1       3.538   7.319  -4.266  0.00  0.00    +0.316 C 
ATOM     15  O   UNL     1       2.671   7.415  -3.328  0.00  0.00    -0.250 OA
BRANCH  14  16
ATOM     16  C   UNL     1       4.794   6.740  -3.728  0.00  0.00    +0.090 C 
ATOM     17  C   UNL     1       6.064   7.432  -4.080  0.00  0.00    +0.011 C 
ATOM     18  C   UNL     1       4.710   6.823  -2.196  0.00  0.00    +0.011 C 
BRANCH  16  20
ATOM     19  C   UNL     1       4.557   4.546  -4.115  0.00  0.00    +0.001 C 
ATOM     20  C   UNL     1       4.909   5.253  -3.853  0.00  0.00    +0.011 C 
ENDBRANCH  16  20
ENDBRANCH  14  16
ENDBRANCH  13  14
ENDBRANCH   1  13
BRANCH  11  21
ATOM     21  C   UNL     1       2.222   6.567  -9.518  0.00  0.00    +0.004 C 
BRANCH  21  22
ATOM     22  C   UNL     1       3.661   6.863  -9.036  0.00  0.00    +0.044 C 
BRANCH  22  23
ATOM     23  C   UNL     1       4.313   6.407 -10.505  0.00  0.00    +0.171 C 
ATOM     24  O   UNL     1       5.084   7.732 -10.697  0.00  0.00    -0.452 OA
ATOM     25  C   UNL     1       6.128   7.629 -11.630  0.00  0.00    +0.319 C 
ATOM     26  O   UNL     1       6.755   8.694 -11.964  0.00  0.00    -0.250 OA
ATOM     27  C   UNL     1       6.947   6.404 -11.306  0.00  0.00    +0.142 C 
ATOM     28  C   UNL     1       6.764   6.506  -9.667  0.00  0.00    +0.167 C 
ATOM     29  O   UNL     1       7.685   5.323  -9.437  0.00  0.00    -0.222 OA
ATOM     30  C   UNL     1       5.449   5.540  -9.695  0.00  0.00    +0.077 C 
ENDBRANCH  22  23
ENDBRANCH  21  22
ENDBRANCH  11  21
TORSDOF 7
ENDMDL
MODEL 5
REMARK VINA RESULT:      -7.8      2.624      6.540
REMARK  Name = 
REMARK  7 active torsions:
REMARK  status: ('A' for Active; 'I' for Inactive)
REMARK    1  A    between atoms: C_2  and  C_3
REMARK    2  A    between atoms: C_3  and  C_6
REMARK    3  A    between atoms: C_6  and  O_8
REMARK    4  A    between atoms: O_8  and  C_9
REMARK    5  A    between atoms: C_19  and  C_20
REMARK    6  A    between atoms: C_20  and  C_21
REMARK    7  A    between atoms: C_21  and  C_22
REMARK                            x       y       z     vdW  Elec       q    Type
REMARK                         _______ _______ _______ _____ _____    ______ ____
ROOT
ATOM      1  C   UNL     1       1.070   6.979  -4.249  0.00  0.00    +0.173 C 
ATOM      2  C   UNL     1       2.639   6.917  -4.900  0.00  0.00    +0.062 C 
ATOM      3  C   UNL     1       2.982   7.343  -3.395  0.00  0.00    -0.024 C 
ATOM      4  C   UNL     1       4.418   7.666  -3.589  0.00  0.00    -0.009 C 
ATOM      5  C   UNL     1       5.056   6.767  -4.389  0.00  0.00    -0.027 C 
ATOM      6  C   UNL     1       4.358   5.545  -3.600  0.00  0.00    +0.022 C 
ATOM      7  C   UNL     1       5.383   4.393  -4.076  0.00  0.00    +0.005 C 
ATOM      8  C   UNL     1       2.506   6.665  -2.402  0.00  0.00    -0.030 C 
ATOM      9  C   UNL     1       1.035   6.046  -2.352  0.00  0.00    +0.025 C 
ATOM     10  C   UNL     1       1.516   4.633  -1.685  0.00  0.00    +0.005 C 
ATOM     11  C   UNL     1       3.073   5.305  -4.693  0.00  0.00    +0.012 C 
ATOM     12  C   UNL     1       0.951   5.389  -3.876  0.00  0.00    +0.048 C 
ENDROOT
BRANCH   1  13
ATOM     13  O   UNL     1       0.272   7.040  -5.571  0.00  0.00    -0.452 OA
BRANCH  13  14
ATOM     14  C   UNL     1      -1.040   7.220  -5.078  0.00  0.00    +0.316 C 
ATOM     15  O   UNL     1      -1.334   8.347  -4.547  0.00  0.00    -0.250 OA
BRANCH  14  16
ATOM     16  C   UNL     1      -2.280   6.443  -5.324  0.00  0.00    +0.090 C 
ATOM     17  C   UNL     1      -3.462   7.196  -5.827  0.00  0.00    +0.011 C 
ATOM     18  C   UNL     1      -1.962   5.423  -6.428  0.00  0.00    +0.011 C 
BRANCH  16  20
ATOM     19  C   UNL     1      -2.994   5.363  -3.495  0.00  0.00    +0.001 C 
ATOM     20  C   UNL     1      -2.646   5.475  -4.242  0.00  0.00    +0.011 C 
ENDBRANCH  16  20
ENDBRANCH  14  16
ENDBRANCH  13  14
ENDBRANCH   1  13
BRANCH  11  21
ATOM     21  C   UNL     1       3.982   5.300  -6.010  0.00  0.00    +0.004 C 
BRANCH  21  22
ATOM     22  C   UNL     1       3.372   6.275  -7.043  0.00  0.00    +0.044 C 
BRANCH  22  23
ATOM     23  C   UNL     1       3.389   5.111  -8.242  0.00  0.00    +0.171 C 
ATOM     24  O   UNL     1       2.883   6.076  -9.337  0.00  0.00    -0.452 OA
ATOM     25  C   UNL     1       3.143   5.617 -10.637  0.00  0.00    +0.319 C 
ATOM     26  O   UNL     1       2.659   6.272 -11.625  0.00  0.00    -0.250 OA
ATOM     27  C   UNL     1       4.589   5.190 -10.718  0.00  0.00    +0.142 C 
ATOM     28  C   UNL     1       5.163   6.339  -9.678  0.00  0.00    +0.167 C 
ATOM     29  O   UNL     1       6.598   5.902  -9.904  0.00  0.00    -0.222 OA
ATOM     30  C   UNL     1       5.007   5.340  -8.397  0.00  0.00    +0.077 C 
ENDBRANCH  22  23
ENDBRANCH  21  22
ENDBRANCH  11  21
TORSDOF 7
ENDMDL
MODEL 6
REMARK VINA RESULT:      -7.8      2.714      4.458
REMARK  Name = 
REMARK  7 active torsions:
REMARK  status: ('A' for Active; 'I' for Inactive)
REMARK    1  A    between atoms: C_2  and  C_3
REMARK    2  A    between atoms: C_3  and  C_6
REMARK    3  A    between atoms: C_6  and  O_8
REMARK    4  A    between atoms: O_8  and  C_9
REMARK    5  A    between atoms: C_19  and  C_20
REMARK    6  A    between atoms: C_20  and  C_21
REMARK    7  A    between atoms: C_21  and  C_22
REMARK                            x       y       z     vdW  Elec       q    Type
REMARK                         _______ _______ _______ _____ _____    ______ ____
ROOT
ATOM      1  C   UNL     1       1.280   6.708  -4.071  0.00  0.00    +0.173 C 
ATOM      2  C   UNL     1      -0.209   6.991  -3.304  0.00  0.00    +0.062 C 
ATOM      3  C   UNL     1      -0.578   7.442  -4.796  0.00  0.00    -0.024 C 
ATOM      4  C   UNL     1      -1.897   8.060  -4.509  0.00  0.00    -0.009 C 
ATOM      5  C   UNL     1      -2.639   7.334  -3.628  0.00  0.00    -0.027 C 
ATOM      6  C   UNL     1      -2.273   5.975  -4.416  0.00  0.00    +0.022 C 
ATOM      7  C   UNL     1      -3.471   5.073  -3.819  0.00  0.00    +0.005 C 
ATOM      8  C   UNL     1      -0.333   6.655  -5.792  0.00  0.00    -0.030 C 
ATOM      9  C   UNL     1       0.970   5.742  -5.925  0.00  0.00    +0.025 C 
ATOM     10  C   UNL     1       0.157   4.444  -6.497  0.00  0.00    +0.005 C 
ATOM     11  C   UNL     1      -0.981   5.499  -3.412  0.00  0.00    +0.012 C 
ATOM     12  C   UNL     1       1.040   5.120  -4.386  0.00  0.00    +0.048 C 
ENDROOT
BRANCH   1  13
ATOM     13  O   UNL     1       2.178   6.635  -2.815  0.00  0.00    -0.452 OA
BRANCH  13  14
ATOM     14  C   UNL     1       3.353   7.258  -3.295  0.00  0.00    +0.316 C 
ATOM     15  O   UNL     1       3.792   8.282  -2.665  0.00  0.00    -0.250 OA
BRANCH  14  16
ATOM     16  C   UNL     1       4.386   6.771  -4.243  0.00  0.00    +0.090 C 
ATOM     17  C   UNL     1       4.198   7.106  -5.681  0.00  0.00    +0.011 C 
ATOM     18  C   UNL     1       5.710   7.445  -3.850  0.00  0.00    +0.011 C 
BRANCH  16  20
ATOM     19  C   UNL     1       4.622   4.545  -4.155  0.00  0.00    +0.001 C 
ATOM     20  C   UNL     1       4.807   5.348  -4.045  0.00  0.00    +0.011 C 
ENDBRANCH  16  20
ENDBRANCH  14  16
ENDBRANCH  13  14
ENDBRANCH   1  13
BRANCH  11  21
ATOM     21  C   UNL     1      -1.762   5.716  -2.032  0.00  0.00    +0.004 C 
BRANCH  21  22
ATOM     22  C   UNL     1      -0.759   6.200  -0.960  0.00  0.00    +0.044 C 
BRANCH  22  23
ATOM     23  C   UNL     1      -1.988   6.750   0.029  0.00  0.00    +0.171 C 
ATOM     24  O   UNL     1      -1.284   6.309   1.332  0.00  0.00    -0.452 OA
ATOM     25  C   UNL     1      -1.783   6.958   2.472  0.00  0.00    +0.319 C 
ATOM     26  O   UNL     1      -1.364   6.582   3.621  0.00  0.00    -0.250 OA
ATOM     27  C   UNL     1      -1.843   8.440   2.197  0.00  0.00    +0.142 C 
ATOM     28  C   UNL     1      -0.497   8.490   1.241  0.00  0.00    +0.167 C 
ATOM     29  O   UNL     1      -0.584   9.999   1.106  0.00  0.00    -0.222 OA
ATOM     30  C   UNL     1      -1.380   8.268  -0.114  0.00  0.00    +0.077 C 
ENDBRANCH  22  23
ENDBRANCH  21  22
ENDBRANCH  11  21
TORSDOF 7
ENDMDL
MODEL 7
REMARK VINA RESULT:      -7.7      5.877     10.257
REMARK  Name = 
REMARK  7 active torsions:
REMARK  status: ('A' for Active; 'I' for Inactive)
REMARK    1  A    between atoms: C_2  and  C_3
REMARK    2  A    between atoms: C_3  and  C_6
REMARK    3  A    between atoms: C_6  and  O_8
REMARK    4  A    between atoms: O_8  and  C_9
REMARK    5  A    between atoms: C_19  and  C_20
REMARK    6  A    between atoms: C_20  and  C_21
REMARK    7  A    between atoms: C_21  and  C_22
REMARK                            x       y       z     vdW  Elec       q    Type
REMARK                         _______ _______ _______ _____ _____    ______ ____
ROOT
ATOM      1  C   UNL     1       3.498   5.421 -10.494  0.00  0.00    +0.173 C 
ATOM      2  C   UNL     1       2.112   5.268 -11.467  0.00  0.00    +0.062 C 
ATOM      3  C   UNL     1       1.508   4.816 -10.054  0.00  0.00    -0.024 C 
ATOM      4  C   UNL     1       0.201   4.305 -10.537  0.00  0.00    -0.009 C 
ATOM      5  C   UNL     1      -0.357   5.103 -11.490  0.00  0.00    -0.027 C 
ATOM      6  C   UNL     1      -0.007   6.414 -10.618  0.00  0.00    +0.022 C 
ATOM      7  C   UNL     1      -1.042   7.416 -11.345  0.00  0.00    +0.005 C 
ATOM      8  C   UNL     1       1.669   5.561  -9.010  0.00  0.00    -0.030 C 
ATOM      9  C   UNL     1       3.003   6.370  -8.672  0.00  0.00    +0.025 C 
ATOM     10  C   UNL     1       2.214   7.714  -8.177  0.00  0.00    +0.005 C 
ATOM     11  C   UNL     1       1.443   6.811 -11.419  0.00  0.00    +0.012 C 
ATOM     12  C   UNL     1       3.331   7.017 -10.167  0.00  0.00    +0.048 C 
ENDROOT
BRANCH   1  13
ATOM     13  O   UNL     1       4.564   5.451 -11.613  0.00  0.00    -0.452 OA
BRANCH  13  14
ATOM     14  C   UNL     1       5.708   5.831 -10.874  0.00  0.00    +0.316 C 
ATOM     15  O   UNL     1       6.003   5.151  -9.830  0.00  0.00    -0.250 OA
BRANCH  14  16
ATOM     16  C   UNL     1       6.849   6.706 -11.241  0.00  0.00    +0.090 C 
ATOM     17  C   UNL     1       6.533   8.110 -11.617  0.00  0.00    +0.011 C 
ATOM     18  C   UNL     1       7.746   6.821  -9.998  0.00  0.00    +0.011 C 
BRANCH  16  20
ATOM     19  C   UNL     1       8.653   5.977 -12.353  0.00  0.00    +0.001 C 
ATOM     20  C   UNL     1       7.850   6.085 -12.166  0.00  0.00    +0.011 C 
ENDBRANCH  16  20
ENDBRANCH  14  16
ENDBRANCH  13  14
ENDBRANCH   1  13
BRANCH  11  21
ATOM     21  C   UNL     1       0.848   6.682 -12.899  0.00  0.00    +0.004 C 
BRANCH  21  22
ATOM     22  C   UNL     1       1.998   6.340 -13.874  0.00  0.00    +0.044 C 
BRANCH  22  23
ATOM     23  C   UNL     1       1.827   7.793 -14.682  0.00  0.00    +0.171 C 
ATOM     24  O   UNL     1       2.350   7.233 -16.024  0.00  0.00    -0.452 OA
ATOM     25  C   UNL     1       1.986   8.020 -17.126  0.00  0.00    +0.319 C 
ATOM     26  O   UNL     1       2.468   7.724 -18.274  0.00  0.00    -0.250 OA
ATOM     27  C   UNL     1       0.509   8.319 -17.041  0.00  0.00    +0.142 C 
ATOM     28  C   UNL     1       0.083   6.873 -16.365  0.00  0.00    +0.167 C 
ATOM     29  O   UNL     1      -1.392   7.225 -16.414  0.00  0.00    -0.222 OA
ATOM     30  C   UNL     1       0.226   7.472 -14.853  0.00  0.00    +0.077 C 
ENDBRANCH  22  23
ENDBRANCH  21  22
ENDBRANCH  11  21
TORSDOF 7
ENDMDL
MODEL 8
REMARK VINA RESULT:      -7.6      2.896      5.083
REMARK  Name = 
REMARK  7 active torsions:
REMARK  status: ('A' for Active; 'I' for Inactive)
REMARK    1  A    between atoms: C_2  and  C_3
REMARK    2  A    between atoms: C_3  and  C_6
REMARK    3  A    between atoms: C_6  and  O_8
REMARK    4  A    between atoms: O_8  and  C_9
REMARK    5  A    between atoms: C_19  and  C_20
REMARK    6  A    between atoms: C_20  and  C_21
REMARK    7  A    between atoms: C_21  and  C_22
REMARK                            x       y       z     vdW  Elec       q    Type
REMARK                         _______ _______ _______ _____ _____    ______ ____
ROOT
ATOM      1  C   UNL     1       3.844   5.682  -9.491  0.00  0.00    +0.173 C 
ATOM      2  C   UNL     1       3.569   6.426  -7.988  0.00  0.00    +0.062 C 
ATOM      3  C   UNL     1       2.365   7.060  -8.833  0.00  0.00    -0.024 C 
ATOM      4  C   UNL     1       1.934   8.085  -7.850  0.00  0.00    -0.009 C 
ATOM      5  C   UNL     1       1.927   7.617  -6.570  0.00  0.00    -0.027 C 
ATOM      6  C   UNL     1       1.197   6.262  -7.053  0.00  0.00    +0.022 C 
ATOM      7  C   UNL     1       0.650   5.806  -5.605  0.00  0.00    +0.005 C 
ATOM      8  C   UNL     1       1.565   6.294  -9.499  0.00  0.00    -0.030 C 
ATOM      9  C   UNL     1       2.019   4.991 -10.303  0.00  0.00    +0.025 C 
ATOM     10  C   UNL     1       0.739   4.095  -9.823  0.00  0.00    +0.005 C 
ATOM     11  C   UNL     1       2.603   5.309  -7.182  0.00  0.00    +0.012 C 
ATOM     12  C   UNL     1       3.027   4.299  -9.177  0.00  0.00    +0.048 C 
ENDROOT
BRANCH   1  13
ATOM     13  O   UNL     1       5.304   5.230  -9.262  0.00  0.00    -0.452 OA
BRANCH  13  14
ATOM     14  C   UNL     1       5.877   5.548 -10.514  0.00  0.00    +0.316 C 
ATOM     15  O   UNL     1       5.213   5.260 -11.571  0.00  0.00    -0.250 OA
BRANCH  14  16
ATOM     16  C   UNL     1       7.002   6.452 -10.861  0.00  0.00    +0.090 C 
ATOM     17  C   UNL     1       6.661   7.858 -11.208  0.00  0.00    +0.011 C 
ATOM     18  C   UNL     1       7.896   6.557  -9.615  0.00  0.00    +0.011 C 
BRANCH  16  20
ATOM     19  C   UNL     1       8.815   5.828 -12.021  0.00  0.00    +0.001 C 
ATOM     20  C   UNL     1       8.015   5.870 -11.797  0.00  0.00    +0.011 C 
ENDBRANCH  16  20
ENDBRANCH  14  16
ENDBRANCH  13  14
ENDBRANCH   1  13
BRANCH  11  21
ATOM     21  C   UNL     1       3.199   5.708  -5.752  0.00  0.00    +0.004 C 
BRANCH  21  22
ATOM     22  C   UNL     1       3.696   4.429  -5.041  0.00  0.00    +0.044 C 
BRANCH  22  23
ATOM     23  C   UNL     1       4.791   5.293  -4.120  0.00  0.00    +0.171 C 
ATOM     24  O   UNL     1       3.848   6.503  -3.937  0.00  0.00    -0.452 OA
ATOM     25  C   UNL     1       4.209   7.322  -2.856  0.00  0.00    +0.319 C 
ATOM     26  O   UNL     1       3.576   8.420  -2.684  0.00  0.00    -0.250 OA
ATOM     27  C   UNL     1       4.444   6.450  -1.647  0.00  0.00    +0.142 C 
ATOM     28  C   UNL     1       3.281   5.335  -2.013  0.00  0.00    +0.167 C 
ATOM     29  O   UNL     1       3.522   4.581  -0.719  0.00  0.00    -0.222 OA
ATOM     30  C   UNL     1       4.351   4.398  -2.815  0.00  0.00    +0.077 C 
ENDBRANCH  22  23
ENDBRANCH  21  22
ENDBRANCH  11  21
TORSDOF 7
ENDMDL
MODEL 9
REMARK VINA RESULT:      -7.4      3.149      6.410
REMARK  Name = 
REMARK  7 active torsions:
REMARK  status: ('A' for Active; 'I' for Inactive)
REMARK    1  A    between atoms: C_2  and  C_3
REMARK    2  A    between atoms: C_3  and  C_6
REMARK    3  A    between atoms: C_6  and  O_8
REMARK    4  A    between atoms: O_8  and  C_9
REMARK    5  A    between atoms: C_19  and  C_20
REMARK    6  A    between atoms: C_20  and  C_21
REMARK    7  A    between atoms: C_21  and  C_22
REMARK                            x       y       z     vdW  Elec       q    Type
REMARK                         _______ _______ _______ _____ _____    ______ ____
ROOT
ATOM      1  C   UNL     1       2.422   5.434  -9.902  0.00  0.00    +0.173 C 
ATOM      2  C   UNL     1       2.056   5.478  -8.243  0.00  0.00    +0.062 C 
ATOM      3  C   UNL     1       3.056   4.226  -8.271  0.00  0.00    -0.024 C 
ATOM      4  C   UNL     1       2.827   3.742  -6.887  0.00  0.00    -0.009 C 
ATOM      5  C   UNL     1       2.752   4.755  -5.980  0.00  0.00    -0.027 C 
ATOM      6  C   UNL     1       4.045   5.460  -6.638  0.00  0.00    +0.022 C 
ATOM      7  C   UNL     1       4.411   6.408  -5.384  0.00  0.00    +0.005 C 
ATOM      8  C   UNL     1       4.215   4.333  -8.833  0.00  0.00    -0.030 C 
ATOM      9  C   UNL     1       4.497   5.143 -10.180  0.00  0.00    +0.025 C 
ATOM     10  C   UNL     1       5.897   5.794  -9.644  0.00  0.00    +0.005 C 
ATOM     11  C   UNL     1       3.196   6.554  -7.631  0.00  0.00    +0.012 C 
ATOM     12  C   UNL     1       3.638   6.530  -9.863  0.00  0.00    +0.048 C 
ENDROOT
BRANCH   1  13
ATOM     13  O   UNL     1       1.251   6.299 -10.421  0.00  0.00    -0.452 OA
BRANCH  13  14
ATOM     14  C   UNL     1       0.841   5.540 -11.540  0.00  0.00    +0.316 C 
ATOM     15  O   UNL     1      -0.163   4.758 -11.402  0.00  0.00    -0.250 OA
BRANCH  14  16
ATOM     16  C   UNL     1       1.163   5.691 -12.981  0.00  0.00    +0.090 C 
ATOM     17  C   UNL     1       0.587   4.684 -13.914  0.00  0.00    +0.011 C 
ATOM     18  C   UNL     1       0.575   7.035 -13.437  0.00  0.00    +0.011 C 
BRANCH  16  20
ATOM     19  C   UNL     1       3.288   5.749 -13.691  0.00  0.00    +0.001 C 
ATOM     20  C   UNL     1       2.602   5.978 -13.280  0.00  0.00    +0.011 C 
ENDBRANCH  16  20
ENDBRANCH  14  16
ENDBRANCH  13  14
ENDBRANCH   1  13
BRANCH  11  21
ATOM     21  C   UNL     1       2.205   7.074  -6.488  0.00  0.00    +0.004 C 
BRANCH  21  22
ATOM     22  C   UNL     1       0.747   6.861  -6.954  0.00  0.00    +0.044 C 
BRANCH  22  23
ATOM     23  C   UNL     1       0.242   6.488  -5.405  0.00  0.00    +0.171 C 
ATOM     24  O   UNL     1      -0.589   7.781  -5.248  0.00  0.00    -0.452 OA
ATOM     25  C   UNL     1      -1.547   7.698  -4.226  0.00  0.00    +0.319 C 
ATOM     26  O   UNL     1      -2.208   8.750  -3.921  0.00  0.00    -0.250 OA
ATOM     27  C   UNL     1      -2.315   6.408  -4.387  0.00  0.00    +0.142 C 
ATOM     28  C   UNL     1      -2.270   6.390  -6.039  0.00  0.00    +0.167 C 
ATOM     29  O   UNL     1      -3.134   5.145  -6.101  0.00  0.00    -0.222 OA
ATOM     30  C   UNL     1      -0.901   5.501  -6.050  0.00  0.00    +0.077 C 
ENDBRANCH  22  23
ENDBRANCH  21  22
ENDBRANCH  11  21
TORSDOF 7
ENDMDL
