MODEL 1
REMARK VINA RESULT:      -2.7      0.000      0.000
REMARK  Name = 
REMARK  0 active torsions:
REMARK  status: ('A' for Active; 'I' for Inactive)
REMARK                            x       y       z     vdW  Elec       q    Type
REMARK                         _______ _______ _______ _____ _____    ______ ____
ROOT
ATOM      1  O   UNL     1       9.449   5.950 -12.320  0.00  0.00    -0.197 OA
ATOM      2  C   UNL     1       8.323   5.478 -11.996  0.00  0.00    +0.592 C 
ATOM      3  O   UNL     1       7.938   5.379 -10.667  0.00  0.00    -0.197 OA
ATOM      4  O   UNL     1       7.719   4.632 -12.923  0.00  0.00    -0.197 OA
ENDROOT
TORSDOF 0
ENDMDL
MODEL 2
REMARK VINA RESULT:      -2.7      0.156      1.991
REMARK  Name = 
REMARK  0 active torsions:
REMARK  status: ('A' for Active; 'I' for Inactive)
REMARK                            x       y       z     vdW  Elec       q    Type
REMARK                         _______ _______ _______ _____ _____    ______ ____
ROOT
ATOM      1  O   UNL     1       7.704   4.575 -12.809  0.00  0.00    -0.197 OA
ATOM      2  C   UNL     1       8.222   5.414 -12.019  0.00  0.00    +0.592 C 
ATOM      3  O   UNL     1       9.495   5.919 -12.234  0.00  0.00    -0.197 OA
ATOM      4  O   UNL     1       7.715   5.434 -10.722  0.00  0.00    -0.197 OA
ENDROOT
TORSDOF 0
ENDMDL
MODEL 3
REMARK VINA RESULT:      -2.7      0.088      1.994
REMARK  Name = 
REMARK  0 active torsions:
REMARK  status: ('A' for Active; 'I' for Inactive)
REMARK                            x       y       z     vdW  Elec       q    Type
REMARK                         _______ _______ _______ _____ _____    ______ ____
ROOT
ATOM      1  O   UNL     1       8.012   5.348 -10.734  0.00  0.00    -0.197 OA
ATOM      2  C   UNL     1       8.264   5.428 -11.970  0.00  0.00    +0.592 C 
ATOM      3  O   UNL     1       7.625   4.612 -12.891  0.00  0.00    -0.197 OA
ATOM      4  O   UNL     1       9.500   5.970 -12.313  0.00  0.00    -0.197 OA
ENDROOT
TORSDOF 0
ENDMDL
MODEL 4
REMARK VINA RESULT:      -2.5     13.686     14.561
REMARK  Name = 
REMARK  0 active torsions:
REMARK  status: ('A' for Active; 'I' for Inactive)
REMARK                            x       y       z     vdW  Elec       q    Type
REMARK                         _______ _______ _______ _____ _____    ______ ____
ROOT
ATOM      1  O   UNL     1      -2.560   4.698  -2.362  0.00  0.00    -0.197 OA
ATOM      2  C   UNL     1      -3.149   5.431  -3.206  0.00  0.00    +0.592 C 
ATOM      3  O   UNL     1      -2.712   5.514  -4.520  0.00  0.00    -0.197 OA
ATOM      4  O   UNL     1      -3.894   6.489  -2.690  0.00  0.00    -0.197 OA
ENDROOT
TORSDOF 0
ENDMDL
MODEL 5
REMARK VINA RESULT:      -2.5      1.705      2.599
REMARK  Name = 
REMARK  0 active torsions:
REMARK  status: ('A' for Active; 'I' for Inactive)
REMARK                            x       y       z     vdW  Elec       q    Type
REMARK                         _______ _______ _______ _____ _____    ______ ____
ROOT
ATOM      1  O   UNL     1       6.378   5.831 -11.507  0.00  0.00    -0.197 OA
ATOM      2  C   UNL     1       6.610   5.250 -12.605  0.00  0.00    +0.592 C 
ATOM      3  O   UNL     1       5.579   4.826 -13.429  0.00  0.00    -0.197 OA
ATOM      4  O   UNL     1       7.849   4.625 -12.721  0.00  0.00    -0.197 OA
ENDROOT
TORSDOF 0
ENDMDL
MODEL 6
REMARK VINA RESULT:      -2.4      1.815      2.280
REMARK  Name = 
REMARK  0 active torsions:
REMARK  status: ('A' for Active; 'I' for Inactive)
REMARK                            x       y       z     vdW  Elec       q    Type
REMARK                         _______ _______ _______ _____ _____    ______ ____
ROOT
ATOM      1  O   UNL     1       6.736   6.618 -12.704  0.00  0.00    -0.197 OA
ATOM      2  C   UNL     1       6.687   5.357 -12.755  0.00  0.00    +0.592 C 
ATOM      3  O   UNL     1       7.838   4.586 -12.681  0.00  0.00    -0.197 OA
ATOM      4  O   UNL     1       5.563   4.808 -13.367  0.00  0.00    -0.197 OA
ENDROOT
TORSDOF 0
ENDMDL
MODEL 7
REMARK VINA RESULT:      -2.4     13.488     13.805
REMARK  Name = 
REMARK  0 active torsions:
REMARK  status: ('A' for Active; 'I' for Inactive)
REMARK                            x       y       z     vdW  Elec       q    Type
REMARK                         _______ _______ _______ _____ _____    ______ ____
ROOT
ATOM      1  O   UNL     1      -1.569   6.596  -3.095  0.00  0.00    -0.197 OA
ATOM      2  C   UNL     1      -1.633   5.387  -2.734  0.00  0.00    +0.592 C 
ATOM      3  O   UNL     1      -2.837   4.699  -2.726  0.00  0.00    -0.197 OA
ATOM      4  O   UNL     1      -0.610   4.936  -1.904  0.00  0.00    -0.197 OA
ENDROOT
TORSDOF 0
ENDMDL
MODEL 8
REMARK VINA RESULT:      -2.3      6.802      7.657
REMARK  Name = 
REMARK  0 active torsions:
REMARK  status: ('A' for Active; 'I' for Inactive)
REMARK                            x       y       z     vdW  Elec       q    Type
REMARK                         _______ _______ _______ _____ _____    ______ ____
ROOT
ATOM      1  O   UNL     1       3.247   7.423  -6.127  0.00  0.00    -0.197 OA
ATOM      2  C   UNL     1       2.783   7.251  -7.289  0.00  0.00    +0.592 C 
ATOM      3  O   UNL     1       3.306   6.288  -8.140  0.00  0.00    -0.197 OA
ATOM      4  O   UNL     1       2.111   8.333  -7.852  0.00  0.00    -0.197 OA
ENDROOT
TORSDOF 0
ENDMDL
MODEL 9
REMARK VINA RESULT:      -2.2     13.787     14.574
REMARK  Name = 
REMARK  0 active torsions:
REMARK  status: ('A' for Active; 'I' for Inactive)
REMARK                            x       y       z     vdW  Elec       q    Type
REMARK                         _______ _______ _______ _____ _____    ______ ____
ROOT
ATOM      1  O   UNL     1      -0.415   4.980  -1.742  0.00  0.00    -0.197 OA
ATOM      2  C   UNL     1      -1.498   5.514  -1.371  0.00  0.00    +0.592 C 
ATOM      3  O   UNL     1      -1.616   6.120  -0.129  0.00  0.00    -0.197 OA
ATOM      4  O   UNL     1      -2.656   5.058  -1.995  0.00  0.00    -0.197 OA
ENDROOT
TORSDOF 0
ENDMDL
