MODEL 1
REMARK VINA RESULT:      -5.2      0.000      0.000
REMARK  Name = 
REMARK  2 active torsions:
REMARK  status: ('A' for Active; 'I' for Inactive)
REMARK    1  A    between atoms: C_2  and  C_3
REMARK    2  A    between atoms: C_6  and  C_7
REMARK                            x       y       z     vdW  Elec       q    Type
REMARK                         _______ _______ _______ _____ _____    ______ ____
ROOT
ATOM      1  C   UNL     1      -1.187   6.688  -5.450  0.00  0.00    +0.019 C 
ATOM      2  C   UNL     1      -1.277   5.657  -4.188  0.00  0.00    +0.002 C 
ATOM      3  C   UNL     1      -2.709   5.451  -3.867  0.00  0.00    +0.011 C 
ATOM      4  C   UNL     1      -3.153   6.633  -2.821  0.00  0.00    +0.103 C 
ATOM      5  C   UNL     1      -2.181   7.769  -3.492  0.00  0.00    +0.011 C 
ATOM      6  C   UNL     1      -2.477   7.570  -4.978  0.00  0.00    +0.002 C 
ENDROOT
BRANCH   4   7
ATOM      7  C   UNL     1      -2.065   6.198  -1.721  0.00  0.00    +0.364 C 
ATOM      8  O   UNL     1      -2.087   7.140  -0.677  0.00  0.00    -0.246 OA
ATOM      9  O   UNL     1      -2.417   5.071  -1.238  0.00  0.00    -0.246 OA
ENDBRANCH   4   7
BRANCH   1  11
ATOM     10  N   UNL     1      -1.092   5.035  -7.158  0.00  0.00    -0.131 NA
ATOM     11  C   UNL     1      -2.097   5.706  -6.385  0.00  0.00    +0.109 C 
ENDBRANCH   1  11
TORSDOF 2
ENDMDL
MODEL 2
REMARK VINA RESULT:      -5.1      3.267      4.202
REMARK  Name = 
REMARK  2 active torsions:
REMARK  status: ('A' for Active; 'I' for Inactive)
REMARK    1  A    between atoms: C_2  and  C_3
REMARK    2  A    between atoms: C_6  and  C_7
REMARK                            x       y       z     vdW  Elec       q    Type
REMARK                         _______ _______ _______ _____ _____    ______ ____
ROOT
ATOM      1  C   UNL     1      -3.122   6.577  -2.473  0.00  0.00    +0.019 C 
ATOM      2  C   UNL     1      -2.624   5.347  -3.423  0.00  0.00    +0.002 C 
ATOM      3  C   UNL     1      -1.185   5.550  -3.715  0.00  0.00    +0.011 C 
ATOM      4  C   UNL     1      -1.083   6.502  -5.046  0.00  0.00    +0.103 C 
ATOM      5  C   UNL     1      -2.411   7.386  -4.671  0.00  0.00    +0.011 C 
ATOM      6  C   UNL     1      -2.161   7.683  -3.193  0.00  0.00    +0.002 C 
ENDROOT
BRANCH   4   7
ATOM      7  C   UNL     1      -1.901   5.467  -5.965  0.00  0.00    +0.364 C 
ATOM      8  O   UNL     1      -2.901   6.177  -6.652  0.00  0.00    -0.246 OA
ATOM      9  O   UNL     1      -1.098   4.985  -6.831  0.00  0.00    -0.246 OA
ENDBRANCH   4   7
BRANCH   1  11
ATOM     10  N   UNL     1      -1.797   7.507  -0.730  0.00  0.00    -0.131 NA
ATOM     11  C   UNL     1      -2.003   6.224  -1.337  0.00  0.00    +0.109 C 
ENDBRANCH   1  11
TORSDOF 2
ENDMDL
MODEL 3
REMARK VINA RESULT:      -5.0     10.185     11.474
REMARK  Name = 
REMARK  2 active torsions:
REMARK  status: ('A' for Active; 'I' for Inactive)
REMARK    1  A    between atoms: C_2  and  C_3
REMARK    2  A    between atoms: C_6  and  C_7
REMARK                            x       y       z     vdW  Elec       q    Type
REMARK                         _______ _______ _______ _____ _____    ______ ____
ROOT
ATOM      1  C   UNL     1       4.201   5.411 -10.253  0.00  0.00    +0.019 C 
ATOM      2  C   UNL     1       5.797   5.711 -10.085  0.00  0.00    +0.002 C 
ATOM      3  C   UNL     1       6.104   6.968 -10.808  0.00  0.00    +0.011 C 
ATOM      4  C   UNL     1       6.433   6.571 -12.364  0.00  0.00    +0.103 C 
ATOM      5  C   UNL     1       5.350   5.343 -12.414  0.00  0.00    +0.011 C 
ATOM      6  C   UNL     1       4.128   6.000 -11.775  0.00  0.00    +0.002 C 
ENDROOT
BRANCH   4   7
ATOM      7  C   UNL     1       7.660   5.614 -11.960  0.00  0.00    +0.364 C 
ATOM      8  O   UNL     1       7.710   4.546 -12.873  0.00  0.00    -0.246 OA
ATOM      9  O   UNL     1       8.741   6.282 -12.079  0.00  0.00    -0.246 OA
ENDBRANCH   4   7
BRANCH   1  11
ATOM     10  N   UNL     1       3.328   6.447  -8.299  0.00  0.00    -0.131 NA
ATOM     11  C   UNL     1       3.807   6.850  -9.590  0.00  0.00    +0.109 C 
ENDBRANCH   1  11
TORSDOF 2
ENDMDL
MODEL 4
REMARK VINA RESULT:      -4.8      1.901      2.630
REMARK  Name = 
REMARK  2 active torsions:
REMARK  status: ('A' for Active; 'I' for Inactive)
REMARK    1  A    between atoms: C_2  and  C_3
REMARK    2  A    between atoms: C_6  and  C_7
REMARK                            x       y       z     vdW  Elec       q    Type
REMARK                         _______ _______ _______ _____ _____    ______ ____
ROOT
ATOM      1  C   UNL     1       0.242   5.334  -5.385  0.00  0.00    +0.019 C 
ATOM      2  C   UNL     1      -1.342   5.730  -5.366  0.00  0.00    +0.002 C 
ATOM      3  C   UNL     1      -1.476   7.041  -4.687  0.00  0.00    +0.011 C 
ATOM      4  C   UNL     1      -1.620   6.749  -3.080  0.00  0.00    +0.103 C 
ATOM      5  C   UNL     1      -0.615   5.455  -3.095  0.00  0.00    +0.011 C 
ATOM      6  C   UNL     1       0.549   5.995  -3.924  0.00  0.00    +0.002 C 
ENDROOT
BRANCH   4   7
ATOM      7  C   UNL     1      -2.945   5.857  -3.265  0.00  0.00    +0.364 C 
ATOM      8  O   UNL     1      -2.776   4.658  -2.550  0.00  0.00    -0.246 OA
ATOM      9  O   UNL     1      -3.925   6.487  -2.747  0.00  0.00    -0.246 OA
ENDBRANCH   4   7
BRANCH   1  11
ATOM     10  N   UNL     1       2.037   6.801  -5.915  0.00  0.00    -0.131 NA
ATOM     11  C   UNL     1       0.631   6.706  -6.179  0.00  0.00    +0.109 C 
ENDBRANCH   1  11
TORSDOF 2
ENDMDL
MODEL 5
REMARK VINA RESULT:      -4.8      9.319     10.492
REMARK  Name = 
REMARK  2 active torsions:
REMARK  status: ('A' for Active; 'I' for Inactive)
REMARK    1  A    between atoms: C_2  and  C_3
REMARK    2  A    between atoms: C_6  and  C_7
REMARK                            x       y       z     vdW  Elec       q    Type
REMARK                         _______ _______ _______ _____ _____    ______ ____
ROOT
ATOM      1  C   UNL     1       6.349   6.710 -12.459  0.00  0.00    +0.019 C 
ATOM      2  C   UNL     1       6.043   7.094 -10.902  0.00  0.00    +0.002 C 
ATOM      3  C   UNL     1       6.056   5.840 -10.111  0.00  0.00    +0.011 C 
ATOM      4  C   UNL     1       4.542   5.212 -10.162  0.00  0.00    +0.103 C 
ATOM      5  C   UNL     1       4.249   5.712 -11.695  0.00  0.00    +0.011 C 
ATOM      6  C   UNL     1       5.541   5.293 -12.395  0.00  0.00    +0.002 C 
ENDROOT
BRANCH   4   7
ATOM      7  C   UNL     1       3.877   6.516  -9.497  0.00  0.00    +0.364 C 
ATOM      8  O   UNL     1       2.562   6.639  -9.978  0.00  0.00    -0.246 OA
ATOM      9  O   UNL     1       3.817   6.332  -8.236  0.00  0.00    -0.246 OA
ENDBRANCH   4   7
BRANCH   1  11
ATOM     10  N   UNL     1       7.792   4.883 -12.949  0.00  0.00    -0.131 NA
ATOM     11  C   UNL     1       7.771   6.011 -12.063  0.00  0.00    +0.109 C 
ENDBRANCH   1  11
TORSDOF 2
ENDMDL
MODEL 6
REMARK VINA RESULT:      -4.7      3.327      4.286
REMARK  Name = 
REMARK  2 active torsions:
REMARK  status: ('A' for Active; 'I' for Inactive)
REMARK    1  A    between atoms: C_2  and  C_3
REMARK    2  A    between atoms: C_6  and  C_7
REMARK                            x       y       z     vdW  Elec       q    Type
REMARK                         _______ _______ _______ _____ _____    ______ ____
ROOT
ATOM      1  C   UNL     1      -2.544   5.589  -4.265  0.00  0.00    +0.019 C 
ATOM      2  C   UNL     1      -1.009   5.471  -3.722  0.00  0.00    +0.002 C 
ATOM      3  C   UNL     1      -0.251   6.635  -4.239  0.00  0.00    +0.011 C 
ATOM      4  C   UNL     1       0.333   6.225  -5.715  0.00  0.00    +0.103 C 
ATOM      5  C   UNL     1      -0.967   5.312  -6.117  0.00  0.00    +0.011 C 
ATOM      6  C   UNL     1      -2.114   6.232  -5.703  0.00  0.00    +0.002 C 
ENDROOT
BRANCH   4   7
ATOM      7  C   UNL     1       1.167   4.975  -5.142  0.00  0.00    +0.364 C 
ATOM      8  O   UNL     1       1.030   3.901  -6.038  0.00  0.00    -0.246 OA
ATOM      9  O   UNL     1       2.400   5.302  -5.109  0.00  0.00    -0.246 OA
ENDBRANCH   4   7
BRANCH   1  11
ATOM     10  N   UNL     1      -3.462   6.720  -2.384  0.00  0.00    -0.131 NA
ATOM     11  C   UNL     1      -2.732   7.056  -3.573  0.00  0.00    +0.109 C 
ENDBRANCH   1  11
TORSDOF 2
ENDMDL
MODEL 7
REMARK VINA RESULT:      -4.7     10.062     11.249
REMARK  Name = 
REMARK  2 active torsions:
REMARK  status: ('A' for Active; 'I' for Inactive)
REMARK    1  A    between atoms: C_2  and  C_3
REMARK    2  A    between atoms: C_6  and  C_7
REMARK                            x       y       z     vdW  Elec       q    Type
REMARK                         _______ _______ _______ _____ _____    ______ ____
ROOT
ATOM      1  C   UNL     1       7.654   5.187 -11.332  0.00  0.00    +0.019 C 
ATOM      2  C   UNL     1       6.215   5.324 -12.091  0.00  0.00    +0.002 C 
ATOM      3  C   UNL     1       5.775   6.735 -11.986  0.00  0.00    +0.011 C 
ATOM      4  C   UNL     1       4.947   6.888 -10.579  0.00  0.00    +0.103 C 
ATOM      5  C   UNL     1       5.880   5.814  -9.765  0.00  0.00    +0.011 C 
ATOM      6  C   UNL     1       7.280   6.272 -10.170  0.00  0.00    +0.002 C 
ENDROOT
BRANCH   4   7
ATOM      7  C   UNL     1       3.853   5.786 -10.994  0.00  0.00    +0.364 C 
ATOM      8  O   UNL     1       3.500   5.055  -9.845  0.00  0.00    -0.246 OA
ATOM      9  O   UNL     1       2.811   6.396 -11.405  0.00  0.00    -0.246 OA
ENDBRANCH   4   7
BRANCH   1  11
ATOM     10  N   UNL     1       9.701   5.910 -12.303  0.00  0.00    -0.131 NA
ATOM     11  C   UNL     1       8.328   6.324 -12.291  0.00  0.00    +0.109 C 
ENDBRANCH   1  11
TORSDOF 2
ENDMDL
MODEL 8
REMARK VINA RESULT:      -4.7     10.778     11.986
REMARK  Name = 
REMARK  2 active torsions:
REMARK  status: ('A' for Active; 'I' for Inactive)
REMARK    1  A    between atoms: C_2  and  C_3
REMARK    2  A    between atoms: C_6  and  C_7
REMARK                            x       y       z     vdW  Elec       q    Type
REMARK                         _______ _______ _______ _____ _____    ______ ____
ROOT
ATOM      1  C   UNL     1       5.158   7.440 -10.695  0.00  0.00    +0.019 C 
ATOM      2  C   UNL     1       5.609   6.767 -12.112  0.00  0.00    +0.002 C 
ATOM      3  C   UNL     1       5.810   5.316 -11.886  0.00  0.00    +0.011 C 
ATOM      4  C   UNL     1       7.359   5.105 -11.393  0.00  0.00    +0.103 C 
ATOM      5  C   UNL     1       7.419   6.513 -10.557  0.00  0.00    +0.011 C 
ATOM      6  C   UNL     1       6.099   6.458  -9.791  0.00  0.00    +0.002 C 
ENDROOT
BRANCH   4   7
ATOM      7  C   UNL     1       7.972   5.750 -12.732  0.00  0.00    +0.364 C 
ATOM      8  O   UNL     1       9.345   5.976 -12.528  0.00  0.00    -0.246 OA
ATOM      9  O   UNL     1       7.851   4.899 -13.674  0.00  0.00    -0.246 OA
ENDBRANCH   4   7
BRANCH   1  11
ATOM     10  N   UNL     1       3.309   6.857  -9.318  0.00  0.00    -0.131 NA
ATOM     11  C   UNL     1       3.866   6.449 -10.575  0.00  0.00    +0.109 C 
ENDBRANCH   1  11
TORSDOF 2
ENDMDL
MODEL 9
REMARK VINA RESULT:      -4.7      2.356      3.084
REMARK  Name = 
REMARK  2 active torsions:
REMARK  status: ('A' for Active; 'I' for Inactive)
REMARK    1  A    between atoms: C_2  and  C_3
REMARK    2  A    between atoms: C_6  and  C_7
REMARK                            x       y       z     vdW  Elec       q    Type
REMARK                         _______ _______ _______ _____ _____    ______ ____
ROOT
ATOM      1  C   UNL     1       0.240   5.726  -6.984  0.00  0.00    +0.019 C 
ATOM      2  C   UNL     1       0.250   6.514  -5.554  0.00  0.00    +0.002 C 
ATOM      3  C   UNL     1      -0.361   5.625  -4.538  0.00  0.00    +0.011 C 
ATOM      4  C   UNL     1      -1.980   5.884  -4.570  0.00  0.00    +0.103 C 
ATOM      5  C   UNL     1      -2.036   6.146  -6.187  0.00  0.00    +0.011 C 
ATOM      6  C   UNL     1      -1.187   4.985  -6.703  0.00  0.00    +0.002 C 
ENDROOT
BRANCH   4   7
ATOM      7  C   UNL     1      -1.832   7.445  -4.214  0.00  0.00    +0.364 C 
ATOM      8  O   UNL     1      -2.675   8.177  -5.069  0.00  0.00    -0.246 OA
ATOM      9  O   UNL     1      -2.239   7.621  -3.019  0.00  0.00    -0.246 OA
ENDBRANCH   4   7
BRANCH   1  11
ATOM     10  N   UNL     1       2.374   4.674  -6.999  0.00  0.00    -0.131 NA
ATOM     11  C   UNL     1       1.100   4.484  -6.365  0.00  0.00    +0.109 C 
ENDBRANCH   1  11
TORSDOF 2
ENDMDL
