MODEL 1
REMARK VINA RESULT:      -6.0      0.000      0.000
REMARK  Name = 
REMARK  5 active torsions:
REMARK  status: ('A' for Active; 'I' for Inactive)
REMARK    1  A    between atoms: C_2  and  C_3
REMARK    2  A    between atoms: C_3  and  C_4
REMARK    3  A    between atoms: C_4  and  C_5
REMARK    4  A    between atoms: C_5  and  C_7
REMARK    5  A    between atoms: C_8  and  C_9
REMARK                            x       y       z     vdW  Elec       q    Type
REMARK                         _______ _______ _______ _____ _____    ______ ____
ROOT
ATOM      1  C   UNL     1       2.878   5.923  -7.836  0.00  0.00    +0.155 C 
ATOM      2  C   UNL     1       3.975   5.482  -7.021  0.00  0.00    +0.241 C 
ATOM      3  O   UNL     1       5.073   5.159  -7.565  0.00  0.00    -0.274 OA
ATOM      4  N   UNL     1       4.075   5.914  -5.658  0.00  0.00    -0.210 N 
ATOM      5  C   UNL     1       4.960   5.220  -4.737  0.00  0.00    +0.124 C 
ATOM      6  C   UNL     1       3.322   6.996  -5.130  0.00  0.00    +0.336 C 
ATOM      7  O   UNL     1       3.349   7.286  -3.895  0.00  0.00    -0.250 OA
ATOM      8  N   UNL     1       2.330   7.551  -6.005  0.00  0.00    -0.127 NA
ATOM      9  C   UNL     1       2.257   7.200  -7.392  0.00  0.00    +0.258 C 
ATOM     10  O   UNL     1       2.244   8.162  -8.221  0.00  0.00    -0.272 OA
ENDROOT
BRANCH   1  11
ATOM     11  C   UNL     1       1.652   4.803  -7.749  0.00  0.00    +0.081 C 
ATOM     12  C   UNL     1       2.456   3.644  -8.645  0.00  0.00    +0.015 C 
BRANCH  11  13
ATOM     13  C   UNL     1       0.938   5.397  -9.068  0.00  0.00    -0.091 C 
ATOM     14  C   UNL     1       0.268   5.057 -10.031  0.00  0.00    -0.091 C 
BRANCH  14  15
ATOM     15  C   UNL     1      -0.179   4.849 -11.422  0.00  0.00    +0.076 C 
ATOM     16  C   UNL     1       0.923   5.190 -12.418  0.00  0.00    +0.015 C 
ENDBRANCH  14  15
ENDBRANCH  11  13
ENDBRANCH   1  11
BRANCH   1  17
ATOM     17  C   UNL     1       3.248   5.970  -9.291  0.00  0.00    +0.044 C 
BRANCH  17  19
ATOM     18  C   UNL     1       4.908   7.126 -10.695  0.00  0.00    -0.005 C 
ATOM     19  C   UNL     1       4.296   6.957  -9.613  0.00  0.00    -0.025 C 
ENDBRANCH  17  19
ENDBRANCH   1  17
TORSDOF 5
ENDMDL
MODEL 2
REMARK VINA RESULT:      -6.0      2.562      4.149
REMARK  Name = 
REMARK  5 active torsions:
REMARK  status: ('A' for Active; 'I' for Inactive)
REMARK    1  A    between atoms: C_2  and  C_3
REMARK    2  A    between atoms: C_3  and  C_4
REMARK    3  A    between atoms: C_4  and  C_5
REMARK    4  A    between atoms: C_5  and  C_7
REMARK    5  A    between atoms: C_8  and  C_9
REMARK                            x       y       z     vdW  Elec       q    Type
REMARK                         _______ _______ _______ _____ _____    ______ ____
ROOT
ATOM      1  C   UNL     1       2.154   5.985  -5.977  0.00  0.00    +0.155 C 
ATOM      2  C   UNL     1       1.814   6.557  -4.704  0.00  0.00    +0.241 C 
ATOM      3  O   UNL     1       0.636   6.977  -4.498  0.00  0.00    -0.274 OA
ATOM      4  N   UNL     1       2.538   6.174  -3.529  0.00  0.00    -0.210 N 
ATOM      5  C   UNL     1       2.447   6.980  -2.322  0.00  0.00    +0.124 C 
ATOM      6  C   UNL     1       3.385   5.035  -3.475  0.00  0.00    +0.336 C 
ATOM      7  O   UNL     1       4.097   4.782  -2.457  0.00  0.00    -0.250 OA
ATOM      8  N   UNL     1       3.597   4.358  -4.722  0.00  0.00    -0.127 NA
ATOM      9  C   UNL     1       2.832   4.663  -5.894  0.00  0.00    +0.258 C 
ATOM     10  O   UNL     1       2.273   3.684  -6.478  0.00  0.00    -0.272 OA
ENDROOT
BRANCH   1  11
ATOM     11  C   UNL     1       3.248   6.975  -6.743  0.00  0.00    +0.081 C 
ATOM     12  C   UNL     1       2.100   7.777  -7.653  0.00  0.00    +0.015 C 
BRANCH  11  13
ATOM     13  C   UNL     1       3.493   5.894  -7.915  0.00  0.00    -0.091 C 
ATOM     14  C   UNL     1       4.111   5.732  -8.956  0.00  0.00    -0.091 C 
BRANCH  14  15
ATOM     15  C   UNL     1       4.419   5.462 -10.374  0.00  0.00    +0.076 C 
ATOM     16  C   UNL     1       4.849   6.730 -11.102  0.00  0.00    +0.015 C 
ENDBRANCH  14  15
ENDBRANCH  11  13
ENDBRANCH   1  11
BRANCH   1  17
ATOM     17  C   UNL     1       0.971   5.938  -6.901  0.00  0.00    +0.044 C 
BRANCH  17  19
ATOM     18  C   UNL     1      -1.361   5.162  -6.760  0.00  0.00    -0.005 C 
ATOM     19  C   UNL     1      -0.164   5.149  -6.385  0.00  0.00    -0.025 C 
ENDBRANCH  17  19
ENDBRANCH   1  17
TORSDOF 5
ENDMDL
MODEL 3
REMARK VINA RESULT:      -6.0      3.111      5.828
REMARK  Name = 
REMARK  5 active torsions:
REMARK  status: ('A' for Active; 'I' for Inactive)
REMARK    1  A    between atoms: C_2  and  C_3
REMARK    2  A    between atoms: C_3  and  C_4
REMARK    3  A    between atoms: C_4  and  C_5
REMARK    4  A    between atoms: C_5  and  C_7
REMARK    5  A    between atoms: C_8  and  C_9
REMARK                            x       y       z     vdW  Elec       q    Type
REMARK                         _______ _______ _______ _____ _____    ______ ____
ROOT
ATOM      1  C   UNL     1       1.665   5.972  -5.798  0.00  0.00    +0.155 C 
ATOM      2  C   UNL     1       1.663   6.684  -7.045  0.00  0.00    +0.241 C 
ATOM      3  O   UNL     1       2.101   7.873  -7.091  0.00  0.00    -0.274 OA
ATOM      4  N   UNL     1       1.723   5.964  -8.283  0.00  0.00    -0.210 N 
ATOM      5  C   UNL     1       1.377   6.628  -9.529  0.00  0.00    +0.124 C 
ATOM      6  C   UNL     1       2.088   4.595  -8.367  0.00  0.00    +0.336 C 
ATOM      7  O   UNL     1       2.028   3.955  -9.461  0.00  0.00    -0.250 OA
ATOM      8  N   UNL     1       2.254   3.916  -7.114  0.00  0.00    -0.127 NA
ATOM      9  C   UNL     1       2.280   4.619  -5.866  0.00  0.00    +0.258 C 
ATOM     10  O   UNL     1       3.271   4.389  -5.106  0.00  0.00    -0.272 OA
ENDROOT
BRANCH   1  11
ATOM     11  C   UNL     1       0.095   5.701  -5.324  0.00  0.00    +0.081 C 
ATOM     12  C   UNL     1      -0.234   7.306  -5.001  0.00  0.00    +0.015 C 
BRANCH  11  13
ATOM     13  C   UNL     1       0.542   5.435  -3.796  0.00  0.00    -0.091 C 
ATOM     14  C   UNL     1       0.081   5.292  -2.674  0.00  0.00    -0.091 C 
BRANCH  14  15
ATOM     15  C   UNL     1      -0.183   5.484  -1.235  0.00  0.00    +0.076 C 
ATOM     16  C   UNL     1      -1.620   5.924  -0.986  0.00  0.00    +0.015 C 
ENDBRANCH  14  15
ENDBRANCH  11  13
ENDBRANCH   1  11
BRANCH   1  17
ATOM     17  C   UNL     1       2.263   6.791  -4.689  0.00  0.00    +0.044 C 
BRANCH  17  19
ATOM     18  C   UNL     1       4.521   7.569  -4.094  0.00  0.00    -0.005 C 
ATOM     19  C   UNL     1       3.661   7.195  -4.927  0.00  0.00    -0.025 C 
ENDBRANCH  17  19
ENDBRANCH   1  17
TORSDOF 5
ENDMDL
MODEL 4
REMARK VINA RESULT:      -6.0      1.727      2.187
REMARK  Name = 
REMARK  5 active torsions:
REMARK  status: ('A' for Active; 'I' for Inactive)
REMARK    1  A    between atoms: C_2  and  C_3
REMARK    2  A    between atoms: C_3  and  C_4
REMARK    3  A    between atoms: C_4  and  C_5
REMARK    4  A    between atoms: C_5  and  C_7
REMARK    5  A    between atoms: C_8  and  C_9
REMARK                            x       y       z     vdW  Elec       q    Type
REMARK                         _______ _______ _______ _____ _____    ______ ____
ROOT
ATOM      1  C   UNL     1       1.772   6.089  -8.915  0.00  0.00    +0.155 C 
ATOM      2  C   UNL     1       2.218   4.886  -8.267  0.00  0.00    +0.241 C 
ATOM      3  O   UNL     1       3.161   4.210  -8.777  0.00  0.00    -0.274 OA
ATOM      4  N   UNL     1       2.051   4.729  -6.853  0.00  0.00    -0.210 N 
ATOM      5  C   UNL     1       2.171   3.412  -6.247  0.00  0.00    +0.124 C 
ATOM      6  C   UNL     1       1.742   5.808  -5.983  0.00  0.00    +0.336 C 
ATOM      7  O   UNL     1       1.493   5.622  -4.753  0.00  0.00    -0.250 OA
ATOM      8  N   UNL     1       1.456   7.060  -6.621  0.00  0.00    -0.127 NA
ATOM      9  C   UNL     1       1.689   7.273  -8.019  0.00  0.00    +0.258 C 
ATOM     10  O   UNL     1       2.384   8.289  -8.329  0.00  0.00    -0.272 OA
ENDROOT
BRANCH   1  11
ATOM     11  C   UNL     1       0.220   5.865  -9.467  0.00  0.00    +0.081 C 
ATOM     12  C   UNL     1       0.617   4.616 -10.503  0.00  0.00    +0.015 C 
BRANCH  11  13
ATOM     13  C   UNL     1       0.417   6.961 -10.635  0.00  0.00    -0.091 C 
ATOM     14  C   UNL     1       0.123   7.185 -11.799  0.00  0.00    -0.091 C 
BRANCH  14  15
ATOM     15  C   UNL     1       0.239   7.480 -13.240  0.00  0.00    +0.076 C 
ATOM     16  C   UNL     1       1.362   6.676 -13.885  0.00  0.00    +0.015 C 
ENDBRANCH  14  15
ENDBRANCH  11  13
ENDBRANCH   1  11
BRANCH   1  17
ATOM     17  C   UNL     1       2.576   6.389 -10.148  0.00  0.00    +0.044 C 
BRANCH  17  19
ATOM     18  C   UNL     1       4.882   7.119 -10.606  0.00  0.00    -0.005 C 
ATOM     19  C   UNL     1       4.023   6.539  -9.900  0.00  0.00    -0.025 C 
ENDBRANCH  17  19
ENDBRANCH   1  17
TORSDOF 5
ENDMDL
MODEL 5
REMARK VINA RESULT:      -6.0      2.054      3.723
REMARK  Name = 
REMARK  5 active torsions:
REMARK  status: ('A' for Active; 'I' for Inactive)
REMARK    1  A    between atoms: C_2  and  C_3
REMARK    2  A    between atoms: C_3  and  C_4
REMARK    3  A    between atoms: C_4  and  C_5
REMARK    4  A    between atoms: C_5  and  C_7
REMARK    5  A    between atoms: C_8  and  C_9
REMARK                            x       y       z     vdW  Elec       q    Type
REMARK                         _______ _______ _______ _____ _____    ______ ____
ROOT
ATOM      1  C   UNL     1       2.074   5.843  -6.351  0.00  0.00    +0.155 C 
ATOM      2  C   UNL     1       1.966   6.628  -5.153  0.00  0.00    +0.241 C 
ATOM      3  O   UNL     1       0.874   7.211  -4.880  0.00  0.00    -0.274 OA
ATOM      4  N   UNL     1       2.798   6.334  -4.024  0.00  0.00    -0.210 N 
ATOM      5  C   UNL     1       2.950   7.309  -2.957  0.00  0.00    +0.124 C 
ATOM      6  C   UNL     1       3.526   5.122  -3.892  0.00  0.00    +0.336 C 
ATOM      7  O   UNL     1       4.339   4.933  -2.936  0.00  0.00    -0.250 OA
ATOM      8  N   UNL     1       3.501   4.252  -5.033  0.00  0.00    -0.127 NA
ATOM      9  C   UNL     1       2.621   4.475  -6.140  0.00  0.00    +0.258 C 
ATOM     10  O   UNL     1       1.895   3.496  -6.494  0.00  0.00    -0.272 OA
ENDROOT
BRANCH   1  11
ATOM     11  C   UNL     1       3.150   6.575  -7.385  0.00  0.00    +0.081 C 
ATOM     12  C   UNL     1       2.089   7.770  -7.871  0.00  0.00    +0.015 C 
BRANCH  11  13
ATOM     13  C   UNL     1       2.712   5.620  -8.609  0.00  0.00    -0.091 C 
ATOM     14  C   UNL     1       2.428   5.653  -9.797  0.00  0.00    -0.091 C 
BRANCH  14  15
ATOM     15  C   UNL     1       1.690   5.492 -11.064  0.00  0.00    +0.076 C 
ATOM     16  C   UNL     1       0.319   4.866 -10.836  0.00  0.00    +0.015 C 
ENDBRANCH  14  15
ENDBRANCH  11  13
ENDBRANCH   1  11
BRANCH   1  17
ATOM     17  C   UNL     1       0.780   5.805  -7.112  0.00  0.00    +0.044 C 
BRANCH  17  19
ATOM     18  C   UNL     1      -1.574   5.283  -6.614  0.00  0.00    -0.005 C 
ATOM     19  C   UNL     1      -0.349   5.237  -6.350  0.00  0.00    -0.025 C 
ENDBRANCH  17  19
ENDBRANCH   1  17
TORSDOF 5
ENDMDL
MODEL 6
REMARK VINA RESULT:      -5.9      2.449      5.629
REMARK  Name = 
REMARK  5 active torsions:
REMARK  status: ('A' for Active; 'I' for Inactive)
REMARK    1  A    between atoms: C_2  and  C_3
REMARK    2  A    between atoms: C_3  and  C_4
REMARK    3  A    between atoms: C_4  and  C_5
REMARK    4  A    between atoms: C_5  and  C_7
REMARK    5  A    between atoms: C_8  and  C_9
REMARK                            x       y       z     vdW  Elec       q    Type
REMARK                         _______ _______ _______ _____ _____    ______ ____
ROOT
ATOM      1  C   UNL     1       1.724   6.072  -7.388  0.00  0.00    +0.155 C 
ATOM      2  C   UNL     1       0.748   5.331  -8.139  0.00  0.00    +0.241 C 
ATOM      3  O   UNL     1      -0.339   4.985  -7.588  0.00  0.00    -0.274 OA
ATOM      4  N   UNL     1       0.695   5.457  -9.565  0.00  0.00    -0.210 N 
ATOM      5  C   UNL     1      -0.032   4.477 -10.356  0.00  0.00    +0.124 C 
ATOM      6  C   UNL     1       1.349   6.497 -10.278  0.00  0.00    +0.336 C 
ATOM      7  O   UNL     1       1.375   6.521 -11.546  0.00  0.00    -0.250 OA
ATOM      8  N   UNL     1       2.201   7.346  -9.498  0.00  0.00    -0.127 NA
ATOM      9  C   UNL     1       2.217   7.300  -8.066  0.00  0.00    +0.258 C 
ATOM     10  O   UNL     1       2.055   8.405  -7.461  0.00  0.00    -0.272 OA
ENDROOT
BRANCH   1  11
ATOM     11  C   UNL     1       3.078   5.130  -7.180  0.00  0.00    +0.081 C 
ATOM     12  C   UNL     1       2.521   4.387  -5.791  0.00  0.00    +0.015 C 
BRANCH  11  13
ATOM     13  C   UNL     1       3.818   6.281  -6.326  0.00  0.00    -0.091 C 
ATOM     14  C   UNL     1       4.607   6.436  -5.407  0.00  0.00    -0.091 C 
BRANCH  14  15
ATOM     15  C   UNL     1       5.195   6.870  -4.125  0.00  0.00    +0.076 C 
ATOM     16  C   UNL     1       4.245   7.779  -3.355  0.00  0.00    +0.015 C 
ENDBRANCH  14  15
ENDBRANCH  11  13
ENDBRANCH   1  11
BRANCH   1  17
ATOM     17  C   UNL     1       1.247   6.367  -5.994  0.00  0.00    +0.044 C 
BRANCH  17  19
ATOM     18  C   UNL     1      -0.709   7.416  -4.929  0.00  0.00    -0.005 C 
ATOM     19  C   UNL     1      -0.067   7.036  -5.938  0.00  0.00    -0.025 C 
ENDBRANCH  17  19
ENDBRANCH   1  17
TORSDOF 5
ENDMDL
MODEL 7
REMARK VINA RESULT:      -5.8      2.083      3.485
REMARK  Name = 
REMARK  5 active torsions:
REMARK  status: ('A' for Active; 'I' for Inactive)
REMARK    1  A    between atoms: C_2  and  C_3
REMARK    2  A    between atoms: C_3  and  C_4
REMARK    3  A    between atoms: C_4  and  C_5
REMARK    4  A    between atoms: C_5  and  C_7
REMARK    5  A    between atoms: C_8  and  C_9
REMARK                            x       y       z     vdW  Elec       q    Type
REMARK                         _______ _______ _______ _____ _____    ______ ____
ROOT
ATOM      1  C   UNL     1       3.055   6.093  -9.144  0.00  0.00    +0.155 C 
ATOM      2  C   UNL     1       2.958   6.915  -7.970  0.00  0.00    +0.241 C 
ATOM      3  O   UNL     1       2.356   8.029  -8.030  0.00  0.00    -0.274 OA
ATOM      4  N   UNL     1       3.001   6.316  -6.669  0.00  0.00    -0.210 N 
ATOM      5  C   UNL     1       3.250   7.138  -5.496  0.00  0.00    +0.124 C 
ATOM      6  C   UNL     1       2.834   4.922  -6.451  0.00  0.00    +0.336 C 
ATOM      7  O   UNL     1       2.985   4.405  -5.302  0.00  0.00    -0.250 OA
ATOM      8  N   UNL     1       2.765   4.111  -7.632  0.00  0.00    -0.127 NA
ATOM      9  C   UNL     1       2.639   4.680  -8.940  0.00  0.00    +0.258 C 
ATOM     10  O   UNL     1       1.690   4.241  -9.661  0.00  0.00    -0.272 OA
ENDROOT
BRANCH   1  11
ATOM     11  C   UNL     1       4.648   6.003  -9.613  0.00  0.00    +0.081 C 
ATOM     12  C   UNL     1       4.632   7.449 -10.448  0.00  0.00    +0.015 C 
BRANCH  11  13
ATOM     13  C   UNL     1       4.269   5.173 -10.943  0.00  0.00    -0.091 C 
ATOM     14  C   UNL     1       4.466   5.152 -12.149  0.00  0.00    -0.091 C 
BRANCH  14  15
ATOM     15  C   UNL     1       4.231   5.150 -13.606  0.00  0.00    +0.076 C 
ATOM     16  C   UNL     1       2.756   5.345 -13.933  0.00  0.00    +0.015 C 
ENDBRANCH  14  15
ENDBRANCH  11  13
ENDBRANCH   1  11
BRANCH   1  17
ATOM     17  C   UNL     1       2.348   6.710 -10.317  0.00  0.00    +0.044 C 
BRANCH  17  19
ATOM     18  C   UNL     1       0.016   7.006 -11.050  0.00  0.00    -0.005 C 
ATOM     19  C   UNL     1       0.880   6.762 -10.173  0.00  0.00    -0.025 C 
ENDBRANCH  17  19
ENDBRANCH   1  17
TORSDOF 5
ENDMDL
MODEL 8
REMARK VINA RESULT:      -5.8      2.366      4.956
REMARK  Name = 
REMARK  5 active torsions:
REMARK  status: ('A' for Active; 'I' for Inactive)
REMARK    1  A    between atoms: C_2  and  C_3
REMARK    2  A    between atoms: C_3  and  C_4
REMARK    3  A    between atoms: C_4  and  C_5
REMARK    4  A    between atoms: C_5  and  C_7
REMARK    5  A    between atoms: C_8  and  C_9
REMARK                            x       y       z     vdW  Elec       q    Type
REMARK                         _______ _______ _______ _____ _____    ______ ____
ROOT
ATOM      1  C   UNL     1       3.523   6.180  -8.966  0.00  0.00    +0.155 C 
ATOM      2  C   UNL     1       2.804   5.020  -9.415  0.00  0.00    +0.241 C 
ATOM      3  O   UNL     1       3.117   3.875  -8.968  0.00  0.00    -0.274 OA
ATOM      4  N   UNL     1       1.453   5.146  -9.874  0.00  0.00    -0.210 N 
ATOM      5  C   UNL     1       0.842   4.073 -10.642  0.00  0.00    +0.124 C 
ATOM      6  C   UNL     1       0.658   6.299  -9.641  0.00  0.00    +0.336 C 
ATOM      7  O   UNL     1      -0.496   6.428 -10.152  0.00  0.00    -0.250 OA
ATOM      8  N   UNL     1       1.335   7.411  -9.038  0.00  0.00    -0.127 NA
ATOM      9  C   UNL     1       2.656   7.294  -8.495  0.00  0.00    +0.258 C 
ATOM     10  O   UNL     1       2.816   7.693  -7.301  0.00  0.00    -0.272 OA
ENDROOT
BRANCH   1  11
ATOM     11  C   UNL     1       4.377   6.817 -10.242  0.00  0.00    +0.081 C 
ATOM     12  C   UNL     1       4.028   5.562 -11.286  0.00  0.00    +0.015 C 
BRANCH  11  13
ATOM     13  C   UNL     1       5.741   6.103  -9.760  0.00  0.00    -0.091 C 
ATOM     14  C   UNL     1       6.912   5.960 -10.077  0.00  0.00    -0.091 C 
BRANCH  14  15
ATOM     15  C   UNL     1       8.198   5.332 -10.437  0.00  0.00    +0.076 C 
ATOM     16  C   UNL     1       8.637   5.727 -11.842  0.00  0.00    +0.015 C 
ENDBRANCH  14  15
ENDBRANCH  11  13
ENDBRANCH   1  11
BRANCH   1  17
ATOM     17  C   UNL     1       4.567   5.829  -7.945  0.00  0.00    +0.044 C 
BRANCH  17  19
ATOM     18  C   UNL     1       4.506   5.419  -5.518  0.00  0.00    -0.005 C 
ATOM     19  C   UNL     1       4.018   5.329  -6.671  0.00  0.00    -0.025 C 
ENDBRANCH  17  19
ENDBRANCH   1  17
TORSDOF 5
ENDMDL
MODEL 9
REMARK VINA RESULT:      -5.6      2.453      5.979
REMARK  Name = 
REMARK  5 active torsions:
REMARK  status: ('A' for Active; 'I' for Inactive)
REMARK    1  A    between atoms: C_2  and  C_3
REMARK    2  A    between atoms: C_3  and  C_4
REMARK    3  A    between atoms: C_4  and  C_5
REMARK    4  A    between atoms: C_5  and  C_7
REMARK    5  A    between atoms: C_8  and  C_9
REMARK                            x       y       z     vdW  Elec       q    Type
REMARK                         _______ _______ _______ _____ _____    ______ ____
ROOT
ATOM      1  C   UNL     1       2.628   5.774  -5.749  0.00  0.00    +0.155 C 
ATOM      2  C   UNL     1       2.483   4.714  -6.708  0.00  0.00    +0.241 C 
ATOM      3  O   UNL     1       2.108   3.566  -6.324  0.00  0.00    -0.274 OA
ATOM      4  N   UNL     1       2.199   5.020  -8.078  0.00  0.00    -0.210 N 
ATOM      5  C   UNL     1       2.391   4.009  -9.106  0.00  0.00    +0.124 C 
ATOM      6  C   UNL     1       1.752   6.297  -8.512  0.00  0.00    +0.336 C 
ATOM      7  O   UNL     1       1.613   6.571  -9.743  0.00  0.00    -0.250 OA
ATOM      8  N   UNL     1       1.738   7.325  -7.512  0.00  0.00    -0.127 NA
ATOM      9  C   UNL     1       1.938   7.038  -6.123  0.00  0.00    +0.258 C 
ATOM     10  O   UNL     1       1.060   7.483  -5.320  0.00  0.00    -0.272 OA
ENDROOT
BRANCH   1  11
ATOM     11  C   UNL     1       4.234   6.186  -5.634  0.00  0.00    +0.081 C 
ATOM     12  C   UNL     1       4.598   5.022  -4.494  0.00  0.00    +0.015 C 
BRANCH  11  13
ATOM     13  C   UNL     1       3.930   7.282  -4.490  0.00  0.00    -0.091 C 
ATOM     14  C   UNL     1       4.303   7.641  -3.383  0.00  0.00    -0.091 C 
BRANCH  14  15
ATOM     15  C   UNL     1       4.297   7.996  -1.951  0.00  0.00    +0.076 C 
ATOM     16  C   UNL     1       4.298   6.752  -1.070  0.00  0.00    +0.015 C 
ENDBRANCH  14  15
ENDBRANCH  11  13
ENDBRANCH   1  11
BRANCH   1  17
ATOM     17  C   UNL     1       2.248   5.330  -4.365  0.00  0.00    +0.044 C 
BRANCH  17  19
ATOM     18  C   UNL     1       0.155   5.213  -3.074  0.00  0.00    -0.005 C 
ATOM     19  C   UNL     1       0.794   5.198  -4.154  0.00  0.00    -0.025 C 
ENDBRANCH  17  19
ENDBRANCH   1  17
TORSDOF 5
ENDMDL
