MODEL 1
REMARK VINA RESULT:     -10.6      0.000      0.000
REMARK  Name = 
REMARK  7 active torsions:
REMARK  status: ('A' for Active; 'I' for Inactive)
REMARK    1  A    between atoms: C_2  and  O_3
REMARK    2  A    between atoms: C_2  and  C_22
REMARK    3  A    between atoms: O_3  and  C_4
REMARK    4  A    between atoms: C_4  and  C_5
REMARK    5  A    between atoms: C_5  and  C_6
REMARK    6  A    between atoms: C_24  and  C_25
REMARK    7  A    between atoms: C_30  and  C_31
REMARK                            x       y       z     vdW  Elec       q    Type
REMARK                         _______ _______ _______ _____ _____    ______ ____
ROOT
ATOM      1  C   UNL     1       1.337   5.460  -7.783  0.00  0.00    +0.162 C 
ENDROOT
BRANCH   1   2
ATOM      2  C   UNL     1       1.356   5.866  -6.343  0.00  0.00    +0.105 C 
ATOM      3  N   UNL     1       2.313   6.923  -6.180  0.00  0.00    -0.212 NA
ATOM      4  C   UNL     1       3.536   6.485  -5.517  0.00  0.00    +0.109 C 
ATOM      5  C   UNL     1       3.269   6.135  -4.089  0.00  0.00    +0.095 C 
ATOM      6  N   UNL     1       4.271   5.270  -3.507  0.00  0.00    -0.207 NA
ATOM      7  C   UNL     1       3.992   5.277  -2.102  0.00  0.00    +0.241 C 
ATOM      8  O   UNL     1       3.996   4.309  -1.288  0.00  0.00    -0.273 OA
ATOM      9  C   UNL     1       3.651   6.701  -1.801  0.00  0.00    +0.089 C 
ATOM     10  C   UNL     1       3.278   7.303  -3.151  0.00  0.00    +0.031 C 
ATOM     11  C   UNL     1       1.962   5.373  -4.047  0.00  0.00    +0.023 C 
ATOM     12  C   UNL     1       1.799   4.735  -5.422  0.00  0.00    +0.024 C 
BRANCH   2  13
ATOM     13  C   UNL     1      -0.006   6.256  -5.868  0.00  0.00    -0.006 A 
ATOM     14  C   UNL     1      -0.269   7.393  -5.162  0.00  0.00    -0.003 A 
ATOM     15  C   UNL     1      -1.598   7.664  -4.866  0.00  0.00    -0.000 A 
ATOM     16  C   UNL     1      -2.604   6.750  -5.089  0.00  0.00    -0.000 A 
ATOM     17  C   UNL     1      -2.372   5.747  -6.017  0.00  0.00    -0.000 A 
ATOM     18  C   UNL     1      -1.055   5.504  -6.382  0.00  0.00    -0.003 A 
ENDBRANCH   2  13
ENDBRANCH   1   2
BRANCH   1  19
ATOM     19  O   UNL     1       2.382   6.022  -8.535  0.00  0.00    -0.350 OA
BRANCH  19  21
ATOM     20  C   UNL     1       3.271   3.881  -8.707  0.00  0.00    +0.037 C 
ATOM     21  C   UNL     1       2.389   4.957  -9.666  0.00  0.00    +0.138 C 
BRANCH  21  22
ATOM     22  C   UNL     1       3.732   5.615 -10.355  0.00  0.00    +0.004 A 
ATOM     23  C   UNL     1       3.652   5.743 -11.712  0.00  0.00    +0.002 A 
ATOM     24  C   UNL     1       4.842   5.991 -12.386  0.00  0.00    +0.071 A 
ATOM     25  C   UNL     1       5.995   6.166 -11.632  0.00  0.00    +0.008 A 
ATOM     26  C   UNL     1       5.987   6.125 -10.241  0.00  0.00    +0.071 A 
ATOM     27  C   UNL     1       4.793   5.852  -9.572  0.00  0.00    +0.002 A 
BRANCH  24  28
ATOM     28  C   UNL     1       4.915   5.569 -13.818  0.00  0.00    +0.419 C 
ATOM     29  F   UNL     1       6.198   5.395 -14.256  0.00  0.00    -0.166 F 
ATOM     30  F   UNL     1       4.277   6.495 -14.600  0.00  0.00    -0.166 F 
ATOM     31  F   UNL     1       4.282   4.336 -13.878  0.00  0.00    -0.166 F 
ENDBRANCH  24  28
BRANCH  26  32
ATOM     32  C   UNL     1       7.316   5.799  -9.630  0.00  0.00    +0.419 C 
ATOM     33  F   UNL     1       7.169   4.998  -8.530  0.00  0.00    -0.166 F 
ATOM     34  F   UNL     1       8.104   5.104 -10.543  0.00  0.00    -0.166 F 
ATOM     35  F   UNL     1       8.002   6.968  -9.368  0.00  0.00    -0.166 F 
ENDBRANCH  26  32
ENDBRANCH  21  22
ENDBRANCH  19  21
ENDBRANCH   1  19
TORSDOF 7
ENDMDL
MODEL 2
REMARK VINA RESULT:     -10.5      4.851      8.743
REMARK  Name = 
REMARK  7 active torsions:
REMARK  status: ('A' for Active; 'I' for Inactive)
REMARK    1  A    between atoms: C_2  and  O_3
REMARK    2  A    between atoms: C_2  and  C_22
REMARK    3  A    between atoms: O_3  and  C_4
REMARK    4  A    between atoms: C_4  and  C_5
REMARK    5  A    between atoms: C_5  and  C_6
REMARK    6  A    between atoms: C_24  and  C_25
REMARK    7  A    between atoms: C_30  and  C_31
REMARK                            x       y       z     vdW  Elec       q    Type
REMARK                         _______ _______ _______ _____ _____    ______ ____
ROOT
ATOM      1  C   UNL     1       1.549   5.106  -7.956  0.00  0.00    +0.162 C 
ENDROOT
BRANCH   1   2
ATOM      2  C   UNL     1       2.929   5.632  -8.196  0.00  0.00    +0.105 C 
ATOM      3  N   UNL     1       2.839   6.758  -9.083  0.00  0.00    -0.212 NA
ATOM      4  C   UNL     1       3.299   6.455 -10.434  0.00  0.00    +0.109 C 
ATOM      5  C   UNL     1       4.772   6.209 -10.451  0.00  0.00    +0.095 C 
ATOM      6  N   UNL     1       5.223   5.461 -11.603  0.00  0.00    -0.207 NA
ATOM      7  C   UNL     1       6.651   5.569 -11.577  0.00  0.00    +0.241 C 
ATOM      8  O   UNL     1       7.517   4.675 -11.800  0.00  0.00    -0.273 OA
ATOM      9  C   UNL     1       6.906   6.989 -11.186  0.00  0.00    +0.089 C 
ATOM     10  C   UNL     1       5.608   7.450 -10.535  0.00  0.00    +0.031 C 
ATOM     11  C   UNL     1       5.106   5.373  -9.234  0.00  0.00    +0.023 C 
ATOM     12  C   UNL     1       3.833   4.612  -8.881  0.00  0.00    +0.024 C 
BRANCH   2  13
ATOM     13  C   UNL     1       3.616   5.974  -6.914  0.00  0.00    -0.006 A 
ATOM     14  C   UNL     1       3.590   7.212  -6.344  0.00  0.00    -0.003 A 
ATOM     15  C   UNL     1       4.202   7.354  -5.105  0.00  0.00    -0.000 A 
ATOM     16  C   UNL     1       4.975   6.360  -4.546  0.00  0.00    -0.000 A 
ATOM     17  C   UNL     1       4.778   5.062  -4.991  0.00  0.00    -0.000 A 
ATOM     18  C   UNL     1       4.106   4.891  -6.194  0.00  0.00    -0.003 A 
ENDBRANCH   2  13
ENDBRANCH   1   2
BRANCH   1  19
ATOM     19  O   UNL     1       0.838   5.828  -6.984  0.00  0.00    -0.350 OA
BRANCH  19  21
ATOM     20  C   UNL     1      -1.360   5.072  -6.978  0.00  0.00    +0.037 C 
ATOM     21  C   UNL     1       0.130   4.609  -6.329  0.00  0.00    +0.138 C 
BRANCH  21  22
ATOM     22  C   UNL     1      -0.105   5.430  -4.921  0.00  0.00    +0.004 A 
ATOM     23  C   UNL     1       1.038   5.636  -4.203  0.00  0.00    +0.002 A 
ATOM     24  C   UNL     1       0.881   6.035  -2.881  0.00  0.00    +0.071 A 
ATOM     25  C   UNL     1      -0.408   6.267  -2.418  0.00  0.00    +0.008 A 
ATOM     26  C   UNL     1      -1.526   6.138  -3.237  0.00  0.00    +0.071 A 
ATOM     27  C   UNL     1      -1.363   5.714  -4.557  0.00  0.00    +0.002 A 
BRANCH  24  28
ATOM     28  C   UNL     1       1.992   5.712  -1.935  0.00  0.00    +0.419 C 
ATOM     29  F   UNL     1       2.868   4.792  -2.439  0.00  0.00    -0.166 F 
ATOM     30  F   UNL     1       1.469   5.259  -0.754  0.00  0.00    -0.166 F 
ATOM     31  F   UNL     1       2.688   6.898  -1.756  0.00  0.00    -0.166 F 
ENDBRANCH  24  28
BRANCH  26  32
ATOM     32  C   UNL     1      -2.805   5.897  -2.494  0.00  0.00    +0.419 C 
ATOM     33  F   UNL     1      -3.482   7.069  -2.285  0.00  0.00    -0.166 F 
ATOM     34  F   UNL     1      -3.640   5.066  -3.236  0.00  0.00    -0.166 F 
ATOM     35  F   UNL     1      -2.538   5.205  -1.330  0.00  0.00    -0.166 F 
ENDBRANCH  26  32
ENDBRANCH  21  22
ENDBRANCH  19  21
ENDBRANCH   1  19
TORSDOF 7
ENDMDL
MODEL 3
REMARK VINA RESULT:     -10.3      2.308      3.859
REMARK  Name = 
REMARK  7 active torsions:
REMARK  status: ('A' for Active; 'I' for Inactive)
REMARK    1  A    between atoms: C_2  and  O_3
REMARK    2  A    between atoms: C_2  and  C_22
REMARK    3  A    between atoms: O_3  and  C_4
REMARK    4  A    between atoms: C_4  and  C_5
REMARK    5  A    between atoms: C_5  and  C_6
REMARK    6  A    between atoms: C_24  and  C_25
REMARK    7  A    between atoms: C_30  and  C_31
REMARK                            x       y       z     vdW  Elec       q    Type
REMARK                         _______ _______ _______ _____ _____    ______ ____
ROOT
ATOM      1  C   UNL     1       4.585   5.549  -6.686  0.00  0.00    +0.162 C 
ENDROOT
BRANCH   1   2
ATOM      2  C   UNL     1       3.854   6.058  -5.483  0.00  0.00    +0.105 C 
ATOM      3  N   UNL     1       4.240   7.423  -5.260  0.00  0.00    -0.212 NA
ATOM      4  C   UNL     1       5.134   7.582  -4.119  0.00  0.00    +0.109 C 
ATOM      5  C   UNL     1       4.419   7.285  -2.840  0.00  0.00    +0.095 C 
ATOM      6  N   UNL     1       5.303   6.958  -1.744  0.00  0.00    -0.207 NA
ATOM      7  C   UNL     1       4.470   6.981  -0.579  0.00  0.00    +0.241 C 
ATOM      8  O   UNL     1       4.450   6.177   0.397  0.00  0.00    -0.273 OA
ATOM      9  C   UNL     1       3.582   8.166  -0.784  0.00  0.00    +0.089 C 
ATOM     10  C   UNL     1       3.641   8.438  -2.282  0.00  0.00    +0.031 C 
ATOM     11  C   UNL     1       3.553   6.067  -3.077  0.00  0.00    +0.023 C 
ATOM     12  C   UNL     1       4.212   5.294  -4.214  0.00  0.00    +0.024 C 
BRANCH   2  13
ATOM     13  C   UNL     1       2.376   5.906  -5.636  0.00  0.00    -0.006 A 
ATOM     14  C   UNL     1       1.505   6.953  -5.704  0.00  0.00    -0.003 A 
ATOM     15  C   UNL     1       0.169   6.654  -5.935  0.00  0.00    -0.000 A 
ATOM     16  C   UNL     1      -0.315   5.365  -5.906  0.00  0.00    -0.000 A 
ATOM     17  C   UNL     1       0.589   4.331  -6.097  0.00  0.00    -0.000 A 
ATOM     18  C   UNL     1       1.938   4.622  -5.940  0.00  0.00    -0.003 A 
ENDBRANCH   2  13
ENDBRANCH   1   2
BRANCH   1  19
ATOM     19  O   UNL     1       4.162   6.140  -7.888  0.00  0.00    -0.350 OA
BRANCH  19  21
ATOM     20  C   UNL     1       5.925   5.600  -9.304  0.00  0.00    +0.037 C 
ATOM     21  C   UNL     1       4.459   4.922  -8.806  0.00  0.00    +0.138 C 
BRANCH  21  22
ATOM     22  C   UNL     1       3.606   5.582 -10.052  0.00  0.00    +0.004 A 
ATOM     23  C   UNL     1       2.339   5.963  -9.714  0.00  0.00    +0.002 A 
ATOM     24  C   UNL     1       1.468   6.231 -10.764  0.00  0.00    +0.071 A 
ATOM     25  C   UNL     1       1.968   6.169 -12.058  0.00  0.00    +0.008 A 
ATOM     26  C   UNL     1       3.301   5.875 -12.327  0.00  0.00    +0.071 A 
ATOM     27  C   UNL     1       4.164   5.583 -11.270  0.00  0.00    +0.002 A 
BRANCH  24  28
ATOM     28  C   UNL     1       0.007   6.074 -10.493  0.00  0.00    +0.419 C 
ATOM     29  F   UNL     1      -0.740   7.104 -10.995  0.00  0.00    -0.166 F 
ATOM     30  F   UNL     1      -0.199   5.963  -9.144  0.00  0.00    -0.166 F 
ATOM     31  F   UNL     1      -0.375   4.918 -11.158  0.00  0.00    -0.166 F 
ENDBRANCH  24  28
BRANCH  26  32
ATOM     32  C   UNL     1       3.543   5.333 -13.703  0.00  0.00    +0.419 C 
ATOM     33  F   UNL     1       3.816   6.341 -14.589  0.00  0.00    -0.166 F 
ATOM     34  F   UNL     1       4.646   4.483 -13.694  0.00  0.00    -0.166 F 
ATOM     35  F   UNL     1       2.475   4.546 -14.083  0.00  0.00    -0.166 F 
ENDBRANCH  26  32
ENDBRANCH  21  22
ENDBRANCH  19  21
ENDBRANCH   1  19
TORSDOF 7
ENDMDL
MODEL 4
REMARK VINA RESULT:     -10.3      1.040      2.925
REMARK  Name = 
REMARK  7 active torsions:
REMARK  status: ('A' for Active; 'I' for Inactive)
REMARK    1  A    between atoms: C_2  and  O_3
REMARK    2  A    between atoms: C_2  and  C_22
REMARK    3  A    between atoms: O_3  and  C_4
REMARK    4  A    between atoms: C_4  and  C_5
REMARK    5  A    between atoms: C_5  and  C_6
REMARK    6  A    between atoms: C_24  and  C_25
REMARK    7  A    between atoms: C_30  and  C_31
REMARK                            x       y       z     vdW  Elec       q    Type
REMARK                         _______ _______ _______ _____ _____    ______ ____
ROOT
ATOM      1  C   UNL     1       1.736   5.616  -7.635  0.00  0.00    +0.162 C 
ENDROOT
BRANCH   1   2
ATOM      2  C   UNL     1       1.619   5.945  -6.180  0.00  0.00    +0.105 C 
ATOM      3  N   UNL     1       2.504   7.038  -5.888  0.00  0.00    -0.212 NA
ATOM      4  C   UNL     1       3.692   6.625  -5.150  0.00  0.00    +0.109 C 
ATOM      5  C   UNL     1       3.332   6.187  -3.767  0.00  0.00    +0.095 C 
ATOM      6  N   UNL     1       4.329   5.342  -3.148  0.00  0.00    -0.207 NA
ATOM      7  C   UNL     1       3.940   5.261  -1.772  0.00  0.00    +0.241 C 
ATOM      8  O   UNL     1       3.932   4.253  -1.009  0.00  0.00    -0.273 OA
ATOM      9  C   UNL     1       3.503   6.649  -1.431  0.00  0.00    +0.089 C 
ATOM     10  C   UNL     1       3.206   7.303  -2.775  0.00  0.00    +0.031 C 
ATOM     11  C   UNL     1       2.068   5.362  -3.869  0.00  0.00    +0.023 C 
ATOM     12  C   UNL     1       2.047   4.790  -5.282  0.00  0.00    +0.024 C 
BRANCH   2  13
ATOM     13  C   UNL     1       0.206   6.243  -5.798  0.00  0.00    -0.006 A 
ATOM     14  C   UNL     1      -0.171   7.325  -5.058  0.00  0.00    -0.003 A 
ATOM     15  C   UNL     1      -1.532   7.515  -4.859  0.00  0.00    -0.000 A 
ATOM     16  C   UNL     1      -2.469   6.568  -5.211  0.00  0.00    -0.000 A 
ATOM     17  C   UNL     1      -2.111   5.631  -6.168  0.00  0.00    -0.000 A 
ATOM     18  C   UNL     1      -0.758   5.472  -6.436  0.00  0.00    -0.003 A 
ENDBRANCH   2  13
ENDBRANCH   1   2
BRANCH   1  19
ATOM     19  O   UNL     1       3.022   5.834  -8.155  0.00  0.00    -0.350 OA
BRANCH  19  21
ATOM     20  C   UNL     1       1.311   6.039  -9.715  0.00  0.00    +0.037 C 
ATOM     21  C   UNL     1       2.626   6.947  -9.165  0.00  0.00    +0.138 C 
BRANCH  21  22
ATOM     22  C   UNL     1       3.653   6.354 -10.308  0.00  0.00    +0.004 A 
ATOM     23  C   UNL     1       4.968   6.632 -10.067  0.00  0.00    +0.002 A 
ATOM     24  C   UNL     1       5.849   6.443 -11.126  0.00  0.00    +0.071 A 
ATOM     25  C   UNL     1       5.345   5.918 -12.309  0.00  0.00    +0.008 A 
ATOM     26  C   UNL     1       4.008   5.558 -12.452  0.00  0.00    +0.071 A 
ATOM     27  C   UNL     1       3.124   5.772 -11.393  0.00  0.00    +0.002 A 
BRANCH  24  28
ATOM     28  C   UNL     1       7.109   7.247 -11.116  0.00  0.00    +0.419 C 
ATOM     29  F   UNL     1       7.978   6.885 -12.108  0.00  0.00    -0.166 F 
ATOM     30  F   UNL     1       7.718   7.125  -9.896  0.00  0.00    -0.166 F 
ATOM     31  F   UNL     1       6.721   8.556 -11.358  0.00  0.00    -0.166 F 
ENDBRANCH  24  28
BRANCH  26  32
ATOM     32  C   UNL     1       3.530   5.528 -13.872  0.00  0.00    +0.419 C 
ATOM     33  F   UNL     1       3.191   4.257 -14.251  0.00  0.00    -0.166 F 
ATOM     34  F   UNL     1       2.391   6.317 -14.009  0.00  0.00    -0.166 F 
ATOM     35  F   UNL     1       4.479   6.107 -14.689  0.00  0.00    -0.166 F 
ENDBRANCH  26  32
ENDBRANCH  21  22
ENDBRANCH  19  21
ENDBRANCH   1  19
TORSDOF 7
ENDMDL
MODEL 5
REMARK VINA RESULT:     -10.2      1.783      3.809
REMARK  Name = 
REMARK  7 active torsions:
REMARK  status: ('A' for Active; 'I' for Inactive)
REMARK    1  A    between atoms: C_2  and  O_3
REMARK    2  A    between atoms: C_2  and  C_22
REMARK    3  A    between atoms: O_3  and  C_4
REMARK    4  A    between atoms: C_4  and  C_5
REMARK    5  A    between atoms: C_5  and  C_6
REMARK    6  A    between atoms: C_24  and  C_25
REMARK    7  A    between atoms: C_30  and  C_31
REMARK                            x       y       z     vdW  Elec       q    Type
REMARK                         _______ _______ _______ _____ _____    ______ ____
ROOT
ATOM      1  C   UNL     1       2.850   5.119  -7.408  0.00  0.00    +0.162 C 
ENDROOT
BRANCH   1   2
ATOM      2  C   UNL     1       2.245   5.584  -6.121  0.00  0.00    +0.105 C 
ATOM      3  N   UNL     1       1.305   4.595  -5.676  0.00  0.00    -0.212 NA
ATOM      4  C   UNL     1      -0.083   5.008  -5.856  0.00  0.00    +0.109 C 
ATOM      5  C   UNL     1      -0.422   6.140  -4.942  0.00  0.00    +0.095 C 
ATOM      6  N   UNL     1      -1.574   6.904  -5.367  0.00  0.00    -0.207 NA
ATOM      7  C   UNL     1      -1.893   7.741  -4.250  0.00  0.00    +0.241 C 
ATOM      8  O   UNL     1      -2.230   8.960  -4.244  0.00  0.00    -0.273 OA
ATOM      9  C   UNL     1      -1.706   6.856  -3.061  0.00  0.00    +0.089 C 
ATOM     10  C   UNL     1      -0.814   5.724  -3.557  0.00  0.00    +0.031 C 
ATOM     11  C   UNL     1       0.754   7.093  -4.946  0.00  0.00    +0.023 C 
ATOM     12  C   UNL     1       1.464   6.885  -6.278  0.00  0.00    +0.024 C 
BRANCH   2  13
ATOM     13  C   UNL     1       3.293   5.871  -5.096  0.00  0.00    -0.006 A 
ATOM     14  C   UNL     1       3.666   4.993  -4.122  0.00  0.00    -0.003 A 
ATOM     15  C   UNL     1       4.717   5.368  -3.296  0.00  0.00    -0.000 A 
ATOM     16  C   UNL     1       5.247   6.640  -3.309  0.00  0.00    -0.000 A 
ATOM     17  C   UNL     1       5.050   7.411  -4.444  0.00  0.00    -0.000 A 
ATOM     18  C   UNL     1       4.050   7.015  -5.322  0.00  0.00    -0.003 A 
ENDBRANCH   2  13
ENDBRANCH   1   2
BRANCH   1  19
ATOM     19  O   UNL     1       2.806   6.084  -8.427  0.00  0.00    -0.350 OA
BRANCH  19  21
ATOM     20  C   UNL     1       3.605   3.945  -8.860  0.00  0.00    +0.037 C 
ATOM     21  C   UNL     1       2.621   5.095  -9.611  0.00  0.00    +0.138 C 
BRANCH  21  22
ATOM     22  C   UNL     1       3.866   5.774 -10.448  0.00  0.00    +0.004 A 
ATOM     23  C   UNL     1       3.669   5.812 -11.798  0.00  0.00    +0.002 A 
ATOM     24  C   UNL     1       4.785   6.077 -12.584  0.00  0.00    +0.071 A 
ATOM     25  C   UNL     1       5.985   6.355 -11.941  0.00  0.00    +0.008 A 
ATOM     26  C   UNL     1       6.092   6.401 -10.554  0.00  0.00    +0.071 A 
ATOM     27  C   UNL     1       4.973   6.111  -9.772  0.00  0.00    +0.002 A 
BRANCH  24  28
ATOM     28  C   UNL     1       4.764   5.570 -13.989  0.00  0.00    +0.419 C 
ATOM     29  F   UNL     1       4.350   6.513 -14.888  0.00  0.00    -0.166 F 
ATOM     30  F   UNL     1       3.956   4.468 -14.065  0.00  0.00    -0.166 F 
ATOM     31  F   UNL     1       6.080   5.252 -14.294  0.00  0.00    -0.166 F 
ENDBRANCH  24  28
BRANCH  26  32
ATOM     32  C   UNL     1       7.482   6.179 -10.039  0.00  0.00    +0.419 C 
ATOM     33  F   UNL     1       7.479   5.342  -8.957  0.00  0.00    -0.166 F 
ATOM     34  F   UNL     1       8.265   5.579 -11.022  0.00  0.00    -0.166 F 
ATOM     35  F   UNL     1       8.079   7.398  -9.787  0.00  0.00    -0.166 F 
ENDBRANCH  26  32
ENDBRANCH  21  22
ENDBRANCH  19  21
ENDBRANCH   1  19
TORSDOF 7
ENDMDL
MODEL 6
REMARK VINA RESULT:     -10.2      2.516      5.064
REMARK  Name = 
REMARK  7 active torsions:
REMARK  status: ('A' for Active; 'I' for Inactive)
REMARK    1  A    between atoms: C_2  and  O_3
REMARK    2  A    between atoms: C_2  and  C_22
REMARK    3  A    between atoms: O_3  and  C_4
REMARK    4  A    between atoms: C_4  and  C_5
REMARK    5  A    between atoms: C_5  and  C_6
REMARK    6  A    between atoms: C_24  and  C_25
REMARK    7  A    between atoms: C_30  and  C_31
REMARK                            x       y       z     vdW  Elec       q    Type
REMARK                         _______ _______ _______ _____ _____    ______ ____
ROOT
ATOM      1  C   UNL     1       3.900   5.349  -6.703  0.00  0.00    +0.162 C 
ENDROOT
BRANCH   1   2
ATOM      2  C   UNL     1       2.887   5.696  -5.658  0.00  0.00    +0.105 C 
ATOM      3  N   UNL     1       2.107   4.524  -5.374  0.00  0.00    -0.212 NA
ATOM      4  C   UNL     1       0.761   4.587  -5.934  0.00  0.00    +0.109 C 
ATOM      5  C   UNL     1      -0.052   5.633  -5.244  0.00  0.00    +0.095 C 
ATOM      6  N   UNL     1      -1.190   6.085  -6.014  0.00  0.00    -0.207 NA
ATOM      7  C   UNL     1      -1.973   6.856  -5.095  0.00  0.00    +0.241 C 
ATOM      8  O   UNL     1      -2.562   7.958  -5.286  0.00  0.00    -0.273 OA
ATOM      9  C   UNL     1      -1.916   6.078  -3.820  0.00  0.00    +0.089 C 
ATOM     10  C   UNL     1      -0.696   5.178  -3.969  0.00  0.00    +0.031 C 
ATOM     11  C   UNL     1       0.839   6.839  -5.040  0.00  0.00    +0.023 C 
ATOM     12  C   UNL     1       1.906   6.766  -6.126  0.00  0.00    +0.024 C 
BRANCH   2  13
ATOM     13  C   UNL     1       3.533   6.256  -4.433  0.00  0.00    -0.006 A 
ATOM     14  C   UNL     1       3.499   5.653  -3.210  0.00  0.00    -0.003 A 
ATOM     15  C   UNL     1       4.222   6.252  -2.187  0.00  0.00    -0.000 A 
ATOM     16  C   UNL     1       4.793   7.499  -2.319  0.00  0.00    -0.000 A 
ATOM     17  C   UNL     1       5.041   7.964  -3.601  0.00  0.00    -0.000 A 
ATOM     18  C   UNL     1       4.383   7.335  -4.649  0.00  0.00    -0.003 A 
ENDBRANCH   2  13
ENDBRANCH   1   2
BRANCH   1  19
ATOM     19  O   UNL     1       3.697   6.018  -7.921  0.00  0.00    -0.350 OA
BRANCH  19  21
ATOM     20  C   UNL     1       5.638   5.565  -9.117  0.00  0.00    +0.037 C 
ATOM     21  C   UNL     1       4.132   4.849  -8.848  0.00  0.00    +0.138 C 
BRANCH  21  22
ATOM     22  C   UNL     1       3.438   5.558 -10.162  0.00  0.00    +0.004 A 
ATOM     23  C   UNL     1       2.165   6.001  -9.944  0.00  0.00    +0.002 A 
ATOM     24  C   UNL     1       1.414   6.320 -11.070  0.00  0.00    +0.071 A 
ATOM     25  C   UNL     1       2.033   6.239 -12.311  0.00  0.00    +0.008 A 
ATOM     26  C   UNL     1       3.370   5.879 -12.453  0.00  0.00    +0.071 A 
ATOM     27  C   UNL     1       4.111   5.537 -11.321  0.00  0.00    +0.002 A 
BRANCH  24  28
ATOM     28  C   UNL     1      -0.072   6.236 -10.944  0.00  0.00    +0.419 C 
ATOM     29  F   UNL     1      -0.492   6.173  -9.644  0.00  0.00    -0.166 F 
ATOM     30  F   UNL     1      -0.528   5.145 -11.634  0.00  0.00    -0.166 F 
ATOM     31  F   UNL     1      -0.562   7.415 -11.485  0.00  0.00    -0.166 F 
ENDBRANCH  24  28
BRANCH  26  32
ATOM     32  C   UNL     1       3.716   5.333 -13.806  0.00  0.00    +0.419 C 
ATOM     33  F   UNL     1       4.902   4.650 -13.772  0.00  0.00    -0.166 F 
ATOM     34  F   UNL     1       2.736   4.438 -14.225  0.00  0.00    -0.166 F 
ATOM     35  F   UNL     1       3.701   6.356 -14.732  0.00  0.00    -0.166 F 
ENDBRANCH  26  32
ENDBRANCH  21  22
ENDBRANCH  19  21
ENDBRANCH   1  19
TORSDOF 7
ENDMDL
MODEL 7
REMARK VINA RESULT:     -10.0      0.776      2.875
REMARK  Name = 
REMARK  7 active torsions:
REMARK  status: ('A' for Active; 'I' for Inactive)
REMARK    1  A    between atoms: C_2  and  O_3
REMARK    2  A    between atoms: C_2  and  C_22
REMARK    3  A    between atoms: O_3  and  C_4
REMARK    4  A    between atoms: C_4  and  C_5
REMARK    5  A    between atoms: C_5  and  C_6
REMARK    6  A    between atoms: C_24  and  C_25
REMARK    7  A    between atoms: C_30  and  C_31
REMARK                            x       y       z     vdW  Elec       q    Type
REMARK                         _______ _______ _______ _____ _____    ______ ____
ROOT
ATOM      1  C   UNL     1       1.445   5.552  -8.127  0.00  0.00    +0.162 C 
ENDROOT
BRANCH   1   2
ATOM      2  C   UNL     1       1.449   5.921  -6.677  0.00  0.00    +0.105 C 
ATOM      3  N   UNL     1       2.311   7.055  -6.498  0.00  0.00    -0.212 NA
ATOM      4  C   UNL     1       3.578   6.711  -5.863  0.00  0.00    +0.109 C 
ATOM      5  C   UNL     1       3.365   6.301  -4.442  0.00  0.00    +0.095 C 
ATOM      6  N   UNL     1       4.448   5.514  -3.896  0.00  0.00    -0.207 NA
ATOM      7  C   UNL     1       4.191   5.461  -2.488  0.00  0.00    +0.241 C 
ATOM      8  O   UNL     1       4.295   4.477  -1.701  0.00  0.00    -0.273 OA
ATOM      9  C   UNL     1       3.730   6.840  -2.145  0.00  0.00    +0.089 C 
ATOM     10  C   UNL     1       3.285   7.441  -3.472  0.00  0.00    +0.031 C 
ATOM     11  C   UNL     1       2.131   5.425  -4.403  0.00  0.00    +0.023 C 
ATOM     12  C   UNL     1       2.005   4.810  -5.792  0.00  0.00    +0.024 C 
BRANCH   2  13
ATOM     13  C   UNL     1       0.066   6.175  -6.174  0.00  0.00    -0.006 A 
ATOM     14  C   UNL     1      -0.258   7.183  -5.313  0.00  0.00    -0.003 A 
ATOM     15  C   UNL     1      -1.602   7.348  -5.005  0.00  0.00    -0.000 A 
ATOM     16  C   UNL     1      -2.562   6.433  -5.378  0.00  0.00    -0.000 A 
ATOM     17  C   UNL     1      -2.272   5.589  -6.439  0.00  0.00    -0.000 A 
ATOM     18  C   UNL     1      -0.942   5.462  -6.812  0.00  0.00    -0.003 A 
ENDBRANCH   2  13
ENDBRANCH   1   2
BRANCH   1  19
ATOM     19  O   UNL     1       2.732   5.423  -8.674  0.00  0.00    -0.350 OA
BRANCH  19  21
ATOM     20  C   UNL     1       1.543   5.291 -10.668  0.00  0.00    +0.037 C 
ATOM     21  C   UNL     1       2.527   6.404  -9.861  0.00  0.00    +0.138 C 
BRANCH  21  22
ATOM     22  C   UNL     1       3.905   5.886 -10.601  0.00  0.00    +0.004 A 
ATOM     23  C   UNL     1       4.951   5.688  -9.746  0.00  0.00    +0.002 A 
ATOM     24  C   UNL     1       6.210   5.558 -10.321  0.00  0.00    +0.071 A 
ATOM     25  C   UNL     1       6.298   5.560 -11.707  0.00  0.00    +0.008 A 
ATOM     26  C   UNL     1       5.175   5.663 -12.523  0.00  0.00    +0.071 A 
ATOM     27  C   UNL     1       3.917   5.817 -11.939  0.00  0.00    +0.002 A 
BRANCH  24  28
ATOM     28  C   UNL     1       7.386   5.920  -9.473  0.00  0.00    +0.419 C 
ATOM     29  F   UNL     1       7.071   6.034  -8.147  0.00  0.00    -0.166 F 
ATOM     30  F   UNL     1       7.930   7.093  -9.925  0.00  0.00    -0.166 F 
ATOM     31  F   UNL     1       8.280   4.867  -9.601  0.00  0.00    -0.166 F 
ENDBRANCH  24  28
BRANCH  26  32
ATOM     32  C   UNL     1       5.464   6.177 -13.900  0.00  0.00    +0.419 C 
ATOM     33  F   UNL     1       6.262   5.308 -14.594  0.00  0.00    -0.166 F 
ATOM     34  F   UNL     1       4.279   6.311 -14.618  0.00  0.00    -0.166 F 
ATOM     35  F   UNL     1       5.988   7.451 -13.815  0.00  0.00    -0.166 F 
ENDBRANCH  26  32
ENDBRANCH  21  22
ENDBRANCH  19  21
ENDBRANCH   1  19
TORSDOF 7
ENDMDL
MODEL 8
REMARK VINA RESULT:      -9.9      4.838      9.313
REMARK  Name = 
REMARK  7 active torsions:
REMARK  status: ('A' for Active; 'I' for Inactive)
REMARK    1  A    between atoms: C_2  and  O_3
REMARK    2  A    between atoms: C_2  and  C_22
REMARK    3  A    between atoms: O_3  and  C_4
REMARK    4  A    between atoms: C_4  and  C_5
REMARK    5  A    between atoms: C_5  and  C_6
REMARK    6  A    between atoms: C_24  and  C_25
REMARK    7  A    between atoms: C_30  and  C_31
REMARK                            x       y       z     vdW  Elec       q    Type
REMARK                         _______ _______ _______ _____ _____    ______ ____
ROOT
ATOM      1  C   UNL     1       3.493   5.959  -7.648  0.00  0.00    +0.162 C 
ENDROOT
BRANCH   1   2
ATOM      2  C   UNL     1       3.477   6.112  -9.136  0.00  0.00    +0.105 C 
ATOM      3  N   UNL     1       2.516   7.122  -9.480  0.00  0.00    -0.212 NA
ATOM      4  C   UNL     1       1.296   6.572 -10.060  0.00  0.00    +0.109 C 
ATOM      5  C   UNL     1       1.569   5.983 -11.406  0.00  0.00    +0.095 C 
ATOM      6  N   UNL     1       0.571   5.026 -11.833  0.00  0.00    -0.207 NA
ATOM      7  C   UNL     1       0.854   4.793 -13.218  0.00  0.00    +0.241 C 
ATOM      8  O   UNL     1       0.854   3.701 -13.853  0.00  0.00    -0.273 OA
ATOM      9  C   UNL     1       1.190   6.146 -13.758  0.00  0.00    +0.089 C 
ATOM     10  C   UNL     1       1.557   6.972 -12.531  0.00  0.00    +0.031 C 
ATOM     11  C   UNL     1       2.879   5.230 -11.315  0.00  0.00    +0.023 C 
ATOM     12  C   UNL     1       3.041   4.838  -9.850  0.00  0.00    +0.024 C 
BRANCH   2  13
ATOM     13  C   UNL     1       4.838   6.420  -9.669  0.00  0.00    -0.006 A 
ATOM     14  C   UNL     1       5.943   5.659  -9.423  0.00  0.00    -0.003 A 
ATOM     15  C   UNL     1       7.121   6.024 -10.060  0.00  0.00    -0.000 A 
ATOM     16  C   UNL     1       7.247   7.206 -10.757  0.00  0.00    -0.000 A 
ATOM     17  C   UNL     1       6.087   7.816 -11.210  0.00  0.00    -0.000 A 
ATOM     18  C   UNL     1       4.887   7.417 -10.636  0.00  0.00    -0.003 A 
ENDBRANCH   2  13
ENDBRANCH   1   2
BRANCH   1  19
ATOM     19  O   UNL     1       2.211   5.931  -7.075  0.00  0.00    -0.350 OA
BRANCH  19  21
ATOM     20  C   UNL     1       1.859   3.783  -6.259  0.00  0.00    +0.037 C 
ATOM     21  C   UNL     1       2.613   5.210  -5.759  0.00  0.00    +0.138 C 
BRANCH  21  22
ATOM     22  C   UNL     1       1.276   5.771  -4.977  0.00  0.00    +0.004 A 
ATOM     23  C   UNL     1       1.399   5.795  -3.618  0.00  0.00    +0.002 A 
ATOM     24  C   UNL     1       0.226   5.953  -2.888  0.00  0.00    +0.071 A 
ATOM     25  C   UNL     1      -0.957   6.151  -3.589  0.00  0.00    +0.008 A 
ATOM     26  C   UNL     1      -0.995   6.219  -4.978  0.00  0.00    +0.071 A 
ATOM     27  C   UNL     1       0.182   6.035  -5.705  0.00  0.00    +0.002 A 
BRANCH  24  28
ATOM     28  C   UNL     1       0.215   5.419  -1.493  0.00  0.00    +0.419 C 
ATOM     29  F   UNL     1       0.809   6.263  -0.596  0.00  0.00    -0.166 F 
ATOM     30  F   UNL     1       0.835   4.199  -1.466  0.00  0.00    -0.166 F 
ATOM     31  F   UNL     1      -1.123   5.312  -1.143  0.00  0.00    -0.166 F 
ENDBRANCH  24  28
BRANCH  26  32
ATOM     32  C   UNL     1      -2.334   5.900  -5.571  0.00  0.00    +0.419 C 
ATOM     33  F   UNL     1      -2.987   7.041  -5.955  0.00  0.00    -0.166 F 
ATOM     34  F   UNL     1      -2.178   5.112  -6.707  0.00  0.00    -0.166 F 
ATOM     35  F   UNL     1      -3.058   5.128  -4.684  0.00  0.00    -0.166 F 
ENDBRANCH  26  32
ENDBRANCH  21  22
ENDBRANCH  19  21
ENDBRANCH   1  19
TORSDOF 7
ENDMDL
MODEL 9
REMARK VINA RESULT:      -9.8      1.408      2.207
REMARK  Name = 
REMARK  7 active torsions:
REMARK  status: ('A' for Active; 'I' for Inactive)
REMARK    1  A    between atoms: C_2  and  O_3
REMARK    2  A    between atoms: C_2  and  C_22
REMARK    3  A    between atoms: O_3  and  C_4
REMARK    4  A    between atoms: C_4  and  C_5
REMARK    5  A    between atoms: C_5  and  C_6
REMARK    6  A    between atoms: C_24  and  C_25
REMARK    7  A    between atoms: C_30  and  C_31
REMARK                            x       y       z     vdW  Elec       q    Type
REMARK                         _______ _______ _______ _____ _____    ______ ____
ROOT
ATOM      1  C   UNL     1       1.577   5.358  -7.462  0.00  0.00    +0.162 C 
ENDROOT
BRANCH   1   2
ATOM      2  C   UNL     1       1.479   5.841  -6.049  0.00  0.00    +0.105 C 
ATOM      3  N   UNL     1       2.447   6.884  -5.857  0.00  0.00    -0.212 NA
ATOM      4  C   UNL     1       3.594   6.456  -5.064  0.00  0.00    +0.109 C 
ATOM      5  C   UNL     1       3.192   6.190  -3.650  0.00  0.00    +0.095 C 
ATOM      6  N   UNL     1       4.115   5.335  -2.935  0.00  0.00    -0.207 NA
ATOM      7  C   UNL     1       3.713   5.426  -1.564  0.00  0.00    +0.241 C 
ATOM      8  O   UNL     1       3.619   4.504  -0.703  0.00  0.00    -0.273 OA
ATOM      9  C   UNL     1       3.386   6.871  -1.370  0.00  0.00    +0.089 C 
ATOM     10  C   UNL     1       3.150   7.407  -2.777  0.00  0.00    +0.031 C 
ATOM     11  C   UNL     1       1.866   5.461  -3.685  0.00  0.00    +0.023 C 
ATOM     12  C   UNL     1       1.808   4.752  -5.033  0.00  0.00    +0.024 C 
BRANCH   2  13
ATOM     13  C   UNL     1       0.092   6.287  -5.718  0.00  0.00    -0.006 A 
ATOM     14  C   UNL     1      -0.197   7.425  -5.024  0.00  0.00    -0.003 A 
ATOM     15  C   UNL     1      -1.537   7.753  -4.871  0.00  0.00    -0.000 A 
ATOM     16  C   UNL     1      -2.552   6.890  -5.221  0.00  0.00    -0.000 A 
ATOM     17  C   UNL     1      -2.263   5.891  -6.138  0.00  0.00    -0.000 A 
ATOM     18  C   UNL     1      -0.926   5.593  -6.361  0.00  0.00    -0.003 A 
ENDBRANCH   2  13
ENDBRANCH   1   2
BRANCH   1  19
ATOM     19  O   UNL     1       2.589   5.992  -8.200  0.00  0.00    -0.350 OA
BRANCH  19  21
ATOM     20  C   UNL     1       4.753   5.145  -8.219  0.00  0.00    +0.037 C 
ATOM     21  C   UNL     1       3.224   4.703  -8.789  0.00  0.00    +0.138 C 
BRANCH  21  22
ATOM     22  C   UNL     1       3.446   5.414 -10.258  0.00  0.00    +0.004 A 
ATOM     23  C   UNL     1       2.291   5.603 -10.961  0.00  0.00    +0.002 A 
ATOM     24  C   UNL     1       2.426   5.902 -12.312  0.00  0.00    +0.071 A 
ATOM     25  C   UNL     1       3.708   6.062 -12.820  0.00  0.00    +0.008 A 
ATOM     26  C   UNL     1       4.843   5.958 -12.021  0.00  0.00    +0.071 A 
ATOM     27  C   UNL     1       4.702   5.634 -10.671  0.00  0.00    +0.002 A 
BRANCH  24  28
ATOM     28  C   UNL     1       1.282   5.547 -13.205  0.00  0.00    +0.419 C 
ATOM     29  F   UNL     1       0.783   4.298 -12.960  0.00  0.00    -0.166 F 
ATOM     30  F   UNL     1       1.677   5.642 -14.513  0.00  0.00    -0.166 F 
ATOM     31  F   UNL     1       0.280   6.462 -12.914  0.00  0.00    -0.166 F 
ENDBRANCH  24  28
BRANCH  26  32
ATOM     32  C   UNL     1       6.095   5.627 -12.776  0.00  0.00    +0.419 C 
ATOM     33  F   UNL     1       5.805   5.046 -13.981  0.00  0.00    -0.166 F 
ATOM     34  F   UNL     1       6.814   6.789 -13.041  0.00  0.00    -0.166 F 
ATOM     35  F   UNL     1       6.921   4.857 -11.982  0.00  0.00    -0.166 F 
ENDBRANCH  26  32
ENDBRANCH  21  22
ENDBRANCH  19  21
ENDBRANCH   1  19
TORSDOF 7
ENDMDL
