MODEL 1
REMARK VINA RESULT:      -6.8      0.000      0.000
REMARK  Name = 
REMARK  9 active torsions:
REMARK  status: ('A' for Active; 'I' for Inactive)
REMARK    1  A    between atoms: C_2  and  C_4
REMARK    2  A    between atoms: C_4  and  O_6
REMARK    3  A    between atoms: O_6  and  C_7
REMARK    4  A    between atoms: C_7  and  O_9
REMARK    5  A    between atoms: O_9  and  C_10
REMARK    6  A    between atoms: N_12  and  C_13
REMARK    7  A    between atoms: C_13  and  C_14
REMARK    8  A    between atoms: C_14  and  C_15
REMARK    9  A    between atoms: C_15  and  C_16
REMARK                            x       y       z     vdW  Elec       q    Type
REMARK                         _______ _______ _______ _____ _____    ______ ____
ROOT
ATOM      1  C   UNL     1       0.379   5.336  -1.964  0.00  0.00    +0.424 C 
ATOM      2  N   UNL     1       1.583   5.447  -2.726  0.00  0.00    -0.169 NA
ATOM      3  O   UNL     1       0.296   6.086  -0.946  0.00  0.00    -0.224 OA
ENDROOT
BRANCH   1   4
ATOM      4  O   UNL     1      -0.791   5.093  -2.617  0.00  0.00    -0.398 OA
BRANCH   4   5
ATOM      5  C   UNL     1      -1.599   6.286  -3.171  0.00  0.00    +0.346 C 
ATOM      6  C   UNL     1      -3.039   5.722  -2.575  0.00  0.00    +0.100 C 
BRANCH   5   7
ATOM      7  O   UNL     1      -1.833   5.591  -4.536  0.00  0.00    -0.414 OA
BRANCH   7   8
ATOM      8  C   UNL     1      -0.869   5.977  -5.472  0.00  0.00    +0.319 C 
ATOM      9  O   UNL     1      -0.181   7.031  -5.330  0.00  0.00    -0.250 OA
BRANCH   8  11
ATOM     10  C   UNL     1      -0.520   5.449  -7.536  0.00  0.00    +0.012 C 
ATOM     11  C   UNL     1      -0.390   5.050  -6.544  0.00  0.00    +0.099 C 
ATOM     12  C   UNL     1       0.969   4.554  -6.139  0.00  0.00    +0.012 C 
ENDBRANCH   8  11
ENDBRANCH   7   8
ENDBRANCH   5   7
ENDBRANCH   4   5
ENDBRANCH   1   4
BRANCH   2  13
ATOM     13  C   UNL     1       2.418   6.644  -2.726  0.00  0.00    +0.119 C 
BRANCH  13  14
ATOM     14  C   UNL     1       3.841   6.139  -2.553  0.00  0.00    +0.031 C 
ATOM     15  C   UNL     1       4.861   7.232  -2.678  0.00  0.00    +0.002 C 
ATOM     16  C   UNL     1       4.979   7.772  -4.079  0.00  0.00    +0.000 C 
ATOM     17  C   UNL     1       4.133   7.033  -5.072  0.00  0.00    +0.000 C 
ATOM     18  C   UNL     1       4.370   5.554  -4.944  0.00  0.00    +0.000 C 
ATOM     19  C   UNL     1       4.084   5.030  -3.568  0.00  0.00    +0.002 C 
BRANCH  14  20
ATOM     20  C   UNL     1       3.914   5.511  -1.193  0.00  0.00    +0.116 C 
BRANCH  20  21
ATOM     21  C   UNL     1       4.034   6.514  -0.095  0.00  0.00    +0.365 C 
ATOM     22  O   UNL     1       2.917   7.020   0.577  0.00  0.00    -0.246 OA
ATOM     23  O   UNL     1       5.087   6.416   0.604  0.00  0.00    -0.246 OA
ENDBRANCH  20  21
ENDBRANCH  14  20
ENDBRANCH  13  14
ENDBRANCH   2  13
TORSDOF 9
ENDMDL
MODEL 2
REMARK VINA RESULT:      -6.7      2.066      4.094
REMARK  Name = 
REMARK  9 active torsions:
REMARK  status: ('A' for Active; 'I' for Inactive)
REMARK    1  A    between atoms: C_2  and  C_4
REMARK    2  A    between atoms: C_4  and  O_6
REMARK    3  A    between atoms: O_6  and  C_7
REMARK    4  A    between atoms: C_7  and  O_9
REMARK    5  A    between atoms: O_9  and  C_10
REMARK    6  A    between atoms: N_12  and  C_13
REMARK    7  A    between atoms: C_13  and  C_14
REMARK    8  A    between atoms: C_14  and  C_15
REMARK    9  A    between atoms: C_15  and  C_16
REMARK                            x       y       z     vdW  Elec       q    Type
REMARK                         _______ _______ _______ _____ _____    ______ ____
ROOT
ATOM      1  C   UNL     1       1.100   4.920  -2.165  0.00  0.00    +0.424 C 
ATOM      2  N   UNL     1       1.231   5.540  -3.447  0.00  0.00    -0.169 NA
ATOM      3  O   UNL     1       2.086   5.056  -1.381  0.00  0.00    -0.224 OA
ENDROOT
BRANCH   1   4
ATOM      4  O   UNL     1      -0.126   4.887  -1.573  0.00  0.00    -0.398 OA
BRANCH   4   5
ATOM      5  C   UNL     1      -1.106   6.053  -1.822  0.00  0.00    +0.346 C 
ATOM      6  C   UNL     1      -1.696   6.024  -0.273  0.00  0.00    +0.100 C 
BRANCH   5   7
ATOM      7  O   UNL     1      -2.226   5.105  -2.320  0.00  0.00    -0.414 OA
BRANCH   7   8
ATOM      8  C   UNL     1      -2.905   5.654  -3.412  0.00  0.00    +0.319 C 
ATOM      9  O   UNL     1      -4.103   6.057  -3.323  0.00  0.00    -0.250 OA
BRANCH   8  11
ATOM     10  C   UNL     1      -2.453   5.442  -5.512  0.00  0.00    +0.012 C 
ATOM     11  C   UNL     1      -2.195   6.056  -4.665  0.00  0.00    +0.099 C 
ATOM     12  C   UNL     1      -2.315   7.549  -4.794  0.00  0.00    +0.012 C 
ENDBRANCH   8  11
ENDBRANCH   7   8
ENDBRANCH   5   7
ENDBRANCH   4   5
ENDBRANCH   1   4
BRANCH   2  13
ATOM     13  C   UNL     1       2.114   6.674  -3.696  0.00  0.00    +0.119 C 
BRANCH  13  14
ATOM     14  C   UNL     1       2.784   6.375  -5.027  0.00  0.00    +0.031 C 
ATOM     15  C   UNL     1       3.200   4.940  -5.155  0.00  0.00    +0.002 C 
ATOM     16  C   UNL     1       4.338   4.572  -4.239  0.00  0.00    +0.000 C 
ATOM     17  C   UNL     1       4.884   5.740  -3.475  0.00  0.00    +0.000 C 
ATOM     18  C   UNL     1       5.174   6.876  -4.416  0.00  0.00    +0.000 C 
ATOM     19  C   UNL     1       3.969   7.317  -5.192  0.00  0.00    +0.002 C 
BRANCH  14  20
ATOM     20  C   UNL     1       1.794   6.726  -6.097  0.00  0.00    +0.116 C 
BRANCH  20  21
ATOM     21  C   UNL     1       2.440   7.197  -7.357  0.00  0.00    +0.365 C 
ATOM     22  O   UNL     1       2.842   6.313  -8.363  0.00  0.00    -0.246 OA
ATOM     23  O   UNL     1       2.058   8.336  -7.759  0.00  0.00    -0.246 OA
ENDBRANCH  20  21
ENDBRANCH  14  20
ENDBRANCH  13  14
ENDBRANCH   2  13
TORSDOF 9
ENDMDL
MODEL 3
REMARK VINA RESULT:      -6.7      7.254      9.810
REMARK  Name = 
REMARK  9 active torsions:
REMARK  status: ('A' for Active; 'I' for Inactive)
REMARK    1  A    between atoms: C_2  and  C_4
REMARK    2  A    between atoms: C_4  and  O_6
REMARK    3  A    between atoms: O_6  and  C_7
REMARK    4  A    between atoms: C_7  and  O_9
REMARK    5  A    between atoms: O_9  and  C_10
REMARK    6  A    between atoms: N_12  and  C_13
REMARK    7  A    between atoms: C_13  and  C_14
REMARK    8  A    between atoms: C_14  and  C_15
REMARK    9  A    between atoms: C_15  and  C_16
REMARK                            x       y       z     vdW  Elec       q    Type
REMARK                         _______ _______ _______ _____ _____    ______ ____
ROOT
ATOM      1  C   UNL     1       2.791   6.149 -11.749  0.00  0.00    +0.424 C 
ATOM      2  N   UNL     1       4.186   6.353 -11.514  0.00  0.00    -0.169 NA
ATOM      3  O   UNL     1       2.498   5.382 -12.714  0.00  0.00    -0.224 OA
ENDROOT
BRANCH   1   4
ATOM      4  O   UNL     1       1.944   6.110 -10.683  0.00  0.00    -0.398 OA
BRANCH   4   5
ATOM      5  C   UNL     1       1.413   4.742 -10.202  0.00  0.00    +0.346 C 
ATOM      6  C   UNL     1      -0.130   5.303  -9.978  0.00  0.00    +0.100 C 
BRANCH   5   7
ATOM      7  O   UNL     1       1.787   5.031  -8.726  0.00  0.00    -0.414 OA
BRANCH   7   8
ATOM      8  C   UNL     1       3.091   4.613  -8.444  0.00  0.00    +0.319 C 
ATOM      9  O   UNL     1       3.629   3.638  -9.048  0.00  0.00    -0.250 OA
BRANCH   8  11
ATOM     10  C   UNL     1       5.021   5.492  -8.042  0.00  0.00    +0.012 C 
ATOM     11  C   UNL     1       4.029   5.442  -7.625  0.00  0.00    +0.099 C 
ATOM     12  C   UNL     1       3.323   6.725  -7.287  0.00  0.00    +0.012 C 
ENDBRANCH   8  11
ENDBRANCH   7   8
ENDBRANCH   5   7
ENDBRANCH   4   5
ENDBRANCH   1   4
BRANCH   2  13
ATOM     13  C   UNL     1       5.211   5.398 -11.926  0.00  0.00    +0.119 C 
BRANCH  13  14
ATOM     14  C   UNL     1       6.202   6.205 -12.748  0.00  0.00    +0.031 C 
ATOM     15  C   UNL     1       7.523   5.513 -12.903  0.00  0.00    +0.002 C 
ATOM     16  C   UNL     1       8.303   5.437 -11.616  0.00  0.00    +0.000 C 
ATOM     17  C   UNL     1       7.645   6.161 -10.481  0.00  0.00    +0.000 C 
ATOM     18  C   UNL     1       7.272   7.553 -10.910  0.00  0.00    +0.000 C 
ATOM     19  C   UNL     1       6.361   7.575 -12.101  0.00  0.00    +0.002 C 
BRANCH  14  20
ATOM     20  C   UNL     1       5.570   6.426 -14.090  0.00  0.00    +0.116 C 
BRANCH  20  21
ATOM     21  C   UNL     1       6.509   7.021 -15.085  0.00  0.00    +0.365 C 
ATOM     22  O   UNL     1       7.139   6.250 -16.068  0.00  0.00    -0.246 OA
ATOM     23  O   UNL     1       6.246   8.214 -15.421  0.00  0.00    -0.246 OA
ENDBRANCH  20  21
ENDBRANCH  14  20
ENDBRANCH  13  14
ENDBRANCH   2  13
TORSDOF 9
ENDMDL
MODEL 4
REMARK VINA RESULT:      -6.6      4.339      6.982
REMARK  Name = 
REMARK  9 active torsions:
REMARK  status: ('A' for Active; 'I' for Inactive)
REMARK    1  A    between atoms: C_2  and  C_4
REMARK    2  A    between atoms: C_4  and  O_6
REMARK    3  A    between atoms: O_6  and  C_7
REMARK    4  A    between atoms: C_7  and  O_9
REMARK    5  A    between atoms: O_9  and  C_10
REMARK    6  A    between atoms: N_12  and  C_13
REMARK    7  A    between atoms: C_13  and  C_14
REMARK    8  A    between atoms: C_14  and  C_15
REMARK    9  A    between atoms: C_15  and  C_16
REMARK                            x       y       z     vdW  Elec       q    Type
REMARK                         _______ _______ _______ _____ _____    ______ ____
ROOT
ATOM      1  C   UNL     1       2.123   7.172  -8.092  0.00  0.00    +0.424 C 
ATOM      2  N   UNL     1       1.096   6.457  -7.402  0.00  0.00    -0.169 NA
ATOM      3  O   UNL     1       2.192   8.414  -7.851  0.00  0.00    -0.224 OA
ENDROOT
BRANCH   1   4
ATOM      4  O   UNL     1       3.310   6.549  -8.331  0.00  0.00    -0.398 OA
BRANCH   4   5
ATOM      5  C   UNL     1       3.492   5.768  -9.651  0.00  0.00    +0.346 C 
ATOM      6  C   UNL     1       3.520   4.293  -8.896  0.00  0.00    +0.100 C 
BRANCH   5   7
ATOM      7  O   UNL     1       5.036   5.884  -9.594  0.00  0.00    -0.414 OA
BRANCH   7   8
ATOM      8  C   UNL     1       5.583   5.986 -10.877  0.00  0.00    +0.319 C 
ATOM      9  O   UNL     1       5.058   5.412 -11.877  0.00  0.00    -0.250 OA
BRANCH   8  11
ATOM     10  C   UNL     1       6.257   7.978 -11.365  0.00  0.00    +0.012 C 
ATOM     11  C   UNL     1       6.645   6.986 -11.209  0.00  0.00    +0.099 C 
ATOM     12  C   UNL     1       7.767   6.796 -10.227  0.00  0.00    +0.012 C 
ENDBRANCH   8  11
ENDBRANCH   7   8
ENDBRANCH   5   7
ENDBRANCH   4   5
ENDBRANCH   1   4
BRANCH   2  13
ATOM     13  C   UNL     1       0.519   6.912  -6.141  0.00  0.00    +0.119 C 
BRANCH  13  14
ATOM     14  C   UNL     1      -0.036   5.661  -5.481  0.00  0.00    +0.031 C 
ATOM     15  C   UNL     1      -1.110   5.005  -6.297  0.00  0.00    +0.002 C 
ATOM     16  C   UNL     1      -2.380   5.812  -6.360  0.00  0.00    +0.000 C 
ATOM     17  C   UNL     1      -2.341   7.045  -5.508  0.00  0.00    +0.000 C 
ATOM     18  C   UNL     1      -1.886   6.692  -4.119  0.00  0.00    +0.000 C 
ATOM     19  C   UNL     1      -0.539   6.033  -4.092  0.00  0.00    +0.002 C 
BRANCH  14  20
ATOM     20  C   UNL     1       1.119   4.724  -5.291  0.00  0.00    +0.116 C 
BRANCH  20  21
ATOM     21  C   UNL     1       2.256   5.345  -4.551  0.00  0.00    +0.365 C 
ATOM     22  O   UNL     1       2.346   5.307  -3.155  0.00  0.00    -0.246 OA
ATOM     23  O   UNL     1       3.365   5.328  -5.164  0.00  0.00    -0.246 OA
ENDBRANCH  20  21
ENDBRANCH  14  20
ENDBRANCH  13  14
ENDBRANCH   2  13
TORSDOF 9
ENDMDL
MODEL 5
REMARK VINA RESULT:      -6.6      3.679      6.409
REMARK  Name = 
REMARK  9 active torsions:
REMARK  status: ('A' for Active; 'I' for Inactive)
REMARK    1  A    between atoms: C_2  and  C_4
REMARK    2  A    between atoms: C_4  and  O_6
REMARK    3  A    between atoms: O_6  and  C_7
REMARK    4  A    between atoms: C_7  and  O_9
REMARK    5  A    between atoms: O_9  and  C_10
REMARK    6  A    between atoms: N_12  and  C_13
REMARK    7  A    between atoms: C_13  and  C_14
REMARK    8  A    between atoms: C_14  and  C_15
REMARK    9  A    between atoms: C_15  and  C_16
REMARK                            x       y       z     vdW  Elec       q    Type
REMARK                         _______ _______ _______ _____ _____    ______ ____
ROOT
ATOM      1  C   UNL     1       1.861   7.300  -8.278  0.00  0.00    +0.424 C 
ATOM      2  N   UNL     1       0.834   6.623  -7.550  0.00  0.00    -0.169 NA
ATOM      3  O   UNL     1       2.271   8.388  -7.775  0.00  0.00    -0.224 OA
ENDROOT
BRANCH   1   4
ATOM      4  O   UNL     1       2.798   6.561  -8.933  0.00  0.00    -0.398 OA
BRANCH   4   5
ATOM      5  C   UNL     1       2.487   5.085  -9.265  0.00  0.00    +0.346 C 
ATOM      6  C   UNL     1       4.078   4.699  -9.522  0.00  0.00    +0.100 C 
BRANCH   5   7
ATOM      7  O   UNL     1       2.267   5.393 -10.769  0.00  0.00    -0.414 OA
BRANCH   7   8
ATOM      8  C   UNL     1       0.920   5.259 -11.120  0.00  0.00    +0.319 C 
ATOM      9  O   UNL     1       0.188   4.346 -10.636  0.00  0.00    -0.250 OA
BRANCH   8  11
ATOM     10  C   UNL     1      -0.342   7.009 -11.211  0.00  0.00    +0.012 C 
ATOM     11  C   UNL     1       0.185   6.330 -11.861  0.00  0.00    +0.099 C 
ATOM     12  C   UNL     1       1.125   6.899 -12.886  0.00  0.00    +0.012 C 
ENDBRANCH   8  11
ENDBRANCH   7   8
ENDBRANCH   5   7
ENDBRANCH   4   5
ENDBRANCH   1   4
BRANCH   2  13
ATOM     13  C   UNL     1       0.623   6.802  -6.117  0.00  0.00    +0.119 C 
BRANCH  13  14
ATOM     14  C   UNL     1       0.052   5.481  -5.628  0.00  0.00    +0.031 C 
ATOM     15  C   UNL     1      -1.072   4.984  -6.487  0.00  0.00    +0.002 C 
ATOM     16  C   UNL     1      -2.317   5.825  -6.374  0.00  0.00    +0.000 C 
ATOM     17  C   UNL     1      -2.205   6.914  -5.350  0.00  0.00    +0.000 C 
ATOM     18  C   UNL     1      -1.709   6.344  -4.050  0.00  0.00    +0.000 C 
ATOM     19  C   UNL     1      -0.385   5.652  -4.179  0.00  0.00    +0.002 C 
BRANCH  14  20
ATOM     20  C   UNL     1       1.183   4.496  -5.630  0.00  0.00    +0.116 C 
BRANCH  20  21
ATOM     21  C   UNL     1       2.465   5.080  -5.138  0.00  0.00    +0.365 C 
ATOM     22  O   UNL     1       2.783   5.139  -3.777  0.00  0.00    -0.246 OA
ATOM     23  O   UNL     1       3.453   4.931  -5.917  0.00  0.00    -0.246 OA
ENDBRANCH  20  21
ENDBRANCH  14  20
ENDBRANCH  13  14
ENDBRANCH   2  13
TORSDOF 9
ENDMDL
MODEL 6
REMARK VINA RESULT:      -6.6      6.268      8.686
REMARK  Name = 
REMARK  9 active torsions:
REMARK  status: ('A' for Active; 'I' for Inactive)
REMARK    1  A    between atoms: C_2  and  C_4
REMARK    2  A    between atoms: C_4  and  O_6
REMARK    3  A    between atoms: O_6  and  C_7
REMARK    4  A    between atoms: C_7  and  O_9
REMARK    5  A    between atoms: O_9  and  C_10
REMARK    6  A    between atoms: N_12  and  C_13
REMARK    7  A    between atoms: C_13  and  C_14
REMARK    8  A    between atoms: C_14  and  C_15
REMARK    9  A    between atoms: C_15  and  C_16
REMARK                            x       y       z     vdW  Elec       q    Type
REMARK                         _______ _______ _______ _____ _____    ______ ____
ROOT
ATOM      1  C   UNL     1       3.169   4.365  -8.869  0.00  0.00    +0.424 C 
ATOM      2  N   UNL     1       4.078   4.692  -9.923  0.00  0.00    -0.169 NA
ATOM      3  O   UNL     1       3.526   4.711  -7.704  0.00  0.00    -0.224 OA
ENDROOT
BRANCH   1   4
ATOM      4  O   UNL     1       1.831   4.413  -9.117  0.00  0.00    -0.398 OA
BRANCH   4   5
ATOM      5  C   UNL     1       1.135   5.789  -9.195  0.00  0.00    +0.346 C 
ATOM      6  C   UNL     1       0.099   5.453  -7.946  0.00  0.00    +0.100 C 
BRANCH   5   7
ATOM      7  O   UNL     1       0.109   5.295 -10.247  0.00  0.00    -0.414 OA
BRANCH   7   8
ATOM      8  C   UNL     1       0.519   5.617 -11.543  0.00  0.00    +0.319 C 
ATOM      9  O   UNL     1       0.705   4.730 -12.429  0.00  0.00    -0.250 OA
BRANCH   8  11
ATOM     10  C   UNL     1       0.777   7.099 -13.092  0.00  0.00    +0.012 C 
ATOM     11  C   UNL     1       0.498   7.023 -12.054  0.00  0.00    +0.099 C 
ATOM     12  C   UNL     1      -0.792   7.649 -11.606  0.00  0.00    +0.012 C 
ENDBRANCH   8  11
ENDBRANCH   7   8
ENDBRANCH   5   7
ENDBRANCH   4   5
ENDBRANCH   1   4
BRANCH   2  13
ATOM     13  C   UNL     1       5.048   5.779  -9.831  0.00  0.00    +0.119 C 
BRANCH  13  14
ATOM     14  C   UNL     1       5.376   6.145 -11.268  0.00  0.00    +0.031 C 
ATOM     15  C   UNL     1       6.507   5.335 -11.827  0.00  0.00    +0.002 C 
ATOM     16  C   UNL     1       7.836   5.665 -11.198  0.00  0.00    +0.000 C 
ATOM     17  C   UNL     1       7.765   6.804 -10.227  0.00  0.00    +0.000 C 
ATOM     18  C   UNL     1       7.060   7.972 -10.860  0.00  0.00    +0.000 C 
ATOM     19  C   UNL     1       5.675   7.638 -11.328  0.00  0.00    +0.002 C 
BRANCH  14  20
ATOM     20  C   UNL     1       4.128   5.917 -12.068  0.00  0.00    +0.116 C 
BRANCH  20  21
ATOM     21  C   UNL     1       4.398   5.339 -13.416  0.00  0.00    +0.365 C 
ATOM     22  O   UNL     1       3.946   4.068 -13.786  0.00  0.00    -0.246 OA
ATOM     23  O   UNL     1       4.460   6.185 -14.358  0.00  0.00    -0.246 OA
ENDBRANCH  20  21
ENDBRANCH  14  20
ENDBRANCH  13  14
ENDBRANCH   2  13
TORSDOF 9
ENDMDL
MODEL 7
REMARK VINA RESULT:      -6.6      1.381      1.741
REMARK  Name = 
REMARK  9 active torsions:
REMARK  status: ('A' for Active; 'I' for Inactive)
REMARK    1  A    between atoms: C_2  and  C_4
REMARK    2  A    between atoms: C_4  and  O_6
REMARK    3  A    between atoms: O_6  and  C_7
REMARK    4  A    between atoms: C_7  and  O_9
REMARK    5  A    between atoms: O_9  and  C_10
REMARK    6  A    between atoms: N_12  and  C_13
REMARK    7  A    between atoms: C_13  and  C_14
REMARK    8  A    between atoms: C_14  and  C_15
REMARK    9  A    between atoms: C_15  and  C_16
REMARK                            x       y       z     vdW  Elec       q    Type
REMARK                         _______ _______ _______ _____ _____    ______ ____
ROOT
ATOM      1  C   UNL     1       0.161   5.503  -3.327  0.00  0.00    +0.424 C 
ATOM      2  N   UNL     1       1.553   5.552  -3.649  0.00  0.00    -0.169 NA
ATOM      3  O   UNL     1      -0.203   6.204  -2.336  0.00  0.00    -0.224 OA
ENDROOT
BRANCH   1   4
ATOM      4  O   UNL     1      -0.744   5.393  -4.338  0.00  0.00    -0.398 OA
BRANCH   4   5
ATOM      5  C   UNL     1      -0.762   6.470  -5.444  0.00  0.00    +0.346 C 
ATOM      6  C   UNL     1      -2.373   6.801  -5.239  0.00  0.00    +0.100 C 
BRANCH   5   7
ATOM      7  O   UNL     1      -1.065   5.431  -6.555  0.00  0.00    -0.414 OA
BRANCH   7   8
ATOM      8  C   UNL     1      -0.076   5.444  -7.542  0.00  0.00    +0.319 C 
ATOM      9  O   UNL     1      -0.354   5.594  -8.769  0.00  0.00    -0.250 OA
BRANCH   8  11
ATOM     10  C   UNL     1       1.905   4.625  -7.280  0.00  0.00    +0.012 C 
ATOM     11  C   UNL     1       1.377   5.561  -7.207  0.00  0.00    +0.099 C 
ATOM     12  C   UNL     1       1.918   6.753  -7.946  0.00  0.00    +0.012 C 
ENDBRANCH   8  11
ENDBRANCH   7   8
ENDBRANCH   5   7
ENDBRANCH   4   5
ENDBRANCH   1   4
BRANCH   2  13
ATOM     13  C   UNL     1       2.415   6.673  -3.288  0.00  0.00    +0.119 C 
BRANCH  13  14
ATOM     14  C   UNL     1       3.757   6.051  -2.942  0.00  0.00    +0.031 C 
ATOM     15  C   UNL     1       4.847   7.070  -2.800  0.00  0.00    +0.002 C 
ATOM     16  C   UNL     1       5.226   7.715  -4.108  0.00  0.00    +0.000 C 
ATOM     17  C   UNL     1       4.511   7.127  -5.286  0.00  0.00    +0.000 C 
ATOM     18  C   UNL     1       4.634   5.629  -5.264  0.00  0.00    +0.000 C 
ATOM     19  C   UNL     1       4.095   5.014  -4.006  0.00  0.00    +0.002 C 
BRANCH  14  20
ATOM     20  C   UNL     1       3.568   5.307  -1.653  0.00  0.00    +0.116 C 
BRANCH  20  21
ATOM     21  C   UNL     1       3.427   6.212  -0.475  0.00  0.00    +0.365 C 
ATOM     22  O   UNL     1       2.179   6.536   0.070  0.00  0.00    -0.246 OA
ATOM     23  O   UNL     1       4.382   6.160   0.356  0.00  0.00    -0.246 OA
ENDBRANCH  20  21
ENDBRANCH  14  20
ENDBRANCH  13  14
ENDBRANCH   2  13
TORSDOF 9
ENDMDL
MODEL 8
REMARK VINA RESULT:      -6.4      3.303      6.302
REMARK  Name = 
REMARK  9 active torsions:
REMARK  status: ('A' for Active; 'I' for Inactive)
REMARK    1  A    between atoms: C_2  and  C_4
REMARK    2  A    between atoms: C_4  and  O_6
REMARK    3  A    between atoms: O_6  and  C_7
REMARK    4  A    between atoms: C_7  and  O_9
REMARK    5  A    between atoms: O_9  and  C_10
REMARK    6  A    between atoms: N_12  and  C_13
REMARK    7  A    between atoms: C_13  and  C_14
REMARK    8  A    between atoms: C_14  and  C_15
REMARK    9  A    between atoms: C_15  and  C_16
REMARK                            x       y       z     vdW  Elec       q    Type
REMARK                         _______ _______ _______ _____ _____    ______ ____
ROOT
ATOM      1  C   UNL     1       1.301   4.553  -5.795  0.00  0.00    +0.424 C 
ATOM      2  N   UNL     1       1.154   5.619  -6.735  0.00  0.00    -0.169 NA
ATOM      3  O   UNL     1       2.352   3.854  -5.908  0.00  0.00    -0.224 OA
ENDROOT
BRANCH   1   4
ATOM      4  O   UNL     1       0.843   4.729  -4.525  0.00  0.00    -0.398 OA
BRANCH   4   5
ATOM      5  C   UNL     1       0.336   6.125  -4.101  0.00  0.00    +0.346 C 
ATOM      6  C   UNL     1       1.234   6.143  -2.709  0.00  0.00    +0.100 C 
BRANCH   5   7
ATOM      7  O   UNL     1      -0.893   5.537  -3.361  0.00  0.00    -0.414 OA
BRANCH   7   8
ATOM      8  C   UNL     1      -2.033   5.569  -4.170  0.00  0.00    +0.319 C 
ATOM      9  O   UNL     1      -3.155   5.144  -3.764  0.00  0.00    -0.250 OA
BRANCH   8  11
ATOM     10  C   UNL     1      -2.466   5.780  -6.274  0.00  0.00    +0.012 C 
ATOM     11  C   UNL     1      -2.078   6.349  -5.446  0.00  0.00    +0.099 C 
ATOM     12  C   UNL     1      -2.691   7.686  -5.138  0.00  0.00    +0.012 C 
ENDBRANCH   8  11
ENDBRANCH   7   8
ENDBRANCH   5   7
ENDBRANCH   4   5
ENDBRANCH   1   4
BRANCH   2  13
ATOM     13  C   UNL     1       2.286   6.244  -7.413  0.00  0.00    +0.119 C 
BRANCH  13  14
ATOM     14  C   UNL     1       2.114   5.896  -8.882  0.00  0.00    +0.031 C 
ATOM     15  C   UNL     1       2.479   4.474  -9.186  0.00  0.00    +0.002 C 
ATOM     16  C   UNL     1       3.956   4.205  -9.060  0.00  0.00    +0.000 C 
ATOM     17  C   UNL     1       4.759   5.435  -8.763  0.00  0.00    +0.000 C 
ATOM     18  C   UNL     1       4.398   6.527  -9.732  0.00  0.00    +0.000 C 
ATOM     19  C   UNL     1       2.939   6.875  -9.708  0.00  0.00    +0.002 C 
BRANCH  14  20
ATOM     20  C   UNL     1       0.674   6.147  -9.220  0.00  0.00    +0.116 C 
BRANCH  20  21
ATOM     21  C   UNL     1       0.453   6.406 -10.672  0.00  0.00    +0.365 C 
ATOM     22  O   UNL     1       0.220   5.373 -11.586  0.00  0.00    -0.246 OA
ATOM     23  O   UNL     1      -0.126   7.502 -10.937  0.00  0.00    -0.246 OA
ENDBRANCH  20  21
ENDBRANCH  14  20
ENDBRANCH  13  14
ENDBRANCH   2  13
TORSDOF 9
ENDMDL
MODEL 9
REMARK VINA RESULT:      -6.4      5.270      7.395
REMARK  Name = 
REMARK  9 active torsions:
REMARK  status: ('A' for Active; 'I' for Inactive)
REMARK    1  A    between atoms: C_2  and  C_4
REMARK    2  A    between atoms: C_4  and  O_6
REMARK    3  A    between atoms: O_6  and  C_7
REMARK    4  A    between atoms: C_7  and  O_9
REMARK    5  A    between atoms: O_9  and  C_10
REMARK    6  A    between atoms: N_12  and  C_13
REMARK    7  A    between atoms: C_13  and  C_14
REMARK    8  A    between atoms: C_14  and  C_15
REMARK    9  A    between atoms: C_15  and  C_16
REMARK                            x       y       z     vdW  Elec       q    Type
REMARK                         _______ _______ _______ _____ _____    ______ ____
ROOT
ATOM      1  C   UNL     1       4.057   4.867  -9.226  0.00  0.00    +0.424 C 
ATOM      2  N   UNL     1       3.968   5.946  -8.293  0.00  0.00    -0.169 NA
ATOM      3  O   UNL     1       3.172   3.967  -9.119  0.00  0.00    -0.224 OA
ENDROOT
BRANCH   1   4
ATOM      4  O   UNL     1       4.486   5.128 -10.492  0.00  0.00    -0.398 OA
BRANCH   4   5
ATOM      5  C   UNL     1       4.200   6.515 -11.107  0.00  0.00    +0.346 C 
ATOM      6  C   UNL     1       3.157   5.911 -12.244  0.00  0.00    +0.100 C 
BRANCH   5   7
ATOM      7  O   UNL     1       5.402   6.414 -12.081  0.00  0.00    -0.414 OA
BRANCH   7   8
ATOM      8  C   UNL     1       6.478   7.188 -11.638  0.00  0.00    +0.319 C 
ATOM      9  O   UNL     1       6.385   8.443 -11.488  0.00  0.00    -0.250 OA
BRANCH   8  11
ATOM     10  C   UNL     1       7.669   6.486  -9.980  0.00  0.00    +0.012 C 
ATOM     11  C   UNL     1       7.709   6.573 -11.053  0.00  0.00    +0.099 C 
ATOM     12  C   UNL     1       8.032   5.349 -11.863  0.00  0.00    +0.012 C 
ENDBRANCH   8  11
ENDBRANCH   7   8
ENDBRANCH   5   7
ENDBRANCH   4   5
ENDBRANCH   1   4
BRANCH   2  13
ATOM     13  C   UNL     1       2.723   6.328  -7.634  0.00  0.00    +0.119 C 
BRANCH  13  14
ATOM     14  C   UNL     1       2.934   6.010  -6.163  0.00  0.00    +0.031 C 
ATOM     15  C   UNL     1       2.657   4.573  -5.837  0.00  0.00    +0.002 C 
ATOM     16  C   UNL     1       1.197   4.216  -5.939  0.00  0.00    +0.000 C 
ATOM     17  C   UNL     1       0.320   5.393  -6.239  0.00  0.00    +0.000 C 
ATOM     18  C   UNL     1       0.628   6.517  -5.289  0.00  0.00    +0.000 C 
ATOM     19  C   UNL     1       2.064   6.949  -5.338  0.00  0.00    +0.002 C 
BRANCH  14  20
ATOM     20  C   UNL     1       4.361   6.349  -5.850  0.00  0.00    +0.116 C 
BRANCH  20  21
ATOM     21  C   UNL     1       4.546   6.865  -4.462  0.00  0.00    +0.365 C 
ATOM     22  O   UNL     1       4.751   6.014  -3.371  0.00  0.00    -0.246 OA
ATOM     23  O   UNL     1       5.121   7.992  -4.383  0.00  0.00    -0.246 OA
ENDBRANCH  20  21
ENDBRANCH  14  20
ENDBRANCH  13  14
ENDBRANCH   2  13
TORSDOF 9
ENDMDL
