MODEL 1
REMARK VINA RESULT:      -8.1      0.000      0.000
REMARK  Name = 
REMARK  4 active torsions:
REMARK  status: ('A' for Active; 'I' for Inactive)
REMARK    1  A    between atoms: C_2  and  C_3
REMARK    2  A    between atoms: C_2  and  C_6
REMARK    3  A    between atoms: C_10  and  C_11
REMARK    4  A    between atoms: C_11  and  C_13
REMARK                            x       y       z     vdW  Elec       q    Type
REMARK                         _______ _______ _______ _____ _____    ______ ____
ROOT
ATOM      1  C   UNL     1      -1.320   5.531  -4.638  0.00  0.00    -0.012 A 
ATOM      2  C   UNL     1       0.042   5.262  -4.747  0.00  0.00    -0.001 A 
ATOM      3  C   UNL     1       0.686   5.158  -5.970  0.00  0.00    +0.039 A 
ATOM      4  C   UNL     1      -0.045   5.301  -7.142  0.00  0.00    +0.003 A 
ATOM      5  C   UNL     1      -1.406   5.456  -7.071  0.00  0.00    -0.000 A 
ATOM      6  C   UNL     1      -1.934   5.817  -5.853  0.00  0.00    -0.004 A 
ENDROOT
BRANCH   1   8
ATOM      7  C   UNL     1      -2.429   7.648  -4.594  0.00  0.00    +0.017 C 
ATOM      8  C   UNL     1      -1.552   6.713  -3.525  0.00  0.00    +0.126 C 
BRANCH   8   9
ATOM      9  C   UNL     1      -2.898   5.999  -2.934  0.00  0.00    +0.368 C 
ATOM     10  O   UNL     1      -2.662   4.696  -2.551  0.00  0.00    -0.245 OA
ATOM     11  O   UNL     1      -3.771   6.752  -2.502  0.00  0.00    -0.245 OA
ENDBRANCH   8   9
ENDBRANCH   1   8
BRANCH   3  12
ATOM     12  C   UNL     1       2.024   4.608  -6.127  0.00  0.00    +0.196 C 
ATOM     13  O   UNL     1       2.237   3.557  -6.806  0.00  0.00    -0.287 OA
BRANCH  12  14
ATOM     14  C   UNL     1       3.210   5.237  -5.544  0.00  0.00    +0.039 A 
ATOM     15  C   UNL     1       3.514   6.571  -5.795  0.00  0.00    +0.003 A 
ATOM     16  C   UNL     1       4.303   7.317  -4.929  0.00  0.00    +0.000 A 
ATOM     17  C   UNL     1       4.671   6.734  -3.731  0.00  0.00    +0.000 A 
ATOM     18  C   UNL     1       4.856   5.356  -3.771  0.00  0.00    +0.000 A 
ATOM     19  C   UNL     1       3.918   4.656  -4.519  0.00  0.00    +0.003 A 
ENDBRANCH  12  14
ENDBRANCH   3  12
TORSDOF 4
ENDMDL
MODEL 2
REMARK VINA RESULT:      -8.0      5.141      8.959
REMARK  Name = 
REMARK  4 active torsions:
REMARK  status: ('A' for Active; 'I' for Inactive)
REMARK    1  A    between atoms: C_2  and  C_3
REMARK    2  A    between atoms: C_2  and  C_6
REMARK    3  A    between atoms: C_10  and  C_11
REMARK    4  A    between atoms: C_11  and  C_13
REMARK                            x       y       z     vdW  Elec       q    Type
REMARK                         _______ _______ _______ _____ _____    ______ ____
ROOT
ATOM      1  C   UNL     1       5.495   5.697 -10.612  0.00  0.00    -0.012 A 
ATOM      2  C   UNL     1       4.281   6.354 -10.432  0.00  0.00    -0.001 A 
ATOM      3  C   UNL     1       3.697   6.514  -9.185  0.00  0.00    +0.039 A 
ATOM      4  C   UNL     1       4.322   5.981  -8.064  0.00  0.00    +0.003 A 
ATOM      5  C   UNL     1       5.461   5.234  -8.221  0.00  0.00    -0.000 A 
ATOM      6  C   UNL     1       6.122   5.342  -9.423  0.00  0.00    -0.004 A 
ENDROOT
BRANCH   1   8
ATOM      7  C   UNL     1       7.833   6.178 -10.734  0.00  0.00    +0.017 C 
ATOM      8  C   UNL     1       6.459   6.598 -11.585  0.00  0.00    +0.126 C 
BRANCH   8   9
ATOM      9  C   UNL     1       6.659   5.374 -12.650  0.00  0.00    +0.368 C 
ATOM     10  O   UNL     1       7.814   4.663 -12.405  0.00  0.00    -0.245 OA
ATOM     11  O   UNL     1       5.641   4.964 -13.209  0.00  0.00    -0.245 OA
ENDBRANCH   8   9
ENDBRANCH   1   8
BRANCH   3  12
ATOM     12  C   UNL     1       2.318   6.938  -8.992  0.00  0.00    +0.196 C 
ATOM     13  O   UNL     1       2.021   7.913  -8.237  0.00  0.00    -0.287 OA
BRANCH  12  14
ATOM     14  C   UNL     1       1.193   6.296  -9.672  0.00  0.00    +0.039 A 
ATOM     15  C   UNL     1       0.443   6.977 -10.625  0.00  0.00    +0.003 A 
ATOM     16  C   UNL     1      -0.280   6.306 -11.603  0.00  0.00    +0.000 A 
ATOM     17  C   UNL     1      -0.127   4.935 -11.689  0.00  0.00    +0.000 A 
ATOM     18  C   UNL     1       0.111   4.286 -10.483  0.00  0.00    +0.000 A 
ATOM     19  C   UNL     1       0.988   4.937  -9.625  0.00  0.00    +0.003 A 
ENDBRANCH  12  14
ENDBRANCH   3  12
TORSDOF 4
ENDMDL
MODEL 3
REMARK VINA RESULT:      -7.7      4.050      5.819
REMARK  Name = 
REMARK  4 active torsions:
REMARK  status: ('A' for Active; 'I' for Inactive)
REMARK    1  A    between atoms: C_2  and  C_3
REMARK    2  A    between atoms: C_2  and  C_6
REMARK    3  A    between atoms: C_10  and  C_11
REMARK    4  A    between atoms: C_11  and  C_13
REMARK                            x       y       z     vdW  Elec       q    Type
REMARK                         _______ _______ _______ _____ _____    ______ ____
ROOT
ATOM      1  C   UNL     1       4.017   5.889  -5.112  0.00  0.00    -0.012 A 
ATOM      2  C   UNL     1       4.565   5.439  -6.311  0.00  0.00    -0.001 A 
ATOM      3  C   UNL     1       4.124   5.885  -7.547  0.00  0.00    +0.039 A 
ATOM      4  C   UNL     1       3.078   6.797  -7.611  0.00  0.00    +0.003 A 
ATOM      5  C   UNL     1       2.444   7.175  -6.455  0.00  0.00    -0.000 A 
ATOM      6  C   UNL     1       3.091   6.915  -5.269  0.00  0.00    -0.004 A 
ENDROOT
BRANCH   1   8
ATOM      7  C   UNL     1       4.861   7.915  -4.166  0.00  0.00    +0.017 C 
ATOM      8  C   UNL     1       5.226   6.288  -4.080  0.00  0.00    +0.126 C 
BRANCH   8   9
ATOM      9  C   UNL     1       4.278   6.072  -2.765  0.00  0.00    +0.368 C 
ATOM     10  O   UNL     1       3.894   4.757  -2.619  0.00  0.00    -0.245 OA
ATOM     11  O   UNL     1       4.376   6.919  -1.876  0.00  0.00    -0.245 OA
ENDBRANCH   8   9
ENDBRANCH   1   8
BRANCH   3  12
ATOM     12  C   UNL     1       4.472   5.240  -8.804  0.00  0.00    +0.196 C 
ATOM     13  O   UNL     1       3.937   4.147  -9.162  0.00  0.00    -0.287 OA
BRANCH  12  14
ATOM     14  C   UNL     1       5.432   5.815  -9.747  0.00  0.00    +0.039 A 
ATOM     15  C   UNL     1       5.025   6.700 -10.740  0.00  0.00    +0.003 A 
ATOM     16  C   UNL     1       5.905   7.607 -11.316  0.00  0.00    +0.000 A 
ATOM     17  C   UNL     1       7.174   7.703 -10.778  0.00  0.00    +0.000 A 
ATOM     18  C   UNL     1       7.692   6.521 -10.260  0.00  0.00    +0.000 A 
ATOM     19  C   UNL     1       6.790   5.746  -9.542  0.00  0.00    +0.003 A 
ENDBRANCH  12  14
ENDBRANCH   3  12
TORSDOF 4
ENDMDL
MODEL 4
REMARK VINA RESULT:      -7.7      4.015      7.941
REMARK  Name = 
REMARK  4 active torsions:
REMARK  status: ('A' for Active; 'I' for Inactive)
REMARK    1  A    between atoms: C_2  and  C_3
REMARK    2  A    between atoms: C_2  and  C_6
REMARK    3  A    between atoms: C_10  and  C_11
REMARK    4  A    between atoms: C_11  and  C_13
REMARK                            x       y       z     vdW  Elec       q    Type
REMARK                         _______ _______ _______ _____ _____    ______ ____
ROOT
ATOM      1  C   UNL     1       4.919   5.720  -9.778  0.00  0.00    -0.012 A 
ATOM      2  C   UNL     1       3.854   6.533  -9.396  0.00  0.00    -0.001 A 
ATOM      3  C   UNL     1       3.456   6.668  -8.075  0.00  0.00    +0.039 A 
ATOM      4  C   UNL     1       4.117   5.952  -7.085  0.00  0.00    +0.003 A 
ATOM      5  C   UNL     1       5.096   5.060  -7.440  0.00  0.00    -0.000 A 
ATOM      6  C   UNL     1       5.619   5.173  -8.708  0.00  0.00    -0.004 A 
ENDROOT
BRANCH   1   8
ATOM      7  C   UNL     1       7.277   6.006 -10.047  0.00  0.00    +0.017 C 
ATOM      8  C   UNL     1       5.892   6.549 -10.805  0.00  0.00    +0.126 C 
BRANCH   8   9
ATOM      9  C   UNL     1       5.919   5.326 -11.889  0.00  0.00    +0.368 C 
ATOM     10  O   UNL     1       4.707   5.179 -12.528  0.00  0.00    -0.245 OA
ATOM     11  O   UNL     1       7.027   4.999 -12.316  0.00  0.00    -0.245 OA
ENDBRANCH   8   9
ENDBRANCH   1   8
BRANCH   3  12
ATOM     12  C   UNL     1       2.194   7.274  -7.676  0.00  0.00    +0.196 C 
ATOM     13  O   UNL     1       1.954   8.504  -7.876  0.00  0.00    -0.287 OA
BRANCH  12  14
ATOM     14  C   UNL     1       1.115   6.510  -7.050  0.00  0.00    +0.039 A 
ATOM     15  C   UNL     1       0.669   6.812  -5.767  0.00  0.00    +0.003 A 
ATOM     16  C   UNL     1      -0.606   6.466  -5.336  0.00  0.00    +0.000 A 
ATOM     17  C   UNL     1      -1.476   5.929  -6.266  0.00  0.00    +0.000 A 
ATOM     18  C   UNL     1      -0.884   5.157  -7.259  0.00  0.00    +0.000 A 
ATOM     19  C   UNL     1       0.307   5.661  -7.769  0.00  0.00    +0.003 A 
ENDBRANCH  12  14
ENDBRANCH   3  12
TORSDOF 4
ENDMDL
MODEL 5
REMARK VINA RESULT:      -7.4      4.178      5.610
REMARK  Name = 
REMARK  4 active torsions:
REMARK  status: ('A' for Active; 'I' for Inactive)
REMARK    1  A    between atoms: C_2  and  C_3
REMARK    2  A    between atoms: C_2  and  C_6
REMARK    3  A    between atoms: C_10  and  C_11
REMARK    4  A    between atoms: C_11  and  C_13
REMARK                            x       y       z     vdW  Elec       q    Type
REMARK                         _______ _______ _______ _____ _____    ______ ____
ROOT
ATOM      1  C   UNL     1       1.122   5.327  -8.538  0.00  0.00    -0.012 A 
ATOM      2  C   UNL     1       2.356   5.544  -9.148  0.00  0.00    -0.001 A 
ATOM      3  C   UNL     1       2.474   5.968 -10.462  0.00  0.00    +0.039 A 
ATOM      4  C   UNL     1       1.329   6.165 -11.223  0.00  0.00    +0.003 A 
ATOM      5  C   UNL     1       0.105   5.854 -10.687  0.00  0.00    -0.000 A 
ATOM      6  C   UNL     1       0.037   5.702  -9.321  0.00  0.00    -0.004 A 
ENDROOT
BRANCH   1   8
ATOM      7  C   UNL     1      -0.437   5.517  -6.738  0.00  0.00    +0.017 C 
ATOM      8  C   UNL     1       1.112   6.046  -7.065  0.00  0.00    +0.126 C 
BRANCH   8   9
ATOM      9  C   UNL     1       1.786   4.745  -6.340  0.00  0.00    +0.368 C 
ATOM     10  O   UNL     1       2.993   5.053  -5.751  0.00  0.00    -0.245 OA
ATOM     11  O   UNL     1       1.017   3.837  -6.024  0.00  0.00    -0.245 OA
ENDBRANCH   8   9
ENDBRANCH   1   8
BRANCH   3  12
ATOM     12  C   UNL     1       3.724   5.934 -11.207  0.00  0.00    +0.196 C 
ATOM     13  O   UNL     1       3.782   5.480 -12.390  0.00  0.00    -0.287 OA
BRANCH  12  14
ATOM     14  C   UNL     1       4.982   6.443 -10.660  0.00  0.00    +0.039 A 
ATOM     15  C   UNL     1       5.723   5.700  -9.746  0.00  0.00    +0.003 A 
ATOM     16  C   UNL     1       7.087   5.898  -9.578  0.00  0.00    +0.000 A 
ATOM     17  C   UNL     1       7.723   6.766 -10.446  0.00  0.00    +0.000 A 
ATOM     18  C   UNL     1       6.952   7.834 -10.891  0.00  0.00    +0.000 A 
ATOM     19  C   UNL     1       5.636   7.520 -11.209  0.00  0.00    +0.003 A 
ENDBRANCH  12  14
ENDBRANCH   3  12
TORSDOF 4
ENDMDL
MODEL 6
REMARK VINA RESULT:      -7.3      2.290      2.701
REMARK  Name = 
REMARK  4 active torsions:
REMARK  status: ('A' for Active; 'I' for Inactive)
REMARK    1  A    between atoms: C_2  and  C_3
REMARK    2  A    between atoms: C_2  and  C_6
REMARK    3  A    between atoms: C_10  and  C_11
REMARK    4  A    between atoms: C_11  and  C_13
REMARK                            x       y       z     vdW  Elec       q    Type
REMARK                         _______ _______ _______ _____ _____    ______ ____
ROOT
ATOM      1  C   UNL     1      -1.621   5.617  -4.304  0.00  0.00    -0.012 A 
ATOM      2  C   UNL     1      -0.345   5.289  -4.756  0.00  0.00    -0.001 A 
ATOM      3  C   UNL     1      -0.036   5.180  -6.103  0.00  0.00    +0.039 A 
ATOM      4  C   UNL     1      -1.032   5.377  -7.051  0.00  0.00    +0.003 A 
ATOM      5  C   UNL     1      -2.321   5.592  -6.637  0.00  0.00    -0.000 A 
ATOM      6  C   UNL     1      -2.507   5.953  -5.322  0.00  0.00    -0.004 A 
ENDROOT
BRANCH   1   8
ATOM      7  C   UNL     1      -3.159   6.816  -2.923  0.00  0.00    +0.017 C 
ATOM      8  C   UNL     1      -1.507   6.787  -3.161  0.00  0.00    +0.126 C 
BRANCH   8   9
ATOM      9  C   UNL     1      -1.281   5.700  -1.961  0.00  0.00    +0.368 C 
ATOM     10  O   UNL     1      -0.230   6.050  -1.142  0.00  0.00    -0.245 OA
ATOM     11  O   UNL     1      -2.253   5.005  -1.664  0.00  0.00    -0.245 OA
ENDBRANCH   8   9
ENDBRANCH   1   8
BRANCH   3  12
ATOM     12  C   UNL     1       1.191   4.574  -6.598  0.00  0.00    +0.196 C 
ATOM     13  O   UNL     1       1.673   3.523  -6.075  0.00  0.00    -0.287 OA
BRANCH  12  14
ATOM     14  C   UNL     1       1.932   5.112  -7.739  0.00  0.00    +0.039 A 
ATOM     15  C   UNL     1       2.126   6.480  -7.892  0.00  0.00    +0.003 A 
ATOM     16  C   UNL     1       3.179   6.990  -8.642  0.00  0.00    +0.000 A 
ATOM     17  C   UNL     1       4.116   6.098  -9.125  0.00  0.00    +0.000 A 
ATOM     18  C   UNL     1       3.626   4.838  -9.449  0.00  0.00    +0.000 A 
ATOM     19  C   UNL     1       2.702   4.314  -8.553  0.00  0.00    +0.003 A 
ENDBRANCH  12  14
ENDBRANCH   3  12
TORSDOF 4
ENDMDL
MODEL 7
REMARK VINA RESULT:      -7.3      5.991      8.062
REMARK  Name = 
REMARK  4 active torsions:
REMARK  status: ('A' for Active; 'I' for Inactive)
REMARK    1  A    between atoms: C_2  and  C_3
REMARK    2  A    between atoms: C_2  and  C_6
REMARK    3  A    between atoms: C_10  and  C_11
REMARK    4  A    between atoms: C_11  and  C_13
REMARK                            x       y       z     vdW  Elec       q    Type
REMARK                         _______ _______ _______ _____ _____    ______ ____
ROOT
ATOM      1  C   UNL     1       1.240   5.957 -12.650  0.00  0.00    -0.012 A 
ATOM      2  C   UNL     1       2.393   6.279 -11.939  0.00  0.00    -0.001 A 
ATOM      3  C   UNL     1       2.620   5.834 -10.646  0.00  0.00    +0.039 A 
ATOM      4  C   UNL     1       1.660   5.057 -10.012  0.00  0.00    +0.003 A 
ATOM      5  C   UNL     1       0.467   4.814 -10.643  0.00  0.00    -0.000 A 
ATOM      6  C   UNL     1       0.414   5.047 -11.998  0.00  0.00    -0.004 A 
ENDROOT
BRANCH   1   8
ATOM      7  C   UNL     1       0.563   4.196 -14.118  0.00  0.00    +0.017 C 
ATOM      8  C   UNL     1       1.653   5.460 -14.157  0.00  0.00    +0.126 C 
BRANCH   8   9
ATOM      9  C   UNL     1       0.575   6.462 -14.867  0.00  0.00    +0.368 C 
ATOM     10  O   UNL     1       0.719   7.762 -14.432  0.00  0.00    -0.245 OA
ATOM     11  O   UNL     1       0.108   6.088 -15.943  0.00  0.00    -0.245 OA
ENDBRANCH   8   9
ENDBRANCH   1   8
BRANCH   3  12
ATOM     12  C   UNL     1       3.662   6.372  -9.784  0.00  0.00    +0.196 C 
ATOM     13  O   UNL     1       3.399   6.844  -8.636  0.00  0.00    -0.287 OA
BRANCH  12  14
ATOM     14  C   UNL     1       5.075   6.380 -10.165  0.00  0.00    +0.039 A 
ATOM     15  C   UNL     1       5.582   7.342 -11.032  0.00  0.00    +0.003 A 
ATOM     16  C   UNL     1       6.929   7.680 -11.041  0.00  0.00    +0.000 A 
ATOM     17  C   UNL     1       7.738   7.129 -10.066  0.00  0.00    +0.000 A 
ATOM     18  C   UNL     1       7.382   5.851  -9.650  0.00  0.00    +0.000 A 
ATOM     19  C   UNL     1       6.018   5.639  -9.492  0.00  0.00    +0.003 A 
ENDBRANCH  12  14
ENDBRANCH   3  12
TORSDOF 4
ENDMDL
MODEL 8
REMARK VINA RESULT:      -7.3      2.499      3.995
REMARK  Name = 
REMARK  4 active torsions:
REMARK  status: ('A' for Active; 'I' for Inactive)
REMARK    1  A    between atoms: C_2  and  C_3
REMARK    2  A    between atoms: C_2  and  C_6
REMARK    3  A    between atoms: C_10  and  C_11
REMARK    4  A    between atoms: C_11  and  C_13
REMARK                            x       y       z     vdW  Elec       q    Type
REMARK                         _______ _______ _______ _____ _____    ______ ____
ROOT
ATOM      1  C   UNL     1      -1.217   5.560  -4.396  0.00  0.00    -0.012 A 
ATOM      2  C   UNL     1      -0.066   5.542  -5.181  0.00  0.00    -0.001 A 
ATOM      3  C   UNL     1      -0.109   5.522  -6.566  0.00  0.00    +0.039 A 
ATOM      4  C   UNL     1      -1.339   5.493  -7.212  0.00  0.00    +0.003 A 
ATOM      5  C   UNL     1      -2.487   5.398  -6.468  0.00  0.00    -0.000 A 
ATOM      6  C   UNL     1      -2.392   5.691  -5.127  0.00  0.00    -0.004 A 
ENDROOT
BRANCH   1   8
ATOM      7  C   UNL     1      -1.951   7.817  -4.121  0.00  0.00    +0.017 C 
ATOM      8  C   UNL     1      -1.065   6.711  -3.239  0.00  0.00    +0.126 C 
BRANCH   8   9
ATOM      9  C   UNL     1      -2.388   6.186  -2.435  0.00  0.00    +0.368 C 
ATOM     10  O   UNL     1      -2.172   4.965  -1.833  0.00  0.00    -0.245 OA
ATOM     11  O   UNL     1      -3.197   7.049  -2.092  0.00  0.00    -0.245 OA
ENDBRANCH   8   9
ENDBRANCH   1   8
BRANCH   3  12
ATOM     12  C   UNL     1       1.046   5.223  -7.400  0.00  0.00    +0.196 C 
ATOM     13  O   UNL     1       2.121   4.764  -6.908  0.00  0.00    -0.287 OA
BRANCH  12  14
ATOM     14  C   UNL     1       1.037   5.401  -8.853  0.00  0.00    +0.039 A 
ATOM     15  C   UNL     1       0.770   4.337  -9.707  0.00  0.00    +0.003 A 
ATOM     16  C   UNL     1       0.289   4.537 -10.995  0.00  0.00    +0.000 A 
ATOM     17  C   UNL     1      -0.049   5.825 -11.363  0.00  0.00    +0.000 A 
ATOM     18  C   UNL     1       0.716   6.830 -10.782  0.00  0.00    +0.000 A 
ATOM     19  C   UNL     1       1.011   6.645  -9.437  0.00  0.00    +0.003 A 
ENDBRANCH  12  14
ENDBRANCH   3  12
TORSDOF 4
ENDMDL
MODEL 9
REMARK VINA RESULT:      -7.2      2.347      3.219
REMARK  Name = 
REMARK  4 active torsions:
REMARK  status: ('A' for Active; 'I' for Inactive)
REMARK    1  A    between atoms: C_2  and  C_3
REMARK    2  A    between atoms: C_2  and  C_6
REMARK    3  A    between atoms: C_10  and  C_11
REMARK    4  A    between atoms: C_11  and  C_13
REMARK                            x       y       z     vdW  Elec       q    Type
REMARK                         _______ _______ _______ _____ _____    ______ ____
ROOT
ATOM      1  C   UNL     1      -0.423   5.775  -4.615  0.00  0.00    -0.012 A 
ATOM      2  C   UNL     1       0.830   6.335  -4.851  0.00  0.00    -0.001 A 
ATOM      3  C   UNL     1       1.331   6.530  -6.129  0.00  0.00    +0.039 A 
ATOM      4  C   UNL     1       0.578   6.133  -7.226  0.00  0.00    +0.003 A 
ATOM      5  C   UNL     1      -0.610   5.478  -7.025  0.00  0.00    -0.000 A 
ATOM      6  C   UNL     1      -1.167   5.558  -5.769  0.00  0.00    -0.004 A 
ENDROOT
BRANCH   1   8
ATOM      7  C   UNL     1      -2.700   6.396  -4.240  0.00  0.00    +0.017 C 
ATOM      8  C   UNL     1      -1.226   6.686  -3.513  0.00  0.00    +0.126 C 
BRANCH   8   9
ATOM      9  C   UNL     1      -1.403   5.427  -2.486  0.00  0.00    +0.368 C 
ATOM     10  O   UNL     1      -2.607   4.781  -2.668  0.00  0.00    -0.245 OA
ATOM     11  O   UNL     1      -0.367   4.946  -2.027  0.00  0.00    -0.245 OA
ENDBRANCH   8   9
ENDBRANCH   1   8
BRANCH   3  12
ATOM     12  C   UNL     1       2.725   6.845  -6.404  0.00  0.00    +0.196 C 
ATOM     13  O   UNL     1       3.442   7.477  -5.570  0.00  0.00    -0.287 OA
BRANCH  12  14
ATOM     14  C   UNL     1       3.398   6.434  -7.637  0.00  0.00    +0.039 A 
ATOM     15  C   UNL     1       4.094   5.232  -7.710  0.00  0.00    +0.003 A 
ATOM     16  C   UNL     1       4.322   4.593  -8.922  0.00  0.00    +0.000 A 
ATOM     17  C   UNL     1       3.717   5.115 -10.050  0.00  0.00    +0.000 A 
ATOM     18  C   UNL     1       3.558   6.497 -10.053  0.00  0.00    +0.000 A 
ATOM     19  C   UNL     1       3.156   7.048  -8.842  0.00  0.00    +0.003 A 
ENDBRANCH  12  14
ENDBRANCH   3  12
TORSDOF 4
ENDMDL
