MODEL 1
REMARK VINA RESULT:      -7.2      0.000      0.000
REMARK  Name = 
REMARK  4 active torsions:
REMARK  status: ('A' for Active; 'I' for Inactive)
REMARK    1  A    between atoms: C_2  and  O_4
REMARK    2  A    between atoms: O_4  and  C_5
REMARK    3  A    between atoms: C_10  and  C_11
REMARK    4  A    between atoms: C_17  and  N_18
REMARK                            x       y       z     vdW  Elec       q    Type
REMARK                         _______ _______ _______ _____ _____    ______ ____
ROOT
ATOM      1  C   UNL     1       3.040   4.853  -8.095  0.00  0.00    +0.274 C 
ATOM      2  N   UNL     1       4.305   5.489  -8.099  0.00  0.00    -0.150 NA
ATOM      3  C   UNL     1       5.130   5.475  -9.267  0.00  0.00    +0.192 A 
ATOM      4  S   UNL     1       4.741   5.261 -10.926  0.00  0.00    +0.024 S 
ATOM      5  C   UNL     1       6.273   5.663 -11.596  0.00  0.00    +0.342 A 
ATOM      6  C   UNL     1       7.016   5.739 -10.424  0.00  0.00    +0.183 A 
ATOM      7  N   UNL     1       6.291   6.163  -9.397  0.00  0.00    -0.214 NA
ATOM      8  O   UNL     1       2.906   3.822  -8.818  0.00  0.00    -0.268 OA
ENDROOT
BRANCH   1  10
ATOM      9  C   UNL     1       1.582   5.369  -6.142  0.00  0.00    +0.153 A 
ATOM     10  C   UNL     1       1.843   5.466  -7.504  0.00  0.00    +0.090 A 
ATOM     11  C   UNL     1       0.726   5.659  -8.308  0.00  0.00    +0.008 A 
ATOM     12  C   UNL     1      -0.554   5.572  -7.771  0.00  0.00    +0.000 A 
ATOM     13  C   UNL     1      -0.761   5.028  -6.515  0.00  0.00    +0.003 A 
ATOM     14  C   UNL     1       0.334   4.995  -5.659  0.00  0.00    +0.038 A 
BRANCH   9  15
ATOM     15  O   UNL     1       2.703   5.430  -5.309  0.00  0.00    -0.424 OA
BRANCH  15  17
ATOM     16  C   UNL     1       4.330   7.222  -4.893  0.00  0.00    +0.122 C 
ATOM     17  C   UNL     1       2.975   6.635  -4.670  0.00  0.00    +0.322 C 
ATOM     18  O   UNL     1       2.370   6.898  -3.598  0.00  0.00    -0.250 OA
ENDBRANCH  15  17
ENDBRANCH   9  15
ENDBRANCH   1  10
BRANCH   5  19
ATOM     19  N   UNL     1       6.741   5.359 -12.917  0.00  0.00    +0.089 N 
ATOM     20  O   UNL     1       5.945   5.699 -13.970  0.00  0.00    -0.576 OA
ATOM     21  O   UNL     1       7.748   4.670 -13.135  0.00  0.00    +0.042 OA
ENDBRANCH   5  19
TORSDOF 4
ENDMDL
MODEL 2
REMARK VINA RESULT:      -7.2      4.016      8.291
REMARK  Name = 
REMARK  4 active torsions:
REMARK  status: ('A' for Active; 'I' for Inactive)
REMARK    1  A    between atoms: C_2  and  O_4
REMARK    2  A    between atoms: O_4  and  C_5
REMARK    3  A    between atoms: C_10  and  C_11
REMARK    4  A    between atoms: C_17  and  N_18
REMARK                            x       y       z     vdW  Elec       q    Type
REMARK                         _______ _______ _______ _____ _____    ______ ____
ROOT
ATOM      1  C   UNL     1       1.337   4.817  -7.038  0.00  0.00    +0.274 C 
ATOM      2  N   UNL     1       0.040   5.374  -7.136  0.00  0.00    -0.150 NA
ATOM      3  C   UNL     1      -0.782   5.530  -5.976  0.00  0.00    +0.192 A 
ATOM      4  S   UNL     1      -0.380   5.642  -4.309  0.00  0.00    +0.024 S 
ATOM      5  C   UNL     1      -1.930   6.078  -3.707  0.00  0.00    +0.342 A 
ATOM      6  C   UNL     1      -2.678   5.899  -4.865  0.00  0.00    +0.183 A 
ATOM      7  N   UNL     1      -1.979   6.167  -5.960  0.00  0.00    -0.214 NA
ATOM      8  O   UNL     1       1.528   3.943  -6.141  0.00  0.00    -0.268 OA
ENDROOT
BRANCH   1  10
ATOM      9  C   UNL     1       2.811   4.981  -9.040  0.00  0.00    +0.153 A 
ATOM     10  C   UNL     1       2.499   5.375  -7.744  0.00  0.00    +0.090 A 
ATOM     11  C   UNL     1       3.569   5.850  -6.996  0.00  0.00    +0.008 A 
ATOM     12  C   UNL     1       4.868   5.752  -7.481  0.00  0.00    +0.000 A 
ATOM     13  C   UNL     1       5.161   4.945  -8.567  0.00  0.00    +0.003 A 
ATOM     14  C   UNL     1       4.101   4.614  -9.404  0.00  0.00    +0.038 A 
BRANCH   9  15
ATOM     15  O   UNL     1       1.717   4.743  -9.877  0.00  0.00    -0.424 OA
BRANCH  15  17
ATOM     16  C   UNL     1       0.289   6.618 -10.569  0.00  0.00    +0.122 C 
ATOM     17  C   UNL     1       1.426   5.691 -10.852  0.00  0.00    +0.322 C 
ATOM     18  O   UNL     1       1.709   5.428 -12.051  0.00  0.00    -0.250 OA
ENDBRANCH  15  17
ENDBRANCH   9  15
ENDBRANCH   1  10
BRANCH   5  19
ATOM     19  N   UNL     1      -2.380   5.994  -2.347  0.00  0.00    +0.089 N 
ATOM     20  O   UNL     1      -2.330   7.125  -1.589  0.00  0.00    -0.576 OA
ATOM     21  O   UNL     1      -2.660   4.922  -1.793  0.00  0.00    +0.042 OA
ENDBRANCH   5  19
TORSDOF 4
ENDMDL
MODEL 3
REMARK VINA RESULT:      -7.2      4.342      7.578
REMARK  Name = 
REMARK  4 active torsions:
REMARK  status: ('A' for Active; 'I' for Inactive)
REMARK    1  A    between atoms: C_2  and  O_4
REMARK    2  A    between atoms: O_4  and  C_5
REMARK    3  A    between atoms: C_10  and  C_11
REMARK    4  A    between atoms: C_17  and  N_18
REMARK                            x       y       z     vdW  Elec       q    Type
REMARK                         _______ _______ _______ _____ _____    ______ ____
ROOT
ATOM      1  C   UNL     1       1.606   4.400  -6.972  0.00  0.00    +0.274 C 
ATOM      2  N   UNL     1       0.360   5.052  -7.138  0.00  0.00    -0.150 NA
ATOM      3  C   UNL     1      -0.492   5.303  -6.017  0.00  0.00    +0.192 A 
ATOM      4  S   UNL     1      -0.148   5.434  -4.339  0.00  0.00    +0.024 S 
ATOM      5  C   UNL     1      -1.682   6.004  -3.813  0.00  0.00    +0.342 A 
ATOM      6  C   UNL     1      -2.396   5.849  -4.996  0.00  0.00    +0.183 A 
ATOM      7  N   UNL     1      -1.635   6.030  -6.068  0.00  0.00    -0.214 NA
ATOM      8  O   UNL     1       1.694   3.541  -6.045  0.00  0.00    -0.268 OA
ENDROOT
BRANCH   1  10
ATOM      9  C   UNL     1       3.283   6.157  -7.525  0.00  0.00    +0.153 A 
ATOM     10  C   UNL     1       2.834   4.847  -7.644  0.00  0.00    +0.090 A 
ATOM     11  C   UNL     1       3.244   4.183  -8.794  0.00  0.00    +0.008 A 
ATOM     12  C   UNL     1       3.901   4.870  -9.809  0.00  0.00    +0.000 A 
ATOM     13  C   UNL     1       3.917   6.254  -9.834  0.00  0.00    +0.003 A 
ATOM     14  C   UNL     1       3.668   6.904  -8.631  0.00  0.00    +0.038 A 
BRANCH   9  15
ATOM     15  O   UNL     1       3.094   6.746  -6.272  0.00  0.00    -0.424 OA
BRANCH  15  17
ATOM     16  C   UNL     1       4.458   5.484  -4.665  0.00  0.00    +0.122 C 
ATOM     17  C   UNL     1       4.169   6.759  -5.388  0.00  0.00    +0.322 C 
ATOM     18  O   UNL     1       4.489   7.849  -4.846  0.00  0.00    -0.250 OA
ENDBRANCH  15  17
ENDBRANCH   9  15
ENDBRANCH   1  10
BRANCH   5  19
ATOM     19  N   UNL     1      -2.189   5.995  -2.471  0.00  0.00    +0.089 N 
ATOM     20  O   UNL     1      -2.087   7.142  -1.744  0.00  0.00    -0.576 OA
ATOM     21  O   UNL     1      -2.568   4.963  -1.899  0.00  0.00    +0.042 OA
ENDBRANCH   5  19
TORSDOF 4
ENDMDL
MODEL 4
REMARK VINA RESULT:      -7.2      2.443      7.751
REMARK  Name = 
REMARK  4 active torsions:
REMARK  status: ('A' for Active; 'I' for Inactive)
REMARK    1  A    between atoms: C_2  and  O_4
REMARK    2  A    between atoms: O_4  and  C_5
REMARK    3  A    between atoms: C_10  and  C_11
REMARK    4  A    between atoms: C_17  and  N_18
REMARK                            x       y       z     vdW  Elec       q    Type
REMARK                         _______ _______ _______ _____ _____    ______ ____
ROOT
ATOM      1  C   UNL     1       4.554   5.900 -10.319  0.00  0.00    +0.274 C 
ATOM      2  N   UNL     1       3.595   6.857  -9.909  0.00  0.00    -0.150 NA
ATOM      3  C   UNL     1       3.088   6.862  -8.572  0.00  0.00    +0.192 A 
ATOM      4  S   UNL     1       3.742   6.242  -7.110  0.00  0.00    +0.024 S 
ATOM      5  C   UNL     1       2.609   6.932  -6.016  0.00  0.00    +0.342 A 
ATOM      6  C   UNL     1       1.691   7.433  -6.933  0.00  0.00    +0.183 A 
ATOM      7  N   UNL     1       2.269   7.816  -8.063  0.00  0.00    -0.214 NA
ATOM      8  O   UNL     1       4.504   4.757  -9.774  0.00  0.00    -0.268 OA
ENDROOT
BRANCH   1  10
ATOM      9  C   UNL     1       6.111   5.452 -12.211  0.00  0.00    +0.153 A 
ATOM     10  C   UNL     1       5.724   6.245 -11.138  0.00  0.00    +0.090 A 
ATOM     11  C   UNL     1       6.739   7.001 -10.565  0.00  0.00    +0.008 A 
ATOM     12  C   UNL     1       8.062   6.812 -10.947  0.00  0.00    +0.000 A 
ATOM     13  C   UNL     1       8.436   5.701 -11.684  0.00  0.00    +0.003 A 
ATOM     14  C   UNL     1       7.430   5.051 -12.390  0.00  0.00    +0.038 A 
BRANCH   9  15
ATOM     15  O   UNL     1       5.067   4.887 -12.950  0.00  0.00    -0.424 OA
BRANCH  15  17
ATOM     16  C   UNL     1       2.880   5.423 -13.932  0.00  0.00    +0.122 C 
ATOM     17  C   UNL     1       4.336   5.723 -13.788  0.00  0.00    +0.322 C 
ATOM     18  O   UNL     1       4.934   6.295 -14.738  0.00  0.00    -0.250 OA
ENDBRANCH  15  17
ENDBRANCH   9  15
ENDBRANCH   1  10
BRANCH   5  19
ATOM     19  N   UNL     1       2.370   6.533  -4.659  0.00  0.00    +0.089 N 
ATOM     20  O   UNL     1       2.879   7.315  -3.666  0.00  0.00    -0.576 OA
ATOM     21  O   UNL     1       1.865   5.444  -4.354  0.00  0.00    +0.042 OA
ENDBRANCH   5  19
TORSDOF 4
ENDMDL
MODEL 5
REMARK VINA RESULT:      -7.1      4.182      8.133
REMARK  Name = 
REMARK  4 active torsions:
REMARK  status: ('A' for Active; 'I' for Inactive)
REMARK    1  A    between atoms: C_2  and  O_4
REMARK    2  A    between atoms: O_4  and  C_5
REMARK    3  A    between atoms: C_10  and  C_11
REMARK    4  A    between atoms: C_17  and  N_18
REMARK                            x       y       z     vdW  Elec       q    Type
REMARK                         _______ _______ _______ _____ _____    ______ ____
ROOT
ATOM      1  C   UNL     1       1.126   5.333  -8.588  0.00  0.00    +0.274 C 
ATOM      2  N   UNL     1      -0.237   5.624  -8.338  0.00  0.00    -0.150 NA
ATOM      3  C   UNL     1      -0.789   5.480  -7.026  0.00  0.00    +0.192 A 
ATOM      4  S   UNL     1      -0.047   5.486  -5.477  0.00  0.00    +0.024 S 
ATOM      5  C   UNL     1      -1.473   5.528  -4.517  0.00  0.00    +0.342 A 
ATOM      6  C   UNL     1      -2.420   5.332  -5.515  0.00  0.00    +0.183 A 
ATOM      7  N   UNL     1      -2.044   5.856  -6.674  0.00  0.00    -0.214 NA
ATOM      8  O   UNL     1       1.663   4.422  -7.891  0.00  0.00    -0.268 OA
ENDROOT
BRANCH   1  10
ATOM      9  C   UNL     1       1.950   6.111 -10.807  0.00  0.00    +0.153 A 
ATOM     10  C   UNL     1       1.983   6.190  -9.419  0.00  0.00    +0.090 A 
ATOM     11  C   UNL     1       3.172   6.666  -8.881  0.00  0.00    +0.008 A 
ATOM     12  C   UNL     1       4.284   6.864  -9.692  0.00  0.00    +0.000 A 
ATOM     13  C   UNL     1       4.330   6.341 -10.973  0.00  0.00    +0.003 A 
ATOM     14  C   UNL     1       3.112   6.024 -11.564  0.00  0.00    +0.038 A 
BRANCH   9  15
ATOM     15  O   UNL     1       0.691   5.879 -11.367  0.00  0.00    -0.424 OA
BRANCH  15  17
ATOM     16  C   UNL     1       0.473   7.369 -13.308  0.00  0.00    +0.122 C 
ATOM     17  C   UNL     1       0.026   6.957 -11.944  0.00  0.00    +0.322 C 
ATOM     18  O   UNL     1      -0.486   7.823 -11.187  0.00  0.00    -0.250 OA
ENDBRANCH  15  17
ENDBRANCH   9  15
ENDBRANCH   1  10
BRANCH   5  19
ATOM     19  N   UNL     1      -1.582   5.205  -3.124  0.00  0.00    +0.089 N 
ATOM     20  O   UNL     1      -0.430   5.081  -2.406  0.00  0.00    -0.576 OA
ATOM     21  O   UNL     1      -2.651   4.883  -2.586  0.00  0.00    +0.042 OA
ENDBRANCH   5  19
TORSDOF 4
ENDMDL
MODEL 6
REMARK VINA RESULT:      -6.9      3.116      4.358
REMARK  Name = 
REMARK  4 active torsions:
REMARK  status: ('A' for Active; 'I' for Inactive)
REMARK    1  A    between atoms: C_2  and  O_4
REMARK    2  A    between atoms: O_4  and  C_5
REMARK    3  A    between atoms: C_10  and  C_11
REMARK    4  A    between atoms: C_17  and  N_18
REMARK                            x       y       z     vdW  Elec       q    Type
REMARK                         _______ _______ _______ _____ _____    ______ ____
ROOT
ATOM      1  C   UNL     1       1.587   6.364  -8.250  0.00  0.00    +0.274 C 
ATOM      2  N   UNL     1       0.846   5.438  -9.023  0.00  0.00    -0.150 NA
ATOM      3  C   UNL     1       0.936   5.436 -10.450  0.00  0.00    +0.192 A 
ATOM      4  S   UNL     1       2.158   6.014 -11.510  0.00  0.00    +0.024 S 
ATOM      5  C   UNL     1       1.551   5.353 -12.976  0.00  0.00    +0.342 A 
ATOM      6  C   UNL     1       0.318   4.897 -12.522  0.00  0.00    +0.183 A 
ATOM      7  N   UNL     1       0.364   4.506 -11.256  0.00  0.00    -0.214 NA
ATOM      8  O   UNL     1       1.810   7.501  -8.762  0.00  0.00    -0.268 OA
ENDROOT
BRANCH   1  10
ATOM      9  C   UNL     1       1.984   6.563  -5.798  0.00  0.00    +0.153 A 
ATOM     10  C   UNL     1       2.301   5.985  -7.022  0.00  0.00    +0.090 A 
ATOM     11  C   UNL     1       3.598   5.498  -7.129  0.00  0.00    +0.008 A 
ATOM     12  C   UNL     1       4.531   5.751  -6.131  0.00  0.00    +0.000 A 
ATOM     13  C   UNL     1       4.290   6.709  -5.160  0.00  0.00    +0.003 A 
ATOM     14  C   UNL     1       2.962   7.065  -4.950  0.00  0.00    +0.038 A 
BRANCH   9  15
ATOM     15  O   UNL     1       0.627   6.824  -5.589  0.00  0.00    -0.424 OA
BRANCH  15  17
ATOM     16  C   UNL     1      -1.441   5.590  -6.073  0.00  0.00    +0.122 C 
ATOM     17  C   UNL     1      -0.199   5.755  -5.260  0.00  0.00    +0.322 C 
ATOM     18  O   UNL     1      -0.191   5.332  -4.074  0.00  0.00    -0.250 OA
ENDBRANCH  15  17
ENDBRANCH   9  15
ENDBRANCH   1  10
BRANCH   5  19
ATOM     19  N   UNL     1       1.908   5.744 -14.309  0.00  0.00    +0.089 N 
ATOM     20  O   UNL     1       0.906   5.889 -15.221  0.00  0.00    -0.576 OA
ATOM     21  O   UNL     1       3.081   5.804 -14.705  0.00  0.00    +0.042 OA
ENDBRANCH   5  19
TORSDOF 4
ENDMDL
MODEL 7
REMARK VINA RESULT:      -6.9      4.397      7.659
REMARK  Name = 
REMARK  4 active torsions:
REMARK  status: ('A' for Active; 'I' for Inactive)
REMARK    1  A    between atoms: C_2  and  O_4
REMARK    2  A    between atoms: O_4  and  C_5
REMARK    3  A    between atoms: C_10  and  C_11
REMARK    4  A    between atoms: C_17  and  N_18
REMARK                            x       y       z     vdW  Elec       q    Type
REMARK                         _______ _______ _______ _____ _____    ______ ____
ROOT
ATOM      1  C   UNL     1       4.134   6.376  -5.672  0.00  0.00    +0.274 C 
ATOM      2  N   UNL     1       4.379   5.418  -4.659  0.00  0.00    -0.150 NA
ATOM      3  C   UNL     1       3.925   5.634  -3.320  0.00  0.00    +0.192 A 
ATOM      4  S   UNL     1       2.666   6.622  -2.695  0.00  0.00    +0.024 S 
ATOM      5  C   UNL     1       2.676   6.046  -1.075  0.00  0.00    +0.342 A 
ATOM      6  C   UNL     1       3.820   5.258  -1.126  0.00  0.00    +0.183 A 
ATOM      7  N   UNL     1       4.004   4.718  -2.323  0.00  0.00    -0.214 NA
ATOM      8  O   UNL     1       4.092   7.593  -5.324  0.00  0.00    -0.268 OA
ENDROOT
BRANCH   1  10
ATOM      9  C   UNL     1       2.401   5.540  -7.255  0.00  0.00    +0.153 A 
ATOM     10  C   UNL     1       3.690   6.008  -7.024  0.00  0.00    +0.090 A 
ATOM     11  C   UNL     1       4.642   5.604  -7.951  0.00  0.00    +0.008 A 
ATOM     12  C   UNL     1       4.327   4.657  -8.919  0.00  0.00    +0.000 A 
ATOM     13  C   UNL     1       3.174   3.896  -8.818  0.00  0.00    +0.003 A 
ATOM     14  C   UNL     1       2.160   4.401  -8.012  0.00  0.00    +0.038 A 
BRANCH   9  15
ATOM     15  O   UNL     1       1.397   6.136  -6.486  0.00  0.00    -0.424 OA
BRANCH  15  17
ATOM     16  C   UNL     1      -0.996   5.587  -6.434  0.00  0.00    +0.122 C 
ATOM     17  C   UNL     1       0.398   5.317  -5.972  0.00  0.00    +0.322 C 
ATOM     18  O   UNL     1       0.570   4.798  -4.837  0.00  0.00    -0.250 OA
ENDBRANCH  15  17
ENDBRANCH   9  15
ENDBRANCH   1  10
BRANCH   5  19
ATOM     19  N   UNL     1       2.101   6.690   0.070  0.00  0.00    +0.089 N 
ATOM     20  O   UNL     1       2.943   7.315   0.940  0.00  0.00    -0.576 OA
ATOM     21  O   UNL     1       0.908   6.572   0.383  0.00  0.00    +0.042 OA
ENDBRANCH   5  19
TORSDOF 4
ENDMDL
MODEL 8
REMARK VINA RESULT:      -6.8      4.880      7.415
REMARK  Name = 
REMARK  4 active torsions:
REMARK  status: ('A' for Active; 'I' for Inactive)
REMARK    1  A    between atoms: C_2  and  O_4
REMARK    2  A    between atoms: O_4  and  C_5
REMARK    3  A    between atoms: C_10  and  C_11
REMARK    4  A    between atoms: C_17  and  N_18
REMARK                            x       y       z     vdW  Elec       q    Type
REMARK                         _______ _______ _______ _____ _____    ______ ____
ROOT
ATOM      1  C   UNL     1       2.914   6.596  -5.629  0.00  0.00    +0.274 C 
ATOM      2  N   UNL     1       3.001   5.527  -4.704  0.00  0.00    -0.150 NA
ATOM      3  C   UNL     1       3.409   5.758  -3.353  0.00  0.00    +0.192 A 
ATOM      4  S   UNL     1       3.370   7.175  -2.383  0.00  0.00    +0.024 S 
ATOM      5  C   UNL     1       3.781   6.459  -0.876  0.00  0.00    +0.342 A 
ATOM      6  C   UNL     1       4.110   5.182  -1.318  0.00  0.00    +0.183 A 
ATOM      7  N   UNL     1       3.397   4.818  -2.375  0.00  0.00    -0.214 NA
ATOM      8  O   UNL     1       3.725   7.558  -5.483  0.00  0.00    -0.268 OA
ENDROOT
BRANCH   1  10
ATOM      9  C   UNL     1       0.488   6.459  -6.178  0.00  0.00    +0.153 A 
ATOM     10  C   UNL     1       1.791   6.749  -6.565  0.00  0.00    +0.090 A 
ATOM     11  C   UNL     1       2.041   6.646  -7.928  0.00  0.00    +0.008 A 
ATOM     12  C   UNL     1       1.082   6.116  -8.783  0.00  0.00    +0.000 A 
ATOM     13  C   UNL     1      -0.012   5.429  -8.284  0.00  0.00    +0.003 A 
ATOM     14  C   UNL     1      -0.350   5.671  -6.957  0.00  0.00    +0.038 A 
BRANCH   9  15
ATOM     15  O   UNL     1       0.160   6.799  -4.862  0.00  0.00    -0.424 OA
BRANCH  15  17
ATOM     16  C   UNL     1      -1.854   8.167  -4.534  0.00  0.00    +0.122 C 
ATOM     17  C   UNL     1      -1.186   6.831  -4.514  0.00  0.00    +0.322 C 
ATOM     18  O   UNL     1      -1.627   5.945  -3.734  0.00  0.00    -0.250 OA
ENDBRANCH  15  17
ENDBRANCH   9  15
ENDBRANCH   1  10
BRANCH   5  19
ATOM     19  N   UNL     1       4.258   7.134   0.297  0.00  0.00    +0.089 N 
ATOM     20  O   UNL     1       4.280   8.497   0.282  0.00  0.00    -0.576 OA
ATOM     21  O   UNL     1       4.790   6.544   1.247  0.00  0.00    +0.042 OA
ENDBRANCH   5  19
TORSDOF 4
ENDMDL
MODEL 9
REMARK VINA RESULT:      -6.7      5.346      7.699
REMARK  Name = 
REMARK  4 active torsions:
REMARK  status: ('A' for Active; 'I' for Inactive)
REMARK    1  A    between atoms: C_2  and  O_4
REMARK    2  A    between atoms: O_4  and  C_5
REMARK    3  A    between atoms: C_10  and  C_11
REMARK    4  A    between atoms: C_17  and  N_18
REMARK                            x       y       z     vdW  Elec       q    Type
REMARK                         _______ _______ _______ _____ _____    ______ ____
ROOT
ATOM      1  C   UNL     1       2.102   6.295  -5.108  0.00  0.00    +0.274 C 
ATOM      2  N   UNL     1       2.287   5.309  -4.109  0.00  0.00    -0.150 NA
ATOM      3  C   UNL     1       2.911   5.633  -2.864  0.00  0.00    +0.192 A 
ATOM      4  S   UNL     1       3.087   7.131  -2.041  0.00  0.00    +0.024 S 
ATOM      5  C   UNL     1       3.698   6.527  -0.551  0.00  0.00    +0.342 A 
ATOM      6  C   UNL     1       3.898   5.200  -0.913  0.00  0.00    +0.183 A 
ATOM      7  N   UNL     1       3.012   4.786  -1.810  0.00  0.00    -0.214 NA
ATOM      8  O   UNL     1       2.967   7.217  -5.181  0.00  0.00    -0.268 OA
ENDROOT
BRANCH   1  10
ATOM      9  C   UNL     1      -0.385   6.308  -5.254  0.00  0.00    +0.153 A 
ATOM     10  C   UNL     1       0.854   6.429  -5.872  0.00  0.00    +0.090 A 
ATOM     11  C   UNL     1       0.870   6.136  -7.231  0.00  0.00    +0.008 A 
ATOM     12  C   UNL     1      -0.251   5.590  -7.847  0.00  0.00    +0.000 A 
ATOM     13  C   UNL     1      -1.292   5.072  -7.097  0.00  0.00    +0.003 A 
ATOM     14  C   UNL     1      -1.391   5.507  -5.780  0.00  0.00    +0.038 A 
BRANCH   9  15
ATOM     15  O   UNL     1      -0.468   6.837  -3.963  0.00  0.00    -0.424 OA
BRANCH  15  17
ATOM     16  C   UNL     1      -2.342   6.905  -2.376  0.00  0.00    +0.122 C 
ATOM     17  C   UNL     1      -1.230   6.148  -3.025  0.00  0.00    +0.322 C 
ATOM     18  O   UNL     1      -0.692   5.201  -2.392  0.00  0.00    -0.250 OA
ENDBRANCH  15  17
ENDBRANCH   9  15
ENDBRANCH   1  10
BRANCH   5  19
ATOM     19  N   UNL     1       4.382   7.275   0.464  0.00  0.00    +0.089 N 
ATOM     20  O   UNL     1       4.901   6.588   1.520  0.00  0.00    -0.576 OA
ATOM     21  O   UNL     1       4.387   8.513   0.503  0.00  0.00    +0.042 OA
ENDBRANCH   5  19
TORSDOF 4
ENDMDL
