MODEL 1
REMARK VINA RESULT:      -9.0      0.000      0.000
REMARK  Name = 
REMARK  9 active torsions:
REMARK  status: ('A' for Active; 'I' for Inactive)
REMARK    1  A    between atoms: C_2  and  C_3
REMARK    2  A    between atoms: N_5  and  C_6
REMARK    3  A    between atoms: C_8  and  N_9
REMARK    4  A    between atoms: C_14  and  C_15
REMARK    5  A    between atoms: C_26  and  O_27
REMARK    6  A    between atoms: C_30  and  N_31
REMARK    7  A    between atoms: N_31  and  C_33
REMARK    8  A    between atoms: C_33  and  C_34
REMARK    9  A    between atoms: C_34  and  N_35
REMARK                            x       y       z     vdW  Elec       q    Type
REMARK                         _______ _______ _______ _____ _____    ______ ____
ROOT
ATOM      1  C   UNL     1       0.945   5.418  -4.124  0.00  0.00    +0.088 A 
ATOM      2  C   UNL     1       1.654   5.666  -2.963  0.00  0.00    +0.067 A 
ATOM      3  C   UNL     1       2.898   6.268  -3.102  0.00  0.00    +0.054 A 
ATOM      4  C   UNL     1       3.620   6.032  -4.262  0.00  0.00    +0.155 A 
ATOM      5  C   UNL     1       2.910   5.766  -5.424  0.00  0.00    +0.109 A 
ATOM      6  C   UNL     1       1.700   5.105  -5.247  0.00  0.00    +0.038 A 
ENDROOT
BRANCH   5   7
ATOM      7  N   UNL     1       3.687   5.344  -6.551  0.00  0.00    -0.175 NA
ATOM      8  C   UNL     1       3.396   5.933  -7.824  0.00  0.00    +0.241 A 
ATOM      9  N   UNL     1       4.008   5.458  -8.935  0.00  0.00    -0.212 NA
ATOM     10  C   UNL     1       3.534   5.772 -10.164  0.00  0.00    +0.087 A 
ATOM     11  C   UNL     1       2.254   6.290 -10.245  0.00  0.00    +0.040 A 
ATOM     12  C   UNL     1       1.761   7.006  -9.161  0.00  0.00    +0.103 A 
ATOM     13  N   UNL     1       2.341   6.769  -7.978  0.00  0.00    -0.211 NA
BRANCH  10  14
ATOM     14  C   UNL     1       4.461   5.769 -11.293  0.00  0.00    +0.036 A 
ATOM     15  C   UNL     1       5.833   5.935 -11.256  0.00  0.00    +0.019 A 
ATOM     16  C   UNL     1       6.240   5.819 -12.570  0.00  0.00    +0.060 A 
ATOM     17  C   UNL     1       7.597   5.952 -12.833  0.00  0.00    +0.017 A 
ATOM     18  C   UNL     1       8.451   5.502 -11.833  0.00  0.00    +0.001 A 
ATOM     19  C   UNL     1       8.044   5.616 -10.511  0.00  0.00    +0.000 A 
ATOM     20  N   UNL     1       5.141   5.994 -13.335  0.00  0.00    -0.324 N 
ATOM     21  C   UNL     1       5.127   6.187 -14.762  0.00  0.00    +0.130 C 
ATOM     22  C   UNL     1       6.725   5.898 -10.200  0.00  0.00    +0.002 A 
ATOM     23  C   UNL     1       4.053   5.642 -12.610  0.00  0.00    +0.077 A 
ENDBRANCH  10  14
ENDBRANCH   5   7
BRANCH   1  25
ATOM     24  C   UNL     1      -1.128   6.628  -4.795  0.00  0.00    +0.269 C 
ATOM     25  N   UNL     1      -0.484   5.511  -4.176  0.00  0.00    -0.174 NA
ATOM     26  O   UNL     1      -0.447   7.686  -4.957  0.00  0.00    -0.268 OA
BRANCH  24  28
ATOM     27  C   UNL     1      -2.275   5.410  -6.470  0.00  0.00    +0.005 C 
ATOM     28  C   UNL     1      -2.297   6.467  -5.662  0.00  0.00    +0.060 C 
ENDBRANCH  24  28
ENDBRANCH   1  25
BRANCH   4  29
ATOM     29  O   UNL     1       4.922   6.516  -4.427  0.00  0.00    -0.470 OA
ATOM     30  C   UNL     1       5.099   7.913  -4.209  0.00  0.00    +0.253 C 
ENDBRANCH   4  29
BRANCH   2  31
ATOM     31  N   UNL     1       0.909   5.972  -1.778  0.00  0.00    -0.303 N 
ATOM     32  C   UNL     1       0.037   4.946  -1.213  0.00  0.00    +0.112 C 
BRANCH  31  33
ATOM     33  C   UNL     1       1.538   6.872  -0.831  0.00  0.00    +0.108 C 
BRANCH  33  34
ATOM     34  C   UNL     1       0.737   7.038   0.432  0.00  0.00    +0.094 C 
BRANCH  34  35
ATOM     35  N   UNL     1       0.011   8.282   0.332  0.00  0.00    -0.269 NA
ATOM     36  C   UNL     1       0.347   9.223   1.371  0.00  0.00    +0.090 C 
ATOM     37  C   UNL     1      -1.408   8.086   0.187  0.00  0.00    +0.090 C 
ENDBRANCH  34  35
ENDBRANCH  33  34
ENDBRANCH  31  33
ENDBRANCH   2  31
TORSDOF 9
ENDMDL
MODEL 2
REMARK VINA RESULT:      -8.7      1.396      2.348
REMARK  Name = 
REMARK  9 active torsions:
REMARK  status: ('A' for Active; 'I' for Inactive)
REMARK    1  A    between atoms: C_2  and  C_3
REMARK    2  A    between atoms: N_5  and  C_6
REMARK    3  A    between atoms: C_8  and  N_9
REMARK    4  A    between atoms: C_14  and  C_15
REMARK    5  A    between atoms: C_26  and  O_27
REMARK    6  A    between atoms: C_30  and  N_31
REMARK    7  A    between atoms: N_31  and  C_33
REMARK    8  A    between atoms: C_33  and  C_34
REMARK    9  A    between atoms: C_34  and  N_35
REMARK                            x       y       z     vdW  Elec       q    Type
REMARK                         _______ _______ _______ _____ _____    ______ ____
ROOT
ATOM      1  C   UNL     1       1.490   4.913  -4.627  0.00  0.00    +0.088 A 
ATOM      2  C   UNL     1       1.977   5.193  -3.362  0.00  0.00    +0.067 A 
ATOM      3  C   UNL     1       3.135   5.957  -3.289  0.00  0.00    +0.054 A 
ATOM      4  C   UNL     1       4.048   5.875  -4.330  0.00  0.00    +0.155 A 
ATOM      5  C   UNL     1       3.561   5.577  -5.596  0.00  0.00    +0.109 A 
ATOM      6  C   UNL     1       2.439   4.757  -5.628  0.00  0.00    +0.038 A 
ENDROOT
BRANCH   5   7
ATOM      7  N   UNL     1       4.548   5.316  -6.601  0.00  0.00    -0.175 NA
ATOM      8  C   UNL     1       4.322   5.840  -7.915  0.00  0.00    +0.241 A 
ATOM      9  N   UNL     1       5.156   5.495  -8.925  0.00  0.00    -0.212 NA
ATOM     10  C   UNL     1       4.798   5.714 -10.212  0.00  0.00    +0.087 A 
ATOM     11  C   UNL     1       3.465   5.974 -10.472  0.00  0.00    +0.040 A 
ATOM     12  C   UNL     1       2.703   6.579  -9.479  0.00  0.00    +0.103 A 
ATOM     13  N   UNL     1       3.156   6.456  -8.226  0.00  0.00    -0.211 NA
BRANCH  10  14
ATOM     14  C   UNL     1       5.850   5.893 -11.209  0.00  0.00    +0.036 A 
ATOM     15  C   UNL     1       5.724   5.844 -12.584  0.00  0.00    +0.019 A 
ATOM     16  C   UNL     1       6.990   6.107 -13.067  0.00  0.00    +0.060 A 
ATOM     17  C   UNL     1       7.160   6.115 -14.446  0.00  0.00    +0.017 A 
ATOM     18  C   UNL     1       6.067   6.550 -15.184  0.00  0.00    +0.001 A 
ATOM     19  C   UNL     1       4.793   6.289 -14.702  0.00  0.00    +0.000 A 
ATOM     20  N   UNL     1       7.847   5.903 -12.044  0.00  0.00    -0.324 N 
ATOM     21  C   UNL     1       9.282   5.831 -12.144  0.00  0.00    +0.130 C 
ATOM     22  C   UNL     1       4.604   5.868 -13.396  0.00  0.00    +0.002 A 
ATOM     23  C   UNL     1       7.180   6.096 -10.881  0.00  0.00    +0.077 A 
ENDBRANCH  10  14
ENDBRANCH   5   7
BRANCH   1  25
ATOM     24  C   UNL     1      -0.579   5.816  -5.682  0.00  0.00    +0.269 C 
ATOM     25  N   UNL     1       0.086   4.823  -4.896  0.00  0.00    -0.174 NA
ATOM     26  O   UNL     1      -0.009   6.940  -5.818  0.00  0.00    -0.268 OA
BRANCH  24  28
ATOM     27  C   UNL     1      -2.797   5.940  -6.502  0.00  0.00    +0.005 C 
ATOM     28  C   UNL     1      -1.572   5.462  -6.700  0.00  0.00    +0.060 C 
ENDBRANCH  24  28
ENDBRANCH   1  25
BRANCH   4  29
ATOM     29  O   UNL     1       5.281   6.530  -4.278  0.00  0.00    -0.470 OA
ATOM     30  C   UNL     1       5.228   7.953  -4.220  0.00  0.00    +0.253 C 
ENDBRANCH   4  29
BRANCH   2  31
ATOM     31  N   UNL     1       1.029   5.340  -2.299  0.00  0.00    -0.303 N 
ATOM     32  C   UNL     1       1.294   4.677  -1.025  0.00  0.00    +0.112 C 
BRANCH  31  33
ATOM     33  C   UNL     1       0.325   6.606  -2.228  0.00  0.00    +0.108 C 
BRANCH  33  34
ATOM     34  C   UNL     1      -0.780   6.600  -1.207  0.00  0.00    +0.094 C 
BRANCH  34  35
ATOM     35  N   UNL     1      -2.034   6.688  -1.916  0.00  0.00    -0.269 NA
ATOM     36  C   UNL     1      -2.521   5.410  -2.371  0.00  0.00    +0.090 C 
ATOM     37  C   UNL     1      -2.016   7.687  -2.953  0.00  0.00    +0.090 C 
ENDBRANCH  34  35
ENDBRANCH  33  34
ENDBRANCH  31  33
ENDBRANCH   2  31
TORSDOF 9
ENDMDL
MODEL 3
REMARK VINA RESULT:      -8.4      1.592      3.597
REMARK  Name = 
REMARK  9 active torsions:
REMARK  status: ('A' for Active; 'I' for Inactive)
REMARK    1  A    between atoms: C_2  and  C_3
REMARK    2  A    between atoms: N_5  and  C_6
REMARK    3  A    between atoms: C_8  and  N_9
REMARK    4  A    between atoms: C_14  and  C_15
REMARK    5  A    between atoms: C_26  and  O_27
REMARK    6  A    between atoms: C_30  and  N_31
REMARK    7  A    between atoms: N_31  and  C_33
REMARK    8  A    between atoms: C_33  and  C_34
REMARK    9  A    between atoms: C_34  and  N_35
REMARK                            x       y       z     vdW  Elec       q    Type
REMARK                         _______ _______ _______ _____ _____    ______ ____
ROOT
ATOM      1  C   UNL     1       2.451   5.082  -3.416  0.00  0.00    +0.088 A 
ATOM      2  C   UNL     1       1.202   5.672  -3.338  0.00  0.00    +0.067 A 
ATOM      3  C   UNL     1       0.257   5.270  -4.274  0.00  0.00    +0.054 A 
ATOM      4  C   UNL     1       0.698   4.852  -5.520  0.00  0.00    +0.155 A 
ATOM      5  C   UNL     1       1.959   4.276  -5.602  0.00  0.00    +0.109 A 
ATOM      6  C   UNL     1       2.893   4.751  -4.690  0.00  0.00    +0.038 A 
ENDROOT
BRANCH   5   7
ATOM      7  N   UNL     1       2.451   4.031  -6.925  0.00  0.00    -0.175 NA
ATOM      8  C   UNL     1       2.900   5.154  -7.692  0.00  0.00    +0.241 A 
ATOM      9  N   UNL     1       3.236   4.984  -8.993  0.00  0.00    -0.212 NA
ATOM     10  C   UNL     1       3.360   6.054  -9.813  0.00  0.00    +0.087 A 
ATOM     11  C   UNL     1       2.821   7.255  -9.387  0.00  0.00    +0.040 A 
ATOM     12  C   UNL     1       2.738   7.495  -8.021  0.00  0.00    +0.103 A 
ATOM     13  N   UNL     1       2.750   6.418  -7.226  0.00  0.00    -0.211 NA
BRANCH  10  14
ATOM     14  C   UNL     1       4.242   5.948 -10.972  0.00  0.00    +0.036 A 
ATOM     15  C   UNL     1       5.621   6.046 -10.993  0.00  0.00    +0.019 A 
ATOM     16  C   UNL     1       5.971   5.843 -12.312  0.00  0.00    +0.060 A 
ATOM     17  C   UNL     1       7.322   5.895 -12.631  0.00  0.00    +0.017 A 
ATOM     18  C   UNL     1       8.191   5.455 -11.640  0.00  0.00    +0.001 A 
ATOM     19  C   UNL     1       7.841   5.656 -10.312  0.00  0.00    +0.000 A 
ATOM     20  N   UNL     1       4.854   6.034 -13.046  0.00  0.00    -0.324 N 
ATOM     21  C   UNL     1       4.794   6.155 -14.480  0.00  0.00    +0.130 C 
ATOM     22  C   UNL     1       6.550   6.019  -9.969  0.00  0.00    +0.002 A 
ATOM     23  C   UNL     1       3.778   5.774 -12.265  0.00  0.00    +0.077 A 
ENDBRANCH  10  14
ENDBRANCH   5   7
BRANCH   1  25
ATOM     24  C   UNL     1       4.245   5.700  -1.801  0.00  0.00    +0.269 C 
ATOM     25  N   UNL     1       3.230   4.797  -2.248  0.00  0.00    -0.174 NA
ATOM     26  O   UNL     1       4.693   6.543  -2.635  0.00  0.00    -0.268 OA
BRANCH  24  28
ATOM     27  C   UNL     1       4.797   7.277  -0.123  0.00  0.00    +0.005 C 
ATOM     28  C   UNL     1       4.423   6.028  -0.384  0.00  0.00    +0.060 C 
ENDBRANCH  24  28
ENDBRANCH   1  25
BRANCH   4  29
ATOM     29  O   UNL     1      -0.197   4.535  -6.547  0.00  0.00    -0.470 OA
ATOM     30  C   UNL     1      -1.324   5.397  -6.678  0.00  0.00    +0.253 C 
ENDBRANCH   4  29
BRANCH   2  31
ATOM     31  N   UNL     1       0.720   6.047  -2.043  0.00  0.00    -0.303 N 
ATOM     32  C   UNL     1       1.211   7.283  -1.441  0.00  0.00    +0.112 C 
BRANCH  31  33
ATOM     33  C   UNL     1      -0.648   5.681  -1.729  0.00  0.00    +0.108 C 
BRANCH  33  34
ATOM     34  C   UNL     1      -1.494   6.867  -1.350  0.00  0.00    +0.094 C 
BRANCH  34  35
ATOM     35  N   UNL     1      -2.531   7.003  -2.346  0.00  0.00    -0.269 NA
ATOM     36  C   UNL     1      -3.101   5.742  -2.751  0.00  0.00    +0.090 C 
ATOM     37  C   UNL     1      -2.126   7.821  -3.460  0.00  0.00    +0.090 C 
ENDBRANCH  34  35
ENDBRANCH  33  34
ENDBRANCH  31  33
ENDBRANCH   2  31
TORSDOF 9
ENDMDL
MODEL 4
REMARK VINA RESULT:      -8.3      1.162      2.027
REMARK  Name = 
REMARK  9 active torsions:
REMARK  status: ('A' for Active; 'I' for Inactive)
REMARK    1  A    between atoms: C_2  and  C_3
REMARK    2  A    between atoms: N_5  and  C_6
REMARK    3  A    between atoms: C_8  and  N_9
REMARK    4  A    between atoms: C_14  and  C_15
REMARK    5  A    between atoms: C_26  and  O_27
REMARK    6  A    between atoms: C_30  and  N_31
REMARK    7  A    between atoms: N_31  and  C_33
REMARK    8  A    between atoms: C_33  and  C_34
REMARK    9  A    between atoms: C_34  and  N_35
REMARK                            x       y       z     vdW  Elec       q    Type
REMARK                         _______ _______ _______ _____ _____    ______ ____
ROOT
ATOM      1  C   UNL     1       0.343   5.836  -3.334  0.00  0.00    +0.088 A 
ATOM      2  C   UNL     1       0.962   6.028  -2.112  0.00  0.00    +0.067 A 
ATOM      3  C   UNL     1       2.273   6.487  -2.136  0.00  0.00    +0.054 A 
ATOM      4  C   UNL     1       3.071   6.151  -3.219  0.00  0.00    +0.155 A 
ATOM      5  C   UNL     1       2.448   5.941  -4.442  0.00  0.00    +0.109 A 
ATOM      6  C   UNL     1       1.161   5.420  -4.376  0.00  0.00    +0.038 A 
ENDROOT
BRANCH   5   7
ATOM      7  N   UNL     1       3.278   5.415  -5.485  0.00  0.00    -0.175 NA
ATOM      8  C   UNL     1       3.377   6.161  -6.703  0.00  0.00    +0.241 A 
ATOM      9  N   UNL     1       4.032   5.628  -7.762  0.00  0.00    -0.212 NA
ATOM     10  C   UNL     1       3.879   6.158  -8.999  0.00  0.00    +0.087 A 
ATOM     11  C   UNL     1       2.810   7.012  -9.203  0.00  0.00    +0.040 A 
ATOM     12  C   UNL     1       2.335   7.746  -8.123  0.00  0.00    +0.103 A 
ATOM     13  N   UNL     1       2.616   7.264  -6.906  0.00  0.00    -0.211 NA
BRANCH  10  14
ATOM     14  C   UNL     1       4.958   5.992  -9.969  0.00  0.00    +0.036 A 
ATOM     15  C   UNL     1       4.845   5.659 -11.305  0.00  0.00    +0.019 A 
ATOM     16  C   UNL     1       6.140   5.662 -11.783  0.00  0.00    +0.060 A 
ATOM     17  C   UNL     1       6.328   5.349 -13.123  0.00  0.00    +0.017 A 
ATOM     18  C   UNL     1       5.306   5.736 -13.980  0.00  0.00    +0.001 A 
ATOM     19  C   UNL     1       4.003   5.736 -13.503  0.00  0.00    +0.000 A 
ATOM     20  N   UNL     1       6.952   5.588 -10.707  0.00  0.00    -0.324 N 
ATOM     21  C   UNL     1       8.369   5.330 -10.733  0.00  0.00    +0.130 C 
ATOM     22  C   UNL     1       3.747   5.635 -12.146  0.00  0.00    +0.002 A 
ATOM     23  C   UNL     1       6.298   6.107  -9.639  0.00  0.00    +0.077 A 
ENDBRANCH  10  14
ENDBRANCH   5   7
BRANCH   1  25
ATOM     24  C   UNL     1      -1.512   7.005  -4.519  0.00  0.00    +0.269 C 
ATOM     25  N   UNL     1      -1.055   6.084  -3.524  0.00  0.00    -0.174 NA
ATOM     26  O   UNL     1      -0.682   7.855  -4.960  0.00  0.00    -0.268 OA
BRANCH  24  28
ATOM     27  C   UNL     1      -2.440   5.859  -6.372  0.00  0.00    +0.005 C 
ATOM     28  C   UNL     1      -2.663   6.712  -5.376  0.00  0.00    +0.060 C 
ENDBRANCH  24  28
ENDBRANCH   1  25
BRANCH   4  29
ATOM     29  O   UNL     1       4.428   6.486  -3.262  0.00  0.00    -0.470 OA
ATOM     30  C   UNL     1       4.722   7.876  -3.371  0.00  0.00    +0.253 C 
ENDBRANCH   4  29
BRANCH   2  31
ATOM     31  N   UNL     1       0.147   6.437  -1.008  0.00  0.00    -0.303 N 
ATOM     32  C   UNL     1      -1.099   5.719  -0.750  0.00  0.00    +0.112 C 
BRANCH  31  33
ATOM     33  C   UNL     1       0.842   6.951   0.157  0.00  0.00    +0.108 C 
BRANCH  33  34
ATOM     34  C   UNL     1       0.481   8.379   0.465  0.00  0.00    +0.094 C 
BRANCH  34  35
ATOM     35  N   UNL     1      -0.342   8.378   1.651  0.00  0.00    -0.269 NA
ATOM     36  C   UNL     1      -0.419   9.668   2.292  0.00  0.00    +0.090 C 
ATOM     37  C   UNL     1      -0.000   7.316   2.562  0.00  0.00    +0.090 C 
ENDBRANCH  34  35
ENDBRANCH  33  34
ENDBRANCH  31  33
ENDBRANCH   2  31
TORSDOF 9
ENDMDL
MODEL 5
REMARK VINA RESULT:      -8.3      2.372     10.805
REMARK  Name = 
REMARK  9 active torsions:
REMARK  status: ('A' for Active; 'I' for Inactive)
REMARK    1  A    between atoms: C_2  and  C_3
REMARK    2  A    between atoms: N_5  and  C_6
REMARK    3  A    between atoms: C_8  and  N_9
REMARK    4  A    between atoms: C_14  and  C_15
REMARK    5  A    between atoms: C_26  and  O_27
REMARK    6  A    between atoms: C_30  and  N_31
REMARK    7  A    between atoms: N_31  and  C_33
REMARK    8  A    between atoms: C_33  and  C_34
REMARK    9  A    between atoms: C_34  and  N_35
REMARK                            x       y       z     vdW  Elec       q    Type
REMARK                         _______ _______ _______ _____ _____    ______ ____
ROOT
ATOM      1  C   UNL     1       4.387   5.463 -11.448  0.00  0.00    +0.088 A 
ATOM      2  C   UNL     1       3.626   5.685 -12.582  0.00  0.00    +0.067 A 
ATOM      3  C   UNL     1       2.346   6.189 -12.392  0.00  0.00    +0.054 A 
ATOM      4  C   UNL     1       1.680   5.875 -11.218  0.00  0.00    +0.155 A 
ATOM      5  C   UNL     1       2.443   5.635 -10.083  0.00  0.00    +0.109 A 
ATOM      6  C   UNL     1       3.692   5.070 -10.312  0.00  0.00    +0.038 A 
ENDROOT
BRANCH   5   7
ATOM      7  N   UNL     1       1.733   5.132  -8.945  0.00  0.00    -0.175 NA
ATOM      8  C   UNL     1       1.881   5.828  -7.702  0.00  0.00    +0.241 A 
ATOM      9  N   UNL     1       1.344   5.303  -6.575  0.00  0.00    -0.212 NA
ATOM     10  C   UNL     1       1.723   5.762  -5.359  0.00  0.00    +0.087 A 
ATOM     11  C   UNL     1       2.881   6.515  -5.290  0.00  0.00    +0.040 A 
ATOM     12  C   UNL     1       3.256   7.256  -6.405  0.00  0.00    +0.103 A 
ATOM     13  N   UNL     1       2.757   6.855  -7.580  0.00  0.00    -0.211 NA
BRANCH  10  14
ATOM     14  C   UNL     1       0.788   5.641  -4.243  0.00  0.00    +0.036 A 
ATOM     15  C   UNL     1      -0.586   5.780  -4.278  0.00  0.00    +0.019 A 
ATOM     16  C   UNL     1      -1.000   5.542  -2.983  0.00  0.00    +0.060 A 
ATOM     17  C   UNL     1      -2.362   5.622  -2.722  0.00  0.00    +0.017 A 
ATOM     18  C   UNL     1      -3.198   5.243  -3.765  0.00  0.00    +0.001 A 
ATOM     19  C   UNL     1      -2.785   5.480  -5.068  0.00  0.00    +0.000 A 
ATOM     20  N   UNL     1       0.089   5.673  -2.195  0.00  0.00    -0.324 N 
ATOM     21  C   UNL     1       0.088   5.743  -0.757  0.00  0.00    +0.130 C 
ATOM     22  C   UNL     1      -1.469   5.816  -5.342  0.00  0.00    +0.002 A 
ATOM     23  C   UNL     1       1.190   5.409  -2.939  0.00  0.00    +0.077 A 
ENDBRANCH  10  14
ENDBRANCH   5   7
BRANCH   1  25
ATOM     24  C   UNL     1       6.375   6.892 -10.980  0.00  0.00    +0.269 C 
ATOM     25  N   UNL     1       5.806   5.660 -11.435  0.00  0.00    -0.174 NA
ATOM     26  O   UNL     1       5.623   7.912 -10.946  0.00  0.00    -0.268 OA
BRANCH  24  28
ATOM     27  C   UNL     1       7.724   5.878  -9.319  0.00  0.00    +0.005 C 
ATOM     28  C   UNL     1       7.560   6.927 -10.121  0.00  0.00    +0.060 C 
ENDBRANCH  24  28
ENDBRANCH   1  25
BRANCH   4  29
ATOM     29  O   UNL     1       0.352   6.257 -11.003  0.00  0.00    -0.470 OA
ATOM     30  C   UNL     1      -0.141   7.295 -11.846  0.00  0.00    +0.253 C 
ENDBRANCH   4  29
BRANCH   2  31
ATOM     31  N   UNL     1       4.310   6.071 -13.779  0.00  0.00    -0.303 N 
ATOM     32  C   UNL     1       5.567   5.407 -14.117  0.00  0.00    +0.112 C 
BRANCH  31  33
ATOM     33  C   UNL     1       3.481   6.479 -14.897  0.00  0.00    +0.108 C 
BRANCH  33  34
ATOM     34  C   UNL     1       4.255   7.217 -15.956  0.00  0.00    +0.094 C 
BRANCH  34  35
ATOM     35  N   UNL     1       3.337   7.551 -17.019  0.00  0.00    -0.269 NA
ATOM     36  C   UNL     1       3.964   8.248 -18.115  0.00  0.00    +0.090 C 
ATOM     37  C   UNL     1       2.148   8.208 -16.540  0.00  0.00    +0.090 C 
ENDBRANCH  34  35
ENDBRANCH  33  34
ENDBRANCH  31  33
ENDBRANCH   2  31
TORSDOF 9
ENDMDL
MODEL 6
REMARK VINA RESULT:      -8.2      1.308      2.506
REMARK  Name = 
REMARK  9 active torsions:
REMARK  status: ('A' for Active; 'I' for Inactive)
REMARK    1  A    between atoms: C_2  and  C_3
REMARK    2  A    between atoms: N_5  and  C_6
REMARK    3  A    between atoms: C_8  and  N_9
REMARK    4  A    between atoms: C_14  and  C_15
REMARK    5  A    between atoms: C_26  and  O_27
REMARK    6  A    between atoms: C_30  and  N_31
REMARK    7  A    between atoms: N_31  and  C_33
REMARK    8  A    between atoms: C_33  and  C_34
REMARK    9  A    between atoms: C_34  and  N_35
REMARK                            x       y       z     vdW  Elec       q    Type
REMARK                         _______ _______ _______ _____ _____    ______ ____
ROOT
ATOM      1  C   UNL     1       0.825   5.985  -4.153  0.00  0.00    +0.088 A 
ATOM      2  C   UNL     1       1.696   5.860  -3.084  0.00  0.00    +0.067 A 
ATOM      3  C   UNL     1       2.816   6.681  -3.087  0.00  0.00    +0.054 A 
ATOM      4  C   UNL     1       3.343   7.076  -4.307  0.00  0.00    +0.155 A 
ATOM      5  C   UNL     1       2.473   7.185  -5.383  0.00  0.00    +0.109 A 
ATOM      6  C   UNL     1       1.400   6.302  -5.376  0.00  0.00    +0.038 A 
ENDROOT
BRANCH   5   7
ATOM      7  N   UNL     1       3.082   7.411  -6.660  0.00  0.00    -0.175 NA
ATOM      8  C   UNL     1       3.033   6.352  -7.623  0.00  0.00    +0.241 A 
ATOM      9  N   UNL     1       3.720   6.473  -8.785  0.00  0.00    -0.212 NA
ATOM     10  C   UNL     1       3.946   5.387  -9.561  0.00  0.00    +0.087 A 
ATOM     11  C   UNL     1       3.761   4.141  -8.991  0.00  0.00    +0.040 A 
ATOM     12  C   UNL     1       2.837   4.015  -7.960  0.00  0.00    +0.103 A 
ATOM     13  N   UNL     1       2.535   5.136  -7.294  0.00  0.00    -0.211 NA
BRANCH  10  14
ATOM     14  C   UNL     1       4.140   5.582 -10.996  0.00  0.00    +0.036 A 
ATOM     15  C   UNL     1       3.172   5.597 -11.982  0.00  0.00    +0.019 A 
ATOM     16  C   UNL     1       3.861   5.847 -13.152  0.00  0.00    +0.060 A 
ATOM     17  C   UNL     1       3.124   5.911 -14.327  0.00  0.00    +0.017 A 
ATOM     18  C   UNL     1       1.832   6.407 -14.201  0.00  0.00    +0.001 A 
ATOM     19  C   UNL     1       1.137   6.159 -13.026  0.00  0.00    +0.000 A 
ATOM     20  N   UNL     1       5.161   5.576 -12.904  0.00  0.00    -0.324 N 
ATOM     21  C   UNL     1       6.205   5.471 -13.890  0.00  0.00    +0.130 C 
ATOM     22  C   UNL     1       1.795   5.686 -11.902  0.00  0.00    +0.002 A 
ATOM     23  C   UNL     1       5.387   5.736 -11.578  0.00  0.00    +0.077 A 
ENDBRANCH  10  14
ENDBRANCH   5   7
BRANCH   1  25
ATOM     24  C   UNL     1      -1.497   6.833  -4.467  0.00  0.00    +0.269 C 
ATOM     25  N   UNL     1      -0.591   5.829  -4.000  0.00  0.00    -0.174 NA
ATOM     26  O   UNL     1      -1.034   7.996  -4.670  0.00  0.00    -0.268 OA
BRANCH  24  28
ATOM     27  C   UNL     1      -2.586   5.837  -6.319  0.00  0.00    +0.005 C 
ATOM     28  C   UNL     1      -2.735   6.492  -5.171  0.00  0.00    +0.060 C 
ENDBRANCH  24  28
ENDBRANCH   1  25
BRANCH   4  29
ATOM     29  O   UNL     1       4.528   7.813  -4.390  0.00  0.00    -0.470 OA
ATOM     30  C   UNL     1       5.665   7.236  -3.753  0.00  0.00    +0.253 C 
ENDBRANCH   4  29
BRANCH   2  31
ATOM     31  N   UNL     1       1.143   5.513  -1.810  0.00  0.00    -0.303 N 
ATOM     32  C   UNL     1       1.600   4.290  -1.155  0.00  0.00    +0.112 C 
BRANCH  31  33
ATOM     33  C   UNL     1       0.788   6.614  -0.935  0.00  0.00    +0.108 C 
BRANCH  33  34
ATOM     34  C   UNL     1      -0.599   6.480  -0.366  0.00  0.00    +0.094 C 
BRANCH  34  35
ATOM     35  N   UNL     1      -0.712   7.403   0.739  0.00  0.00    -0.269 NA
ATOM     36  C   UNL     1      -1.975   8.097   0.774  0.00  0.00    +0.090 C 
ATOM     37  C   UNL     1       0.420   8.289   0.839  0.00  0.00    +0.090 C 
ENDBRANCH  34  35
ENDBRANCH  33  34
ENDBRANCH  31  33
ENDBRANCH   2  31
TORSDOF 9
ENDMDL
MODEL 7
REMARK VINA RESULT:      -8.1      1.576      3.504
REMARK  Name = 
REMARK  9 active torsions:
REMARK  status: ('A' for Active; 'I' for Inactive)
REMARK    1  A    between atoms: C_2  and  C_3
REMARK    2  A    between atoms: N_5  and  C_6
REMARK    3  A    between atoms: C_8  and  N_9
REMARK    4  A    between atoms: C_14  and  C_15
REMARK    5  A    between atoms: C_26  and  O_27
REMARK    6  A    between atoms: C_30  and  N_31
REMARK    7  A    between atoms: N_31  and  C_33
REMARK    8  A    between atoms: C_33  and  C_34
REMARK    9  A    between atoms: C_34  and  N_35
REMARK                            x       y       z     vdW  Elec       q    Type
REMARK                         _______ _______ _______ _____ _____    ______ ____
ROOT
ATOM      1  C   UNL     1       2.442   6.330  -3.466  0.00  0.00    +0.088 A 
ATOM      2  C   UNL     1       1.165   6.056  -3.010  0.00  0.00    +0.067 A 
ATOM      3  C   UNL     1       0.307   5.412  -3.891  0.00  0.00    +0.054 A 
ATOM      4  C   UNL     1       0.476   5.623  -5.251  0.00  0.00    +0.155 A 
ATOM      5  C   UNL     1       1.754   5.915  -5.708  0.00  0.00    +0.109 A 
ATOM      6  C   UNL     1       2.560   6.617  -4.819  0.00  0.00    +0.038 A 
ENDROOT
BRANCH   5   7
ATOM      7  N   UNL     1       1.854   6.310  -7.081  0.00  0.00    -0.175 NA
ATOM      8  C   UNL     1       2.942   5.787  -7.852  0.00  0.00    +0.241 A 
ATOM      9  N   UNL     1       3.153   6.248  -9.108  0.00  0.00    -0.212 NA
ATOM     10  C   UNL     1       4.330   6.011  -9.734  0.00  0.00    +0.087 A 
ATOM     11  C   UNL     1       5.398   5.598  -8.958  0.00  0.00    +0.040 A 
ATOM     12  C   UNL     1       5.133   4.889  -7.793  0.00  0.00    +0.103 A 
ATOM     13  N   UNL     1       3.911   5.042  -7.268  0.00  0.00    -0.211 NA
BRANCH  10  14
ATOM     14  C   UNL     1       4.351   5.977 -11.194  0.00  0.00    +0.036 A 
ATOM     15  C   UNL     1       5.413   6.269 -12.027  0.00  0.00    +0.019 A 
ATOM     16  C   UNL     1       4.933   6.057 -13.304  0.00  0.00    +0.060 A 
ATOM     17  C   UNL     1       5.803   6.285 -14.362  0.00  0.00    +0.017 A 
ATOM     18  C   UNL     1       7.142   6.019 -14.107  0.00  0.00    +0.001 A 
ATOM     19  C   UNL     1       7.629   6.230 -12.824  0.00  0.00    +0.000 A 
ATOM     20  N   UNL     1       3.585   6.053 -13.217  0.00  0.00    -0.324 N 
ATOM     21  C   UNL     1       2.666   6.098 -14.324  0.00  0.00    +0.130 C 
ATOM     22  C   UNL     1       6.762   6.422 -11.762  0.00  0.00    +0.002 A 
ATOM     23  C   UNL     1       3.238   5.680 -11.961  0.00  0.00    +0.077 A 
ENDBRANCH  10  14
ENDBRANCH   5   7
BRANCH   1  25
ATOM     24  C   UNL     1       4.124   7.484  -2.034  0.00  0.00    +0.269 C 
ATOM     25  N   UNL     1       3.583   6.287  -2.601  0.00  0.00    -0.174 NA
ATOM     26  O   UNL     1       3.826   8.585  -2.587  0.00  0.00    -0.268 OA
BRANCH  24  28
ATOM     27  C   UNL     1       4.666   6.386  -0.007  0.00  0.00    +0.005 C 
ATOM     28  C   UNL     1       4.556   7.553  -0.636  0.00  0.00    +0.060 C 
ENDBRANCH  24  28
ENDBRANCH   1  25
BRANCH   4  29
ATOM     29  O   UNL     1      -0.414   5.094  -6.191  0.00  0.00    -0.470 OA
ATOM     30  C   UNL     1      -1.735   5.627  -6.166  0.00  0.00    +0.253 C 
ENDBRANCH   4  29
BRANCH   2  31
ATOM     31  N   UNL     1       1.001   5.776  -1.615  0.00  0.00    -0.303 N 
ATOM     32  C   UNL     1       1.639   4.587  -1.057  0.00  0.00    +0.112 C 
BRANCH  31  33
ATOM     33  C   UNL     1       0.896   6.921  -0.731  0.00  0.00    +0.108 C 
BRANCH  33  34
ATOM     34  C   UNL     1      -0.272   6.822   0.213  0.00  0.00    +0.094 C 
BRANCH  34  35
ATOM     35  N   UNL     1      -1.265   7.779  -0.215  0.00  0.00    -0.269 NA
ATOM     36  C   UNL     1      -1.883   8.485   0.880  0.00  0.00    +0.090 C 
ATOM     37  C   UNL     1      -2.220   7.214  -1.132  0.00  0.00    +0.090 C 
ENDBRANCH  34  35
ENDBRANCH  33  34
ENDBRANCH  31  33
ENDBRANCH   2  31
TORSDOF 9
ENDMDL
MODEL 8
REMARK VINA RESULT:      -7.8      1.959      4.358
REMARK  Name = 
REMARK  9 active torsions:
REMARK  status: ('A' for Active; 'I' for Inactive)
REMARK    1  A    between atoms: C_2  and  C_3
REMARK    2  A    between atoms: N_5  and  C_6
REMARK    3  A    between atoms: C_8  and  N_9
REMARK    4  A    between atoms: C_14  and  C_15
REMARK    5  A    between atoms: C_26  and  O_27
REMARK    6  A    between atoms: C_30  and  N_31
REMARK    7  A    between atoms: N_31  and  C_33
REMARK    8  A    between atoms: C_33  and  C_34
REMARK    9  A    between atoms: C_34  and  N_35
REMARK                            x       y       z     vdW  Elec       q    Type
REMARK                         _______ _______ _______ _____ _____    ______ ____
ROOT
ATOM      1  C   UNL     1       2.310   6.425  -3.067  0.00  0.00    +0.088 A 
ATOM      2  C   UNL     1       1.002   6.214  -2.667  0.00  0.00    +0.067 A 
ATOM      3  C   UNL     1       0.113   5.764  -3.634  0.00  0.00    +0.054 A 
ATOM      4  C   UNL     1       0.334   6.126  -4.954  0.00  0.00    +0.155 A 
ATOM      5  C   UNL     1       1.644   6.354  -5.353  0.00  0.00    +0.109 A 
ATOM      6  C   UNL     1       2.486   6.865  -4.372  0.00  0.00    +0.038 A 
ENDROOT
BRANCH   5   7
ATOM      7  N   UNL     1       1.813   6.905  -6.664  0.00  0.00    -0.175 NA
ATOM      8  C   UNL     1       2.203   6.018  -7.719  0.00  0.00    +0.241 A 
ATOM      9  N   UNL     1       2.512   6.523  -8.937  0.00  0.00    -0.212 NA
ATOM     10  C   UNL     1       3.171   5.764  -9.844  0.00  0.00    +0.087 A 
ATOM     11  C   UNL     1       3.799   4.619  -9.389  0.00  0.00    +0.040 A 
ATOM     12  C   UNL     1       3.277   3.980  -8.270  0.00  0.00    +0.103 A 
ATOM     13  N   UNL     1       2.519   4.726  -7.459  0.00  0.00    -0.211 NA
BRANCH  10  14
ATOM     14  C   UNL     1       2.993   6.059 -11.264  0.00  0.00    +0.036 A 
ATOM     15  C   UNL     1       1.817   6.376 -11.916  0.00  0.00    +0.019 A 
ATOM     16  C   UNL     1       2.186   6.595 -13.228  0.00  0.00    +0.060 A 
ATOM     17  C   UNL     1       1.182   6.931 -14.128  0.00  0.00    +0.017 A 
ATOM     18  C   UNL     1       0.128   7.669 -13.605  0.00  0.00    +0.001 A 
ATOM     19  C   UNL     1      -0.245   7.454 -12.286  0.00  0.00    +0.000 A 
ATOM     20  N   UNL     1       3.404   6.035 -13.388  0.00  0.00    -0.324 N 
ATOM     21  C   UNL     1       4.075   5.815 -14.644  0.00  0.00    +0.130 C 
ATOM     22  C   UNL     1       0.576   6.742 -11.427  0.00  0.00    +0.002 A 
ATOM     23  C   UNL     1       4.025   6.008 -12.185  0.00  0.00    +0.077 A 
ENDBRANCH  10  14
ENDBRANCH   5   7
BRANCH   1  25
ATOM     24  C   UNL     1       4.063   7.238  -1.494  0.00  0.00    +0.269 C 
ATOM     25  N   UNL     1       3.420   6.172  -2.199  0.00  0.00    -0.174 NA
ATOM     26  O   UNL     1       3.888   8.418  -1.923  0.00  0.00    -0.268 OA
BRANCH  24  28
ATOM     27  C   UNL     1       4.146   8.128   0.699  0.00  0.00    +0.005 C 
ATOM     28  C   UNL     1       4.467   7.108  -0.092  0.00  0.00    +0.060 C 
ENDBRANCH  24  28
ENDBRANCH   1  25
BRANCH   4  29
ATOM     29  O   UNL     1      -0.575   5.800  -5.966  0.00  0.00    -0.470 OA
ATOM     30  C   UNL     1      -1.923   6.208  -5.746  0.00  0.00    +0.253 C 
ENDBRANCH   4  29
BRANCH   2  31
ATOM     31  N   UNL     1       0.779   5.780  -1.320  0.00  0.00    -0.303 N 
ATOM     32  C   UNL     1       1.435   4.560  -0.857  0.00  0.00    +0.112 C 
BRANCH  31  33
ATOM     33  C   UNL     1       0.583   6.819  -0.327  0.00  0.00    +0.108 C 
BRANCH  33  34
ATOM     34  C   UNL     1      -0.835   7.322  -0.284  0.00  0.00    +0.094 C 
BRANCH  34  35
ATOM     35  N   UNL     1      -0.823   8.614   0.360  0.00  0.00    -0.269 NA
ATOM     36  C   UNL     1       0.452   8.947   0.945  0.00  0.00    +0.090 C 
ATOM     37  C   UNL     1      -1.924   8.789   1.271  0.00  0.00    +0.090 C 
ENDBRANCH  34  35
ENDBRANCH  33  34
ENDBRANCH  31  33
ENDBRANCH   2  31
TORSDOF 9
ENDMDL
MODEL 9
REMARK VINA RESULT:      -7.6      1.551      2.089
REMARK  Name = 
REMARK  9 active torsions:
REMARK  status: ('A' for Active; 'I' for Inactive)
REMARK    1  A    between atoms: C_2  and  C_3
REMARK    2  A    between atoms: N_5  and  C_6
REMARK    3  A    between atoms: C_8  and  N_9
REMARK    4  A    between atoms: C_14  and  C_15
REMARK    5  A    between atoms: C_26  and  O_27
REMARK    6  A    between atoms: C_30  and  N_31
REMARK    7  A    between atoms: N_31  and  C_33
REMARK    8  A    between atoms: C_33  and  C_34
REMARK    9  A    between atoms: C_34  and  N_35
REMARK                            x       y       z     vdW  Elec       q    Type
REMARK                         _______ _______ _______ _____ _____    ______ ____
ROOT
ATOM      1  C   UNL     1       1.117   5.869  -3.728  0.00  0.00    +0.088 A 
ATOM      2  C   UNL     1       2.026   6.241  -2.752  0.00  0.00    +0.067 A 
ATOM      3  C   UNL     1       3.049   7.096  -3.140  0.00  0.00    +0.054 A 
ATOM      4  C   UNL     1       3.495   7.042  -4.451  0.00  0.00    +0.155 A 
ATOM      5  C   UNL     1       2.589   6.652  -5.428  0.00  0.00    +0.109 A 
ATOM      6  C   UNL     1       1.619   5.746  -5.016  0.00  0.00    +0.038 A 
ENDROOT
BRANCH   5   7
ATOM      7  N   UNL     1       3.133   6.428  -6.734  0.00  0.00    -0.175 NA
ATOM      8  C   UNL     1       2.218   6.277  -7.825  0.00  0.00    +0.241 A 
ATOM      9  N   UNL     1       2.685   5.921  -9.046  0.00  0.00    -0.212 NA
ATOM     10  C   UNL     1       1.835   5.475 -10.000  0.00  0.00    +0.087 A 
ATOM     11  C   UNL     1       0.571   5.082  -9.600  0.00  0.00    +0.040 A 
ATOM     12  C   UNL     1       0.019   5.678  -8.472  0.00  0.00    +0.103 A 
ATOM     13  N   UNL     1       0.881   6.228  -7.609  0.00  0.00    -0.211 NA
BRANCH  10  14
ATOM     14  C   UNL     1       2.205   5.648 -11.402  0.00  0.00    +0.036 A 
ATOM     15  C   UNL     1       3.477   5.779 -11.927  0.00  0.00    +0.019 A 
ATOM     16  C   UNL     1       3.290   5.881 -13.291  0.00  0.00    +0.060 A 
ATOM     17  C   UNL     1       4.421   6.032 -14.083  0.00  0.00    +0.017 A 
ATOM     18  C   UNL     1       5.568   5.401 -13.618  0.00  0.00    +0.001 A 
ATOM     19  C   UNL     1       5.760   5.295 -12.248  0.00  0.00    +0.000 A 
ATOM     20  N   UNL     1       1.993   6.206 -13.483  0.00  0.00    -0.324 N 
ATOM     21  C   UNL     1       1.405   6.641 -14.723  0.00  0.00    +0.130 C 
ATOM     22  C   UNL     1       4.720   5.545 -11.368  0.00  0.00    +0.002 A 
ATOM     23  C   UNL     1       1.277   5.755 -12.424  0.00  0.00    +0.077 A 
ENDBRANCH  10  14
ENDBRANCH   5   7
BRANCH   1  25
ATOM     24  C   UNL     1      -1.283   6.463  -4.038  0.00  0.00    +0.269 C 
ATOM     25  N   UNL     1      -0.269   5.657  -3.433  0.00  0.00    -0.174 NA
ATOM     26  O   UNL     1      -0.934   7.577  -4.532  0.00  0.00    -0.268 OA
BRANCH  24  28
ATOM     27  C   UNL     1      -3.263   5.220  -3.660  0.00  0.00    +0.005 C 
ATOM     28  C   UNL     1      -2.530   5.887  -4.548  0.00  0.00    +0.060 C 
ENDBRANCH  24  28
ENDBRANCH   1  25
BRANCH   4  29
ATOM     29  O   UNL     1       4.590   7.795  -4.885  0.00  0.00    -0.470 OA
ATOM     30  C   UNL     1       5.812   7.579  -4.184  0.00  0.00    +0.253 C 
ENDBRANCH   4  29
BRANCH   2  31
ATOM     31  N   UNL     1       1.550   6.358  -1.407  0.00  0.00    -0.303 N 
ATOM     32  C   UNL     1       0.881   5.213  -0.795  0.00  0.00    +0.112 C 
BRANCH  31  33
ATOM     33  C   UNL     1       2.327   7.198  -0.515  0.00  0.00    +0.108 C 
BRANCH  33  34
ATOM     34  C   UNL     1       1.467   8.088   0.341  0.00  0.00    +0.094 C 
BRANCH  34  35
ATOM     35  N   UNL     1       1.520   7.584   1.693  0.00  0.00    -0.269 NA
ATOM     36  C   UNL     1       0.217   7.324   2.254  0.00  0.00    +0.090 C 
ATOM     37  C   UNL     1       2.354   8.384   2.551  0.00  0.00    +0.090 C 
ENDBRANCH  34  35
ENDBRANCH  33  34
ENDBRANCH  31  33
ENDBRANCH   2  31
TORSDOF 9
ENDMDL
