MODEL 1
REMARK VINA RESULT:      -4.9      0.000      0.000
REMARK  Name = 
REMARK  5 active torsions:
REMARK  status: ('A' for Active; 'I' for Inactive)
REMARK    1  A    between atoms: P_2  and  N_3
REMARK    2  A    between atoms: N_3  and  C_4
REMARK    3  A    between atoms: N_3  and  C_7
REMARK    4  A    between atoms: C_4  and  C_5
REMARK    5  A    between atoms: C_7  and  C_8
REMARK                            x       y       z     vdW  Elec       q    Type
REMARK                         _______ _______ _______ _____ _____    ______ ____
ROOT
ATOM      1  O   UNL     1       3.026   7.495  -6.631  0.00  0.00    -0.253 OA
ATOM      2  P   UNL     1       2.646   6.309  -5.832  0.00  0.00    +0.365 P 
ATOM      3  O   UNL     1       1.925   6.793  -4.366  0.00  0.00    -0.291 OA
ATOM      4  C   UNL     1       2.920   7.164  -3.464  0.00  0.00    +0.153 C 
ATOM      5  C   UNL     1       4.199   7.549  -4.170  0.00  0.00    +0.052 C 
ATOM      6  C   UNL     1       4.955   6.277  -4.519  0.00  0.00    +0.102 C 
ATOM      7  N   UNL     1       4.123   5.457  -5.379  0.00  0.00    -0.133 NA
ENDROOT
BRANCH   2   8
ATOM      8  N   UNL     1       1.667   5.167  -6.678  0.00  0.00    -0.195 NA
BRANCH   8   9
ATOM      9  C   UNL     1       0.365   4.994  -6.095  0.00  0.00    +0.099 C 
BRANCH   9  10
ATOM     10  C   UNL     1      -0.682   5.409  -7.086  0.00  0.00    +0.113 C 
ATOM     11 CL   UNL     1      -2.317   5.428  -6.367  0.00  0.00    -0.112 Cl
ENDBRANCH   9  10
ENDBRANCH   8   9
BRANCH   8  12
ATOM     12  C   UNL     1       2.318   3.974  -7.085  0.00  0.00    +0.099 C 
BRANCH  12  13
ATOM     13  C   UNL     1       2.581   3.857  -8.555  0.00  0.00    +0.113 C 
ATOM     14 CL   UNL     1       4.220   4.507  -8.852  0.00  0.00    -0.112 Cl
ENDBRANCH  12  13
ENDBRANCH   8  12
ENDBRANCH   2   8
TORSDOF 5
ENDMDL
MODEL 2
REMARK VINA RESULT:      -4.9      2.910      4.381
REMARK  Name = 
REMARK  5 active torsions:
REMARK  status: ('A' for Active; 'I' for Inactive)
REMARK    1  A    between atoms: P_2  and  N_3
REMARK    2  A    between atoms: N_3  and  C_4
REMARK    3  A    between atoms: N_3  and  C_7
REMARK    4  A    between atoms: C_4  and  C_5
REMARK    5  A    between atoms: C_7  and  C_8
REMARK                            x       y       z     vdW  Elec       q    Type
REMARK                         _______ _______ _______ _____ _____    ______ ____
ROOT
ATOM      1  O   UNL     1       1.424   6.834  -7.478  0.00  0.00    -0.253 OA
ATOM      2  P   UNL     1       0.945   5.448  -7.669  0.00  0.00    +0.365 P 
ATOM      3  O   UNL     1      -0.756   5.419  -7.753  0.00  0.00    -0.291 OA
ATOM      4  C   UNL     1      -1.283   5.495  -6.465  0.00  0.00    +0.153 C 
ATOM      5  C   UNL     1      -0.301   6.109  -5.495  0.00  0.00    +0.052 C 
ATOM      6  C   UNL     1       0.678   5.032  -5.058  0.00  0.00    +0.102 C 
ATOM      7  N   UNL     1       1.367   4.519  -6.228  0.00  0.00    -0.133 NA
ENDROOT
BRANCH   2   8
ATOM      8  N   UNL     1       1.664   4.624  -9.004  0.00  0.00    -0.195 NA
BRANCH   8   9
ATOM      9  C   UNL     1       2.804   3.831  -8.634  0.00  0.00    +0.099 C 
BRANCH   9  10
ATOM     10  C   UNL     1       4.057   4.522  -9.085  0.00  0.00    +0.113 C 
ATOM     11 CL   UNL     1       4.871   5.376  -7.744  0.00  0.00    -0.112 Cl
ENDBRANCH   9  10
ENDBRANCH   8   9
BRANCH   8  12
ATOM     12  C   UNL     1       1.808   5.382 -10.194  0.00  0.00    +0.099 C 
BRANCH  12  13
ATOM     13  C   UNL     1       0.620   5.373 -11.107  0.00  0.00    +0.113 C 
ATOM     14 CL   UNL     1      -0.114   7.002 -11.036  0.00  0.00    -0.112 Cl
ENDBRANCH  12  13
ENDBRANCH   8  12
ENDBRANCH   2   8
TORSDOF 5
ENDMDL
MODEL 3
REMARK VINA RESULT:      -4.8      4.466      5.502
REMARK  Name = 
REMARK  5 active torsions:
REMARK  status: ('A' for Active; 'I' for Inactive)
REMARK    1  A    between atoms: P_2  and  N_3
REMARK    2  A    between atoms: N_3  and  C_4
REMARK    3  A    between atoms: N_3  and  C_7
REMARK    4  A    between atoms: C_4  and  C_5
REMARK    5  A    between atoms: C_7  and  C_8
REMARK                            x       y       z     vdW  Elec       q    Type
REMARK                         _______ _______ _______ _____ _____    ______ ____
ROOT
ATOM      1  O   UNL     1       4.898   7.463 -10.590  0.00  0.00    -0.253 OA
ATOM      2  P   UNL     1       5.077   6.004 -10.425  0.00  0.00    +0.365 P 
ATOM      3  O   UNL     1       6.295   5.687  -9.277  0.00  0.00    -0.291 OA
ATOM      4  C   UNL     1       7.544   5.839  -9.876  0.00  0.00    +0.153 C 
ATOM      5  C   UNL     1       7.473   6.725 -11.097  0.00  0.00    +0.052 C 
ATOM      6  C   UNL     1       6.986   5.886 -12.268  0.00  0.00    +0.102 C 
ATOM      7  N   UNL     1       5.677   5.349 -11.949  0.00  0.00    -0.133 NA
ENDROOT
BRANCH   2   8
ATOM      8  N   UNL     1       3.623   5.146 -10.067  0.00  0.00    -0.195 NA
BRANCH   8   9
ATOM      9  C   UNL     1       2.448   5.972 -10.121  0.00  0.00    +0.099 C 
BRANCH   9  10
ATOM     10  C   UNL     1       1.606   5.560 -11.293  0.00  0.00    +0.113 C 
ATOM     11 CL   UNL     1       0.241   4.518 -10.804  0.00  0.00    -0.112 Cl
ENDBRANCH   9  10
ENDBRANCH   8   9
BRANCH   8  12
ATOM     12  C   UNL     1       3.688   4.248  -8.970  0.00  0.00    +0.099 C 
BRANCH  12  13
ATOM     13  C   UNL     1       2.928   4.671  -7.750  0.00  0.00    +0.113 C 
ATOM     14 CL   UNL     1       4.065   5.574  -6.707  0.00  0.00    -0.112 Cl
ENDBRANCH  12  13
ENDBRANCH   8  12
ENDBRANCH   2   8
TORSDOF 5
ENDMDL
MODEL 4
REMARK VINA RESULT:      -4.8      2.543      3.054
REMARK  Name = 
REMARK  5 active torsions:
REMARK  status: ('A' for Active; 'I' for Inactive)
REMARK    1  A    between atoms: P_2  and  N_3
REMARK    2  A    between atoms: N_3  and  C_4
REMARK    3  A    between atoms: N_3  and  C_7
REMARK    4  A    between atoms: C_4  and  C_5
REMARK    5  A    between atoms: C_7  and  C_8
REMARK                            x       y       z     vdW  Elec       q    Type
REMARK                         _______ _______ _______ _____ _____    ______ ____
ROOT
ATOM      1  O   UNL     1       3.201   7.341  -5.837  0.00  0.00    -0.253 OA
ATOM      2  P   UNL     1       2.699   6.783  -4.564  0.00  0.00    +0.365 P 
ATOM      3  O   UNL     1       3.225   7.736  -3.254  0.00  0.00    -0.291 OA
ATOM      4  C   UNL     1       4.546   7.413  -2.951  0.00  0.00    +0.153 C 
ATOM      5  C   UNL     1       5.253   6.787  -4.129  0.00  0.00    +0.052 C 
ATOM      6  C   UNL     1       4.880   5.314  -4.183  0.00  0.00    +0.102 C 
ATOM      7  N   UNL     1       3.441   5.199  -4.329  0.00  0.00    -0.133 NA
ENDROOT
BRANCH   2   8
ATOM      8  N   UNL     1       0.992   6.529  -4.524  0.00  0.00    -0.195 NA
BRANCH   8   9
ATOM      9  C   UNL     1       0.609   5.359  -3.782  0.00  0.00    +0.099 C 
BRANCH   9  10
ATOM     10  C   UNL     1      -0.325   5.756  -2.677  0.00  0.00    +0.113 C 
ATOM     11 CL   UNL     1      -2.005   5.249  -3.006  0.00  0.00    -0.112 Cl
ENDBRANCH   9  10
ENDBRANCH   8   9
BRANCH   8  12
ATOM     12  C   UNL     1       0.308   6.726  -5.751  0.00  0.00    +0.099 C 
BRANCH  12  13
ATOM     13  C   UNL     1      -0.199   5.479  -6.409  0.00  0.00    +0.113 C 
ATOM     14 CL   UNL     1      -1.974   5.640  -6.550  0.00  0.00    -0.112 Cl
ENDBRANCH  12  13
ENDBRANCH   8  12
ENDBRANCH   2   8
TORSDOF 5
ENDMDL
MODEL 5
REMARK VINA RESULT:      -4.8      4.381      5.477
REMARK  Name = 
REMARK  5 active torsions:
REMARK  status: ('A' for Active; 'I' for Inactive)
REMARK    1  A    between atoms: P_2  and  N_3
REMARK    2  A    between atoms: N_3  and  C_4
REMARK    3  A    between atoms: N_3  and  C_7
REMARK    4  A    between atoms: C_4  and  C_5
REMARK    5  A    between atoms: C_7  and  C_8
REMARK                            x       y       z     vdW  Elec       q    Type
REMARK                         _______ _______ _______ _____ _____    ______ ____
ROOT
ATOM      1  O   UNL     1       4.998   5.210 -11.636  0.00  0.00    -0.253 OA
ATOM      2  P   UNL     1       4.928   6.129 -10.480  0.00  0.00    +0.365 P 
ATOM      3  O   UNL     1       5.326   7.714 -10.963  0.00  0.00    -0.291 OA
ATOM      4  C   UNL     1       6.711   7.833 -11.058  0.00  0.00    +0.153 C 
ATOM      5  C   UNL     1       7.375   6.490 -11.254  0.00  0.00    +0.052 C 
ATOM      6  C   UNL     1       7.501   5.817  -9.897  0.00  0.00    +0.102 C 
ATOM      7  N   UNL     1       6.177   5.655  -9.327  0.00  0.00    -0.133 NA
ENDROOT
BRANCH   2   8
ATOM      8  N   UNL     1       3.432   6.080  -9.622  0.00  0.00    -0.195 NA
BRANCH   8   9
ATOM      9  C   UNL     1       3.548   5.499  -8.312  0.00  0.00    +0.099 C 
BRANCH   9  10
ATOM     10  C   UNL     1       2.989   4.107  -8.336  0.00  0.00    +0.113 C 
ATOM     11 CL   UNL     1       2.168   3.687  -6.807  0.00  0.00    -0.112 Cl
ENDBRANCH   9  10
ENDBRANCH   8   9
BRANCH   8  12
ATOM     12  C   UNL     1       2.300   5.672 -10.373  0.00  0.00    +0.099 C 
BRANCH  12  13
ATOM     13  C   UNL     1       1.093   6.549 -10.241  0.00  0.00    +0.113 C 
ATOM     14 CL   UNL     1      -0.052   5.712  -9.152  0.00  0.00    -0.112 Cl
ENDBRANCH  12  13
ENDBRANCH   8  12
ENDBRANCH   2   8
TORSDOF 5
ENDMDL
MODEL 6
REMARK VINA RESULT:      -4.8      0.474      3.189
REMARK  Name = 
REMARK  5 active torsions:
REMARK  status: ('A' for Active; 'I' for Inactive)
REMARK    1  A    between atoms: P_2  and  N_3
REMARK    2  A    between atoms: N_3  and  C_4
REMARK    3  A    between atoms: N_3  and  C_7
REMARK    4  A    between atoms: C_4  and  C_5
REMARK    5  A    between atoms: C_7  and  C_8
REMARK                            x       y       z     vdW  Elec       q    Type
REMARK                         _______ _______ _______ _____ _____    ______ ____
ROOT
ATOM      1  O   UNL     1       3.061   7.426  -6.663  0.00  0.00    -0.253 OA
ATOM      2  P   UNL     1       2.622   6.275  -5.844  0.00  0.00    +0.365 P 
ATOM      3  O   UNL     1       1.902   6.820  -4.399  0.00  0.00    -0.291 OA
ATOM      4  C   UNL     1       2.900   7.170  -3.492  0.00  0.00    +0.153 C 
ATOM      5  C   UNL     1       4.202   7.487  -4.187  0.00  0.00    +0.052 C 
ATOM      6  C   UNL     1       4.910   6.178  -4.498  0.00  0.00    +0.102 C 
ATOM      7  N   UNL     1       4.057   5.373  -5.352  0.00  0.00    -0.133 NA
ENDROOT
BRANCH   2   8
ATOM      8  N   UNL     1       1.609   5.155  -6.679  0.00  0.00    -0.195 NA
BRANCH   8   9
ATOM      9  C   UNL     1       1.737   5.230  -8.109  0.00  0.00    +0.099 C 
BRANCH   9  10
ATOM     10  C   UNL     1       2.516   4.044  -8.600  0.00  0.00    +0.113 C 
ATOM     11 CL   UNL     1       4.230   4.446  -8.898  0.00  0.00    -0.112 Cl
ENDBRANCH   9  10
ENDBRANCH   8   9
BRANCH   8  12
ATOM     12  C   UNL     1       0.282   5.036  -6.190  0.00  0.00    +0.099 C 
BRANCH  12  13
ATOM     13  C   UNL     1      -0.797   5.338  -7.185  0.00  0.00    +0.113 C 
ATOM     14 CL   UNL     1      -2.233   5.869  -6.261  0.00  0.00    -0.112 Cl
ENDBRANCH  12  13
ENDBRANCH   8  12
ENDBRANCH   2   8
TORSDOF 5
ENDMDL
MODEL 7
REMARK VINA RESULT:      -4.8      2.748      4.696
REMARK  Name = 
REMARK  5 active torsions:
REMARK  status: ('A' for Active; 'I' for Inactive)
REMARK    1  A    between atoms: P_2  and  N_3
REMARK    2  A    between atoms: N_3  and  C_4
REMARK    3  A    between atoms: N_3  and  C_7
REMARK    4  A    between atoms: C_4  and  C_5
REMARK    5  A    between atoms: C_7  and  C_8
REMARK                            x       y       z     vdW  Elec       q    Type
REMARK                         _______ _______ _______ _____ _____    ______ ____
ROOT
ATOM      1  O   UNL     1      -0.004   7.369  -5.318  0.00  0.00    -0.253 OA
ATOM      2  P   UNL     1      -0.107   5.895  -5.260  0.00  0.00    +0.365 P 
ATOM      3  O   UNL     1      -0.986   5.313  -6.598  0.00  0.00    -0.291 OA
ATOM      4  C   UNL     1      -2.349   5.484  -6.365  0.00  0.00    +0.153 C 
ATOM      5  C   UNL     1      -2.609   6.565  -5.342  0.00  0.00    +0.052 C 
ATOM      6  C   UNL     1      -2.422   5.968  -3.957  0.00  0.00    +0.102 C 
ATOM      7  N   UNL     1      -1.064   5.468  -3.840  0.00  0.00    -0.133 NA
ENDROOT
BRANCH   2   8
ATOM      8  N   UNL     1       1.405   5.082  -5.087  0.00  0.00    -0.195 NA
BRANCH   8   9
ATOM      9  C   UNL     1       2.455   5.935  -4.601  0.00  0.00    +0.099 C 
BRANCH   9  10
ATOM     10  C   UNL     1       3.287   5.180  -3.606  0.00  0.00    +0.113 C 
ATOM     11 CL   UNL     1       4.916   4.811  -4.237  0.00  0.00    -0.112 Cl
ENDBRANCH   9  10
ENDBRANCH   8   9
BRANCH   8  12
ATOM     12  C   UNL     1       1.766   4.213  -6.149  0.00  0.00    +0.099 C 
BRANCH  12  13
ATOM     13  C   UNL     1       2.460   4.867  -7.304  0.00  0.00    +0.113 C 
ATOM     14 CL   UNL     1       2.705   3.610  -8.553  0.00  0.00    -0.112 Cl
ENDBRANCH  12  13
ENDBRANCH   8  12
ENDBRANCH   2   8
TORSDOF 5
ENDMDL
MODEL 8
REMARK VINA RESULT:      -4.7      2.915      3.742
REMARK  Name = 
REMARK  5 active torsions:
REMARK  status: ('A' for Active; 'I' for Inactive)
REMARK    1  A    between atoms: P_2  and  N_3
REMARK    2  A    between atoms: N_3  and  C_4
REMARK    3  A    between atoms: N_3  and  C_7
REMARK    4  A    between atoms: C_4  and  C_5
REMARK    5  A    between atoms: C_7  and  C_8
REMARK                            x       y       z     vdW  Elec       q    Type
REMARK                         _______ _______ _______ _____ _____    ______ ____
ROOT
ATOM      1  O   UNL     1       1.356   7.015  -7.294  0.00  0.00    -0.253 OA
ATOM      2  P   UNL     1       0.989   5.628  -7.649  0.00  0.00    +0.365 P 
ATOM      3  O   UNL     1      -0.700   5.491  -7.821  0.00  0.00    -0.291 OA
ATOM      4  C   UNL     1      -1.286   5.394  -6.560  0.00  0.00    +0.153 C 
ATOM      5  C   UNL     1      -0.394   5.968  -5.485  0.00  0.00    +0.052 C 
ATOM      6  C   UNL     1       0.642   4.920  -5.112  0.00  0.00    +0.102 C 
ATOM      7  N   UNL     1       1.416   4.583  -6.292  0.00  0.00    -0.133 NA
ENDROOT
BRANCH   2   8
ATOM      8  N   UNL     1       1.823   5.002  -9.024  0.00  0.00    -0.195 NA
BRANCH   8   9
ATOM      9  C   UNL     1       0.951   4.689 -10.123  0.00  0.00    +0.099 C 
BRANCH   9  10
ATOM     10  C   UNL     1       1.083   5.749 -11.178  0.00  0.00    +0.113 C 
ATOM     11 CL   UNL     1      -0.209   6.977 -11.060  0.00  0.00    -0.112 Cl
ENDBRANCH   9  10
ENDBRANCH   8   9
BRANCH   8  12
ATOM     12  C   UNL     1       2.832   4.042  -8.753  0.00  0.00    +0.099 C 
BRANCH  12  13
ATOM     13  C   UNL     1       4.231   4.478  -9.063  0.00  0.00    +0.113 C 
ATOM     14 CL   UNL     1       4.828   5.387  -7.644  0.00  0.00    -0.112 Cl
ENDBRANCH  12  13
ENDBRANCH   8  12
ENDBRANCH   2   8
TORSDOF 5
ENDMDL
MODEL 9
REMARK VINA RESULT:      -4.7      2.412      4.630
REMARK  Name = 
REMARK  5 active torsions:
REMARK  status: ('A' for Active; 'I' for Inactive)
REMARK    1  A    between atoms: P_2  and  N_3
REMARK    2  A    between atoms: N_3  and  C_4
REMARK    3  A    between atoms: N_3  and  C_7
REMARK    4  A    between atoms: C_4  and  C_5
REMARK    5  A    between atoms: C_7  and  C_8
REMARK                            x       y       z     vdW  Elec       q    Type
REMARK                         _______ _______ _______ _____ _____    ______ ____
ROOT
ATOM      1  O   UNL     1       2.134   8.254  -7.675  0.00  0.00    -0.253 OA
ATOM      2  P   UNL     1       2.182   6.846  -7.229  0.00  0.00    +0.365 P 
ATOM      3  O   UNL     1       3.774   6.248  -7.336  0.00  0.00    -0.291 OA
ATOM      4  C   UNL     1       4.049   5.907  -8.659  0.00  0.00    +0.153 C 
ATOM      5  C   UNL     1       3.148   6.639  -9.624  0.00  0.00    +0.052 C 
ATOM      6  C   UNL     1       1.817   5.905  -9.686  0.00  0.00    +0.102 C 
ATOM      7  N   UNL     1       1.232   5.879  -8.359  0.00  0.00    -0.133 NA
ENDROOT
BRANCH   2   8
ATOM      8  N   UNL     1       1.502   6.572  -5.666  0.00  0.00    -0.195 NA
BRANCH   8   9
ATOM      9  C   UNL     1       1.933   5.338  -5.068  0.00  0.00    +0.099 C 
BRANCH   9  10
ATOM     10  C   UNL     1       2.919   5.634  -3.976  0.00  0.00    +0.113 C 
ATOM     11 CL   UNL     1       4.455   4.752  -4.203  0.00  0.00    -0.112 Cl
ENDBRANCH   9  10
ENDBRANCH   8   9
BRANCH   8  12
ATOM     12  C   UNL     1       0.121   6.867  -5.531  0.00  0.00    +0.099 C 
BRANCH  12  13
ATOM     13  C   UNL     1      -0.760   5.690  -5.244  0.00  0.00    +0.113 C 
ATOM     14 CL   UNL     1      -2.016   5.648  -6.517  0.00  0.00    -0.112 Cl
ENDBRANCH  12  13
ENDBRANCH   8  12
ENDBRANCH   2   8
TORSDOF 5
ENDMDL
