MODEL 1
REMARK VINA RESULT:      -8.4      0.000      0.000
REMARK  Name = 
REMARK  4 active torsions:
REMARK  status: ('A' for Active; 'I' for Inactive)
REMARK    1  A    between atoms: N_4  and  C_5
REMARK    2  A    between atoms: C_5  and  C_6
REMARK    3  A    between atoms: N_8  and  C_9
REMARK    4  A    between atoms: C_12  and  N_13
REMARK                            x       y       z     vdW  Elec       q    Type
REMARK                         _______ _______ _______ _____ _____    ______ ____
ROOT
ATOM      1  C   UNL     1       3.826   5.744  -8.310  0.00  0.00    +0.059 A 
ATOM      2  C   UNL     1       5.077   5.139  -8.301  0.00  0.00    +0.046 A 
ATOM      3  C   UNL     1       6.092   5.572  -9.143  0.00  0.00    +0.155 A 
ATOM      4  F   UNL     1       7.383   5.191  -8.970  0.00  0.00    -0.203 F 
ATOM      5  C   UNL     1       5.702   6.099 -10.367  0.00  0.00    +0.076 A 
ATOM      6  C   UNL     1       4.495   6.782 -10.369  0.00  0.00    +0.018 A 
ATOM      7  C   UNL     1       3.683   6.756  -9.253  0.00  0.00    +0.016 A 
ENDROOT
BRANCH   1  12
ATOM      8  C   UNL     1       1.204   6.117  -6.168  0.00  0.00    +0.212 C 
ATOM      9  O   UNL     1       0.443   5.183  -7.168  0.00  0.00    -0.434 OA
ATOM     10  C   UNL     1       1.408   4.995  -8.151  0.00  0.00    +0.409 C 
ATOM     11  O   UNL     1       1.122   4.843  -9.377  0.00  0.00    -0.226 OA
ATOM     12  N   UNL     1       2.714   5.204  -7.598  0.00  0.00    -0.221 N 
ATOM     13  C   UNL     1       2.520   5.080  -6.156  0.00  0.00    +0.147 C 
BRANCH   8  14
ATOM     14  C   UNL     1       0.519   5.331  -4.855  0.00  0.00    +0.160 C 
BRANCH  14  17
ATOM     15  C   UNL     1      -1.879   8.195  -4.548  0.00  0.00    +0.096 C 
ATOM     16  C   UNL     1      -1.473   6.843  -4.491  0.00  0.00    +0.242 C 
ATOM     17  N   UNL     1      -0.155   6.406  -4.147  0.00  0.00    -0.201 NA
ATOM     18  O   UNL     1      -2.246   5.969  -4.974  0.00  0.00    -0.273 OA
ENDBRANCH  14  17
ENDBRANCH   8  14
ENDBRANCH   1  12
BRANCH   5  19
ATOM     19  N   UNL     1       6.663   6.593 -11.310  0.00  0.00    -0.301 N 
ATOM     20  C   UNL     1       6.151   6.742 -12.671  0.00  0.00    +0.123 C 
ATOM     21  C   UNL     1       6.328   5.409 -13.343  0.00  0.00    +0.164 C 
ATOM     22  O   UNL     1       7.634   4.986 -13.423  0.00  0.00    -0.350 OA
ATOM     23  C   UNL     1       8.517   5.611 -12.582  0.00  0.00    +0.164 C 
ATOM     24  C   UNL     1       7.975   5.953 -11.227  0.00  0.00    +0.123 C 
ENDBRANCH   5  19
TORSDOF 4
ENDMDL
MODEL 2
REMARK VINA RESULT:      -8.4      2.824      9.035
REMARK  Name = 
REMARK  4 active torsions:
REMARK  status: ('A' for Active; 'I' for Inactive)
REMARK    1  A    between atoms: N_4  and  C_5
REMARK    2  A    between atoms: C_5  and  C_6
REMARK    3  A    between atoms: N_8  and  C_9
REMARK    4  A    between atoms: C_12  and  N_13
REMARK                            x       y       z     vdW  Elec       q    Type
REMARK                         _______ _______ _______ _____ _____    ______ ____
ROOT
ATOM      1  C   UNL     1       0.633   5.772  -7.990  0.00  0.00    +0.059 A 
ATOM      2  C   UNL     1      -0.665   5.311  -7.814  0.00  0.00    +0.046 A 
ATOM      3  C   UNL     1      -1.433   5.715  -6.731  0.00  0.00    +0.155 A 
ATOM      4  F   UNL     1      -2.772   5.503  -6.677  0.00  0.00    -0.203 F 
ATOM      5  C   UNL     1      -0.748   6.008  -5.559  0.00  0.00    +0.076 A 
ATOM      6  C   UNL     1       0.517   6.552  -5.722  0.00  0.00    +0.018 A 
ATOM      7  C   UNL     1       1.088   6.609  -6.978  0.00  0.00    +0.016 A 
ENDROOT
BRANCH   1  12
ATOM      8  C   UNL     1       3.402   6.010  -9.961  0.00  0.00    +0.212 C 
ATOM      9  O   UNL     1       3.609   4.501  -9.599  0.00  0.00    -0.434 OA
ATOM     10  C   UNL     1       2.548   4.283  -8.728  0.00  0.00    +0.409 C 
ATOM     11  O   UNL     1       2.614   3.474  -7.753  0.00  0.00    -0.226 OA
ATOM     12  N   UNL     1       1.505   5.232  -8.981  0.00  0.00    -0.221 N 
ATOM     13  C   UNL     1       1.789   5.731 -10.324  0.00  0.00    +0.147 C 
BRANCH   8  14
ATOM     14  C   UNL     1       3.853   5.730 -11.552  0.00  0.00    +0.160 C 
BRANCH  14  17
ATOM     15  C   UNL     1       7.560   5.251 -11.818  0.00  0.00    +0.096 C 
ATOM     16  C   UNL     1       6.252   5.481 -12.302  0.00  0.00    +0.242 C 
ATOM     17  N   UNL     1       5.232   6.180 -11.583  0.00  0.00    -0.201 NA
ATOM     18  O   UNL     1       5.882   4.855 -13.334  0.00  0.00    -0.273 OA
ENDBRANCH  14  17
ENDBRANCH   8  14
ENDBRANCH   1  12
BRANCH   5  19
ATOM     19  N   UNL     1      -1.435   6.452  -4.380  0.00  0.00    -0.301 N 
ATOM     20  C   UNL     1      -0.563   6.724  -3.240  0.00  0.00    +0.123 C 
ATOM     21  C   UNL     1      -0.381   5.418  -2.519  0.00  0.00    +0.164 C 
ATOM     22  O   UNL     1      -1.549   4.871  -2.040  0.00  0.00    -0.350 OA
ATOM     23  C   UNL     1      -2.705   5.357  -2.590  0.00  0.00    +0.164 C 
ATOM     24  C   UNL     1      -2.632   5.679  -4.052  0.00  0.00    +0.123 C 
ENDBRANCH   5  19
TORSDOF 4
ENDMDL
MODEL 3
REMARK VINA RESULT:      -8.2      2.110      2.633
REMARK  Name = 
REMARK  4 active torsions:
REMARK  status: ('A' for Active; 'I' for Inactive)
REMARK    1  A    between atoms: N_4  and  C_5
REMARK    2  A    between atoms: C_5  and  C_6
REMARK    3  A    between atoms: N_8  and  C_9
REMARK    4  A    between atoms: C_12  and  N_13
REMARK                            x       y       z     vdW  Elec       q    Type
REMARK                         _______ _______ _______ _____ _____    ______ ____
ROOT
ATOM      1  C   UNL     1       3.122   6.574  -7.324  0.00  0.00    +0.059 A 
ATOM      2  C   UNL     1       4.113   5.604  -7.231  0.00  0.00    +0.046 A 
ATOM      3  C   UNL     1       4.976   5.352  -8.289  0.00  0.00    +0.155 A 
ATOM      4  F   UNL     1       6.107   4.618  -8.137  0.00  0.00    -0.203 F 
ATOM      5  C   UNL     1       4.470   5.556  -9.565  0.00  0.00    +0.076 A 
ATOM      6  C   UNL     1       3.544   6.581  -9.688  0.00  0.00    +0.018 A 
ATOM      7  C   UNL     1       3.051   7.207  -8.560  0.00  0.00    +0.016 A 
ENDROOT
BRANCH   1  12
ATOM      8  C   UNL     1       0.792   5.234  -5.231  0.00  0.00    +0.212 C 
ATOM      9  O   UNL     1       1.324   6.287  -4.202  0.00  0.00    -0.434 OA
ATOM     10  C   UNL     1       2.349   6.883  -4.929  0.00  0.00    +0.409 C 
ATOM     11  O   UNL     1       3.407   7.328  -4.389  0.00  0.00    -0.226 OA
ATOM     12  N   UNL     1       2.108   6.723  -6.332  0.00  0.00    -0.221 N 
ATOM     13  C   UNL     1       0.684   6.409  -6.421  0.00  0.00    +0.147 C 
BRANCH   8  14
ATOM     14  C   UNL     1      -0.791   5.512  -4.753  0.00  0.00    +0.160 C 
BRANCH  14  17
ATOM     15  C   UNL     1      -2.060   6.328  -1.323  0.00  0.00    +0.096 C 
ATOM     16  C   UNL     1      -1.800   5.499  -2.438  0.00  0.00    +0.242 C 
ATOM     17  N   UNL     1      -0.678   5.643  -3.312  0.00  0.00    -0.201 NA
ATOM     18  O   UNL     1      -2.715   4.717  -2.822  0.00  0.00    -0.273 OA
ENDBRANCH  14  17
ENDBRANCH   8  14
ENDBRANCH   1  12
BRANCH   5  19
ATOM     19  N   UNL     1       5.275   5.344 -10.733  0.00  0.00    -0.301 N 
ATOM     20  C   UNL     1       6.651   5.822 -10.613  0.00  0.00    +0.123 C 
ATOM     21  C   UNL     1       6.636   7.272 -11.010  0.00  0.00    +0.164 C 
ATOM     22  O   UNL     1       6.219   7.498 -12.301  0.00  0.00    -0.350 OA
ATOM     23  C   UNL     1       5.535   6.472 -12.897  0.00  0.00    +0.164 C 
ATOM     24  C   UNL     1       4.621   5.702 -11.991  0.00  0.00    +0.123 C 
ENDBRANCH   5  19
TORSDOF 4
ENDMDL
MODEL 4
REMARK VINA RESULT:      -8.2      3.056      9.197
REMARK  Name = 
REMARK  4 active torsions:
REMARK  status: ('A' for Active; 'I' for Inactive)
REMARK    1  A    between atoms: N_4  and  C_5
REMARK    2  A    between atoms: C_5  and  C_6
REMARK    3  A    between atoms: N_8  and  C_9
REMARK    4  A    between atoms: C_12  and  N_13
REMARK                            x       y       z     vdW  Elec       q    Type
REMARK                         _______ _______ _______ _____ _____    ______ ____
ROOT
ATOM      1  C   UNL     1       1.627   6.581  -5.644  0.00  0.00    +0.059 A 
ATOM      2  C   UNL     1       0.445   5.964  -6.036  0.00  0.00    +0.046 A 
ATOM      3  C   UNL     1      -0.587   5.742  -5.135  0.00  0.00    +0.155 A 
ATOM      4  F   UNL     1      -1.835   5.397  -5.538  0.00  0.00    -0.203 F 
ATOM      5  C   UNL     1      -0.220   5.525  -3.813  0.00  0.00    +0.076 A 
ATOM      6  C   UNL     1       0.909   6.206  -3.383  0.00  0.00    +0.018 A 
ATOM      7  C   UNL     1       1.689   6.895  -4.291  0.00  0.00    +0.016 A 
ENDROOT
BRANCH   1  12
ATOM      8  C   UNL     1       3.608   5.248  -8.073  0.00  0.00    +0.212 C 
ATOM      9  O   UNL     1       3.666   6.712  -8.624  0.00  0.00    -0.434 OA
ATOM     10  C   UNL     1       2.827   7.372  -7.732  0.00  0.00    +0.409 C 
ATOM     11  O   UNL     1       2.103   8.357  -8.068  0.00  0.00    -0.226 OA
ATOM     12  N   UNL     1       2.769   6.651  -6.495  0.00  0.00    -0.221 N 
ATOM     13  C   UNL     1       3.947   5.788  -6.523  0.00  0.00    +0.147 C 
BRANCH   8  14
ATOM     14  C   UNL     1       5.238   5.022  -8.396  0.00  0.00    +0.160 C 
BRANCH  14  17
ATOM     15  C   UNL     1       6.926   7.310 -10.837  0.00  0.00    +0.096 C 
ATOM     16  C   UNL     1       6.684   6.086 -10.174  0.00  0.00    +0.242 C 
ATOM     17  N   UNL     1       5.406   5.667  -9.686  0.00  0.00    -0.201 NA
ATOM     18  O   UNL     1       7.679   5.409  -9.793  0.00  0.00    -0.273 OA
ENDBRANCH  14  17
ENDBRANCH   8  14
ENDBRANCH   1  12
BRANCH   5  19
ATOM     19  N   UNL     1      -1.201   5.302  -2.790  0.00  0.00    -0.301 N 
ATOM     20  C   UNL     1      -2.461   6.012  -2.998  0.00  0.00    +0.123 C 
ATOM     21  C   UNL     1      -2.288   7.377  -2.392  0.00  0.00    +0.164 C 
ATOM     22  O   UNL     1      -2.024   7.365  -1.042  0.00  0.00    -0.350 OA
ATOM     23  C   UNL     1      -1.588   6.172  -0.529  0.00  0.00    +0.164 C 
ATOM     24  C   UNL     1      -0.681   5.384  -1.426  0.00  0.00    +0.123 C 
ENDBRANCH   5  19
TORSDOF 4
ENDMDL
MODEL 5
REMARK VINA RESULT:      -8.1      3.371      8.960
REMARK  Name = 
REMARK  4 active torsions:
REMARK  status: ('A' for Active; 'I' for Inactive)
REMARK    1  A    between atoms: N_4  and  C_5
REMARK    2  A    between atoms: C_5  and  C_6
REMARK    3  A    between atoms: N_8  and  C_9
REMARK    4  A    between atoms: C_12  and  N_13
REMARK                            x       y       z     vdW  Elec       q    Type
REMARK                         _______ _______ _______ _____ _____    ______ ____
ROOT
ATOM      1  C   UNL     1       0.215   5.436  -7.424  0.00  0.00    +0.059 A 
ATOM      2  C   UNL     1       0.971   6.250  -6.589  0.00  0.00    +0.046 A 
ATOM      3  C   UNL     1       0.516   6.610  -5.328  0.00  0.00    +0.155 A 
ATOM      4  F   UNL     1       1.333   7.168  -4.399  0.00  0.00    -0.203 F 
ATOM      5  C   UNL     1      -0.859   6.723  -5.173  0.00  0.00    +0.076 A 
ATOM      6  C   UNL     1      -1.623   5.853  -5.936  0.00  0.00    +0.018 A 
ATOM      7  C   UNL     1      -1.023   5.074  -6.905  0.00  0.00    +0.016 A 
ENDROOT
BRANCH   1  12
ATOM      8  C   UNL     1       1.513   6.521 -10.380  0.00  0.00    +0.212 C 
ATOM      9  O   UNL     1       2.182   5.106 -10.437  0.00  0.00    -0.434 OA
ATOM     10  C   UNL     1       1.769   4.561  -9.226  0.00  0.00    +0.409 C 
ATOM     11  O   UNL     1       2.478   3.748  -8.560  0.00  0.00    -0.226 OA
ATOM     12  N   UNL     1       0.567   5.206  -8.786  0.00  0.00    -0.221 N 
ATOM     13  C   UNL     1       0.033   5.837  -9.991  0.00  0.00    +0.147 C 
BRANCH   8  14
ATOM     14  C   UNL     1       1.158   6.460 -12.018  0.00  0.00    +0.160 C 
BRANCH  14  17
ATOM     15  C   UNL     1       4.213   5.066 -13.683  0.00  0.00    +0.096 C 
ATOM     16  C   UNL     1       2.913   5.619 -13.629  0.00  0.00    +0.242 C 
ATOM     17  N   UNL     1       2.468   6.550 -12.638  0.00  0.00    -0.201 NA
ATOM     18  O   UNL     1       2.021   5.110 -14.362  0.00  0.00    -0.273 OA
ENDBRANCH  14  17
ENDBRANCH   8  14
ENDBRANCH   1  12
BRANCH   5  19
ATOM     19  N   UNL     1      -1.444   7.072  -3.910  0.00  0.00    -0.301 N 
ATOM     20  C   UNL     1      -0.732   6.544  -2.748  0.00  0.00    +0.123 C 
ATOM     21  C   UNL     1      -1.275   5.164  -2.504  0.00  0.00    +0.164 C 
ATOM     22  O   UNL     1      -2.622   5.129  -2.229  0.00  0.00    -0.350 OA
ATOM     23  C   UNL     1      -3.333   6.246  -2.579  0.00  0.00    +0.164 C 
ATOM     24  C   UNL     1      -2.896   6.908  -3.852  0.00  0.00    +0.123 C 
ENDBRANCH   5  19
TORSDOF 4
ENDMDL
MODEL 6
REMARK VINA RESULT:      -8.0      4.105      4.986
REMARK  Name = 
REMARK  4 active torsions:
REMARK  status: ('A' for Active; 'I' for Inactive)
REMARK    1  A    between atoms: N_4  and  C_5
REMARK    2  A    between atoms: C_5  and  C_6
REMARK    3  A    between atoms: N_8  and  C_9
REMARK    4  A    between atoms: C_12  and  N_13
REMARK                            x       y       z     vdW  Elec       q    Type
REMARK                         _______ _______ _______ _____ _____    ______ ____
ROOT
ATOM      1  C   UNL     1       1.952   5.650  -9.071  0.00  0.00    +0.059 A 
ATOM      2  C   UNL     1       0.713   5.164  -9.469  0.00  0.00    +0.046 A 
ATOM      3  C   UNL     1       0.387   5.034 -10.813  0.00  0.00    +0.155 A 
ATOM      4  F   UNL     1      -0.689   4.320 -11.228  0.00  0.00    -0.203 F 
ATOM      5  C   UNL     1       0.970   5.945 -11.683  0.00  0.00    +0.076 A 
ATOM      6  C   UNL     1       2.245   6.372 -11.342  0.00  0.00    +0.018 A 
ATOM      7  C   UNL     1       2.784   6.030 -10.118  0.00  0.00    +0.016 A 
ENDROOT
BRANCH   1  12
ATOM      8  C   UNL     1       4.155   5.914  -6.486  0.00  0.00    +0.212 C 
ATOM      9  O   UNL     1       3.397   7.247  -6.169  0.00  0.00    -0.434 OA
ATOM     10  C   UNL     1       2.480   7.293  -7.213  0.00  0.00    +0.409 C 
ATOM     11  O   UNL     1       2.081   8.380  -7.731  0.00  0.00    -0.226 OA
ATOM     12  N   UNL     1       2.243   5.971  -7.712  0.00  0.00    -0.221 N 
ATOM     13  C   UNL     1       2.703   5.092  -6.640  0.00  0.00    +0.147 C 
BRANCH   8  14
ATOM     14  C   UNL     1       4.247   5.534  -4.856  0.00  0.00    +0.160 C 
BRANCH  14  17
ATOM     15  C   UNL     1       3.897   8.303  -2.354  0.00  0.00    +0.096 C 
ATOM     16  C   UNL     1       4.386   7.077  -2.860  0.00  0.00    +0.242 C 
ATOM     17  N   UNL     1       4.607   6.801  -4.246  0.00  0.00    -0.201 NA
ATOM     18  O   UNL     1       4.432   6.088  -2.076  0.00  0.00    -0.273 OA
ENDBRANCH  14  17
ENDBRANCH   8  14
ENDBRANCH   1  12
BRANCH   5  19
ATOM     19  N   UNL     1       0.721   5.897 -13.095  0.00  0.00    -0.301 N 
ATOM     20  C   UNL     1       1.274   4.722 -13.766  0.00  0.00    +0.123 C 
ATOM     21  C   UNL     1       2.691   5.066 -14.131  0.00  0.00    +0.164 C 
ATOM     22  O   UNL     1       2.809   6.138 -14.984  0.00  0.00    -0.350 OA
ATOM     23  C   UNL     1       1.712   6.953 -15.075  0.00  0.00    +0.164 C 
ATOM     24  C   UNL     1       0.960   7.159 -13.794  0.00  0.00    +0.123 C 
ENDBRANCH   5  19
TORSDOF 4
ENDMDL
MODEL 7
REMARK VINA RESULT:      -7.8      2.883      7.948
REMARK  Name = 
REMARK  4 active torsions:
REMARK  status: ('A' for Active; 'I' for Inactive)
REMARK    1  A    between atoms: N_4  and  C_5
REMARK    2  A    between atoms: C_5  and  C_6
REMARK    3  A    between atoms: N_8  and  C_9
REMARK    4  A    between atoms: C_12  and  N_13
REMARK                            x       y       z     vdW  Elec       q    Type
REMARK                         _______ _______ _______ _____ _____    ______ ____
ROOT
ATOM      1  C   UNL     1       3.147   6.621  -8.642  0.00  0.00    +0.059 A 
ATOM      2  C   UNL     1       1.948   6.892  -7.994  0.00  0.00    +0.046 A 
ATOM      3  C   UNL     1       1.823   6.746  -6.619  0.00  0.00    +0.155 A 
ATOM      4  F   UNL     1       0.768   7.255  -5.934  0.00  0.00    -0.203 F 
ATOM      5  C   UNL     1       2.604   5.764  -6.026  0.00  0.00    +0.076 A 
ATOM      6  C   UNL     1       3.842   5.545  -6.611  0.00  0.00    +0.018 A 
ATOM      7  C   UNL     1       4.158   6.155  -7.809  0.00  0.00    +0.016 A 
ENDROOT
BRANCH   1  12
ATOM      8  C   UNL     1       4.600   5.423 -11.481  0.00  0.00    +0.212 C 
ATOM      9  O   UNL     1       3.136   5.380 -12.036  0.00  0.00    -0.434 OA
ATOM     10  C   UNL     1       2.412   5.803 -10.926  0.00  0.00    +0.409 C 
ATOM     11  O   UNL     1       1.242   5.386 -10.669  0.00  0.00    -0.226 OA
ATOM     12  N   UNL     1       3.252   6.580 -10.064  0.00  0.00    -0.221 N 
ATOM     13  C   UNL     1       4.370   6.983 -10.913  0.00  0.00    +0.147 C 
BRANCH   8  14
ATOM     14  C   UNL     1       5.179   5.995 -12.946  0.00  0.00    +0.160 C 
BRANCH  14  17
ATOM     15  C   UNL     1       8.617   5.800 -11.468  0.00  0.00    +0.096 C 
ATOM     16  C   UNL     1       7.645   5.690 -12.487  0.00  0.00    +0.242 C 
ATOM     17  N   UNL     1       6.486   6.522 -12.596  0.00  0.00    -0.201 NA
ATOM     18  O   UNL     1       7.674   4.668 -13.228  0.00  0.00    -0.273 OA
ENDBRANCH  14  17
ENDBRANCH   8  14
ENDBRANCH   1  12
BRANCH   5  19
ATOM     19  N   UNL     1       2.570   5.534  -4.610  0.00  0.00    -0.301 N 
ATOM     20  C   UNL     1       2.390   6.742  -3.807  0.00  0.00    +0.123 C 
ATOM     21  C   UNL     1       3.762   7.312  -3.579  0.00  0.00    +0.164 C 
ATOM     22  O   UNL     1       4.616   6.474  -2.901  0.00  0.00    -0.350 OA
ATOM     23  C   UNL     1       4.255   5.154  -2.868  0.00  0.00    +0.164 C 
ATOM     24  C   UNL     1       3.613   4.634  -4.119  0.00  0.00    +0.123 C 
ENDBRANCH   5  19
TORSDOF 4
ENDMDL
MODEL 8
REMARK VINA RESULT:      -7.8      3.080      3.595
REMARK  Name = 
REMARK  4 active torsions:
REMARK  status: ('A' for Active; 'I' for Inactive)
REMARK    1  A    between atoms: N_4  and  C_5
REMARK    2  A    between atoms: C_5  and  C_6
REMARK    3  A    between atoms: N_8  and  C_9
REMARK    4  A    between atoms: C_12  and  N_13
REMARK                            x       y       z     vdW  Elec       q    Type
REMARK                         _______ _______ _______ _____ _____    ______ ____
ROOT
ATOM      1  C   UNL     1       3.551   6.027  -6.675  0.00  0.00    +0.059 A 
ATOM      2  C   UNL     1       4.556   5.393  -7.394  0.00  0.00    +0.046 A 
ATOM      3  C   UNL     1       4.932   5.838  -8.655  0.00  0.00    +0.155 A 
ATOM      4  F   UNL     1       6.073   5.418  -9.257  0.00  0.00    -0.203 F 
ATOM      5  C   UNL     1       3.939   6.429  -9.425  0.00  0.00    +0.076 A 
ATOM      6  C   UNL     1       2.978   7.141  -8.724  0.00  0.00    +0.018 A 
ATOM      7  C   UNL     1       2.945   7.084  -7.344  0.00  0.00    +0.016 A 
ENDROOT
BRANCH   1  12
ATOM      8  C   UNL     1       1.987   6.420  -3.674  0.00  0.00    +0.212 C 
ATOM      9  O   UNL     1       1.211   5.120  -4.075  0.00  0.00    -0.434 OA
ATOM     10  C   UNL     1       1.726   4.876  -5.343  0.00  0.00    +0.409 C 
ATOM     11  O   UNL     1       1.044   4.350  -6.274  0.00  0.00    -0.226 OA
ATOM     12  N   UNL     1       3.018   5.483  -5.469  0.00  0.00    -0.221 N 
ATOM     13  C   UNL     1       3.447   5.711  -4.091  0.00  0.00    +0.147 C 
BRANCH   8  14
ATOM     14  C   UNL     1       2.133   5.890  -2.090  0.00  0.00    +0.160 C 
BRANCH  14  17
ATOM     15  C   UNL     1       4.479   7.100   0.570  0.00  0.00    +0.096 C 
ATOM     16  C   UNL     1       4.059   6.282  -0.504  0.00  0.00    +0.242 C 
ATOM     17  N   UNL     1       3.207   6.714  -1.569  0.00  0.00    -0.201 NA
ATOM     18  O   UNL     1       4.265   5.039  -0.419  0.00  0.00    -0.273 OA
ENDBRANCH  14  17
ENDBRANCH   8  14
ENDBRANCH   1  12
BRANCH   5  19
ATOM     19  N   UNL     1       4.215   6.941 -10.736  0.00  0.00    -0.301 N 
ATOM     20  C   UNL     1       3.759   6.083 -11.828  0.00  0.00    +0.123 C 
ATOM     21  C   UNL     1       4.866   5.100 -12.090  0.00  0.00    +0.164 C 
ATOM     22  O   UNL     1       6.054   5.678 -12.471  0.00  0.00    -0.350 OA
ATOM     23  C   UNL     1       6.183   7.014 -12.199  0.00  0.00    +0.164 C 
ATOM     24  C   UNL     1       5.569   7.466 -10.907  0.00  0.00    +0.123 C 
ENDBRANCH   5  19
TORSDOF 4
ENDMDL
MODEL 9
REMARK VINA RESULT:      -7.8      1.841      2.150
REMARK  Name = 
REMARK  4 active torsions:
REMARK  status: ('A' for Active; 'I' for Inactive)
REMARK    1  A    between atoms: N_4  and  C_5
REMARK    2  A    between atoms: C_5  and  C_6
REMARK    3  A    between atoms: N_8  and  C_9
REMARK    4  A    between atoms: C_12  and  N_13
REMARK                            x       y       z     vdW  Elec       q    Type
REMARK                         _______ _______ _______ _____ _____    ______ ____
ROOT
ATOM      1  C   UNL     1       3.319   5.936  -9.205  0.00  0.00    +0.059 A 
ATOM      2  C   UNL     1       2.986   6.261 -10.514  0.00  0.00    +0.046 A 
ATOM      3  C   UNL     1       3.959   6.380 -11.497  0.00  0.00    +0.155 A 
ATOM      4  F   UNL     1       3.648   6.426 -12.817  0.00  0.00    -0.203 F 
ATOM      5  C   UNL     1       5.210   6.815 -11.082  0.00  0.00    +0.076 A 
ATOM      6  C   UNL     1       5.592   6.423  -9.809  0.00  0.00    +0.018 A 
ATOM      7  C   UNL     1       4.684   5.799  -8.976  0.00  0.00    +0.016 A 
ENDROOT
BRANCH   1  12
ATOM      8  C   UNL     1       2.510   5.537  -5.920  0.00  0.00    +0.212 C 
ATOM      9  O   UNL     1       1.708   6.868  -6.107  0.00  0.00    -0.434 OA
ATOM     10  C   UNL     1       2.007   7.182  -7.428  0.00  0.00    +0.409 C 
ATOM     11  O   UNL     1       2.106   8.375  -7.847  0.00  0.00    -0.226 OA
ATOM     12  N   UNL     1       2.371   5.993  -8.141  0.00  0.00    -0.221 N 
ATOM     13  C   UNL     1       1.845   4.904  -7.322  0.00  0.00    +0.147 C 
BRANCH   8  14
ATOM     14  C   UNL     1       1.280   4.882  -4.988  0.00  0.00    +0.160 C 
BRANCH  14  17
ATOM     15  C   UNL     1      -1.478   6.805  -3.333  0.00  0.00    +0.096 C 
ATOM     16  C   UNL     1      -0.352   5.952  -3.384  0.00  0.00    +0.242 C 
ATOM     17  N   UNL     1       0.696   6.049  -4.353  0.00  0.00    -0.201 NA
ATOM     18  O   UNL     1      -0.366   4.907  -2.675  0.00  0.00    -0.273 OA
ENDBRANCH  14  17
ENDBRANCH   8  14
ENDBRANCH   1  12
BRANCH   5  19
ATOM     19  N   UNL     1       6.298   6.959 -12.007  0.00  0.00    -0.301 N 
ATOM     20  C   UNL     1       6.070   6.333 -13.308  0.00  0.00    +0.123 C 
ATOM     21  C   UNL     1       6.506   4.900 -13.175  0.00  0.00    +0.164 C 
ATOM     22  O   UNL     1       7.833   4.742 -12.854  0.00  0.00    -0.350 OA
ATOM     23  C   UNL     1       8.459   5.847 -12.339  0.00  0.00    +0.164 C 
ATOM     24  C   UNL     1       7.617   6.695 -11.434  0.00  0.00    +0.123 C 
ENDBRANCH   5  19
TORSDOF 4
ENDMDL
