MODEL 1
REMARK VINA RESULT:      -7.8      0.000      0.000
REMARK  Name = 
REMARK  6 active torsions:
REMARK  status: ('A' for Active; 'I' for Inactive)
REMARK    1  A    between atoms: C_2  and  N_4
REMARK    2  A    between atoms: C_11  and  O_12
REMARK    3  A    between atoms: O_12  and  C_13
REMARK    4  A    between atoms: C_13  and  C_15
REMARK    5  A    between atoms: C_15  and  C_16
REMARK    6  A    between atoms: C_15  and  C_18
REMARK                            x       y       z     vdW  Elec       q    Type
REMARK                         _______ _______ _______ _____ _____    ______ ____
ROOT
ATOM      1  N   UNL     1       2.958   5.755  -3.775  0.00  0.00    +0.289 N 
ATOM      2  C   UNL     1       3.615   7.094  -4.299  0.00  0.00    +0.062 C 
ATOM      3  C   UNL     1       3.744   6.973  -5.947  0.00  0.00    +0.099 C 
ATOM      4  C   UNL     1       2.297   7.245  -6.583  0.00  0.00    +0.180 C 
ATOM      5  C   UNL     1       1.780   6.150  -5.519  0.00  0.00    +0.099 C 
ATOM      6  C   UNL     1       4.995   6.172  -4.307  0.00  0.00    +0.061 C 
ATOM      7  C   UNL     1       4.388   5.425  -5.504  0.00  0.00    +0.061 C 
ATOM      8  C   UNL     1       2.851   4.979  -5.126  0.00  0.00    +0.062 C 
ATOM      9  C   UNL     1       3.838   4.957  -3.020  0.00  0.00    +0.170 C 
ENDROOT
BRANCH   1  11
ATOM     10  C   UNL     1       0.913   5.147  -2.812  0.00  0.00    +0.061 C 
ATOM     11  C   UNL     1       1.834   6.042  -3.146  0.00  0.00    +0.058 C 
ATOM     12  C   UNL     1       2.298   6.878  -1.944  0.00  0.00    +0.061 C 
ENDBRANCH   1  11
BRANCH   4  13
ATOM     13  O   UNL     1       2.265   6.187  -7.724  0.00  0.00    -0.452 OA
BRANCH  13  14
ATOM     14  C   UNL     1       2.438   6.443  -8.984  0.00  0.00    +0.323 C 
ATOM     15  O   UNL     1       1.304   6.579  -9.535  0.00  0.00    -0.250 OA
BRANCH  14  16
ATOM     16  C   UNL     1       3.315   5.564 -10.015  0.00  0.00    +0.154 C 
BRANCH  16  17
ATOM     17  C   UNL     1       4.651   6.436  -9.767  0.00  0.00    -0.009 A 
ATOM     18  C   UNL     1       5.640   5.614  -9.237  0.00  0.00    -0.004 A 
ATOM     19  C   UNL     1       6.972   5.774  -9.594  0.00  0.00    -0.000 A 
ATOM     20  C   UNL     1       7.305   6.598 -10.655  0.00  0.00    -0.000 A 
ATOM     21  C   UNL     1       6.376   7.576 -10.988  0.00  0.00    -0.000 A 
ATOM     22  C   UNL     1       5.062   7.247 -10.784  0.00  0.00    -0.004 A 
ENDBRANCH  16  17
BRANCH  16  23
ATOM     23  C   UNL     1       3.809   4.446  -8.918  0.00  0.00    +0.198 C 
ATOM     24  O   UNL     1       2.896   3.499  -8.752  0.00  0.00    -0.219 OA
ENDBRANCH  16  23
ENDBRANCH  14  16
ENDBRANCH  13  14
ENDBRANCH   4  13
TORSDOF 6
ENDMDL
MODEL 2
REMARK VINA RESULT:      -7.7      1.689      2.229
REMARK  Name = 
REMARK  6 active torsions:
REMARK  status: ('A' for Active; 'I' for Inactive)
REMARK    1  A    between atoms: C_2  and  N_4
REMARK    2  A    between atoms: C_11  and  O_12
REMARK    3  A    between atoms: O_12  and  C_13
REMARK    4  A    between atoms: C_13  and  C_15
REMARK    5  A    between atoms: C_15  and  C_16
REMARK    6  A    between atoms: C_15  and  C_18
REMARK                            x       y       z     vdW  Elec       q    Type
REMARK                         _______ _______ _______ _____ _____    ______ ____
ROOT
ATOM      1  N   UNL     1      -0.034   5.916  -5.074  0.00  0.00    +0.289 N 
ATOM      2  C   UNL     1       0.965   7.139  -4.996  0.00  0.00    +0.062 C 
ATOM      3  C   UNL     1       2.147   6.890  -6.132  0.00  0.00    +0.099 C 
ATOM      4  C   UNL     1       1.545   7.266  -7.570  0.00  0.00    +0.180 C 
ATOM      5  C   UNL     1       0.319   6.308  -7.150  0.00  0.00    +0.099 C 
ATOM      6  C   UNL     1       1.867   6.081  -4.091  0.00  0.00    +0.061 C 
ATOM      7  C   UNL     1       2.129   5.318  -5.399  0.00  0.00    +0.061 C 
ATOM      8  C   UNL     1       0.695   5.062  -6.160  0.00  0.00    +0.062 C 
ATOM      9  C   UNL     1       0.008   5.086  -3.938  0.00  0.00    +0.170 C 
ENDROOT
BRANCH   1  11
ATOM     10  C   UNL     1      -2.351   5.642  -5.250  0.00  0.00    +0.061 C 
ATOM     11  C   UNL     1      -1.243   6.362  -5.359  0.00  0.00    +0.058 C 
ATOM     12  C   UNL     1      -1.329   7.686  -4.586  0.00  0.00    +0.061 C 
ENDBRANCH   1  11
BRANCH   4  13
ATOM     13  O   UNL     1       2.153   6.139  -8.455  0.00  0.00    -0.452 OA
BRANCH  13  14
ATOM     14  C   UNL     1       2.693   6.316  -9.622  0.00  0.00    +0.323 C 
ATOM     15  O   UNL     1       1.774   6.434 -10.487  0.00  0.00    -0.250 OA
BRANCH  14  16
ATOM     16  C   UNL     1       3.805   5.366 -10.302  0.00  0.00    +0.154 C 
BRANCH  16  17
ATOM     17  C   UNL     1       5.018   6.370  -9.942  0.00  0.00    -0.009 A 
ATOM     18  C   UNL     1       6.052   5.644  -9.357  0.00  0.00    -0.004 A 
ATOM     19  C   UNL     1       7.380   5.957  -9.615  0.00  0.00    -0.000 A 
ATOM     20  C   UNL     1       7.694   6.839 -10.633  0.00  0.00    -0.000 A 
ATOM     21  C   UNL     1       6.689   7.720 -11.014  0.00  0.00    -0.000 A 
ATOM     22  C   UNL     1       5.408   7.247 -10.911  0.00  0.00    -0.004 A 
ENDBRANCH  16  17
BRANCH  16  23
ATOM     23  C   UNL     1       4.115   4.468  -8.961  0.00  0.00    +0.198 C 
ATOM     24  O   UNL     1       3.209   3.514  -8.802  0.00  0.00    -0.219 OA
ENDBRANCH  16  23
ENDBRANCH  14  16
ENDBRANCH  13  14
ENDBRANCH   4  13
TORSDOF 6
ENDMDL
MODEL 3
REMARK VINA RESULT:      -7.4      2.558      6.731
REMARK  Name = 
REMARK  6 active torsions:
REMARK  status: ('A' for Active; 'I' for Inactive)
REMARK    1  A    between atoms: C_2  and  N_4
REMARK    2  A    between atoms: C_11  and  O_12
REMARK    3  A    between atoms: O_12  and  C_13
REMARK    4  A    between atoms: C_13  and  C_15
REMARK    5  A    between atoms: C_15  and  C_16
REMARK    6  A    between atoms: C_15  and  C_18
REMARK                            x       y       z     vdW  Elec       q    Type
REMARK                         _______ _______ _______ _____ _____    ______ ____
ROOT
ATOM      1  N   UNL     1       4.587   5.857 -10.107  0.00  0.00    +0.289 N 
ATOM      2  C   UNL     1       3.489   6.987  -9.971  0.00  0.00    +0.062 C 
ATOM      3  C   UNL     1       2.536   6.601  -8.670  0.00  0.00    +0.099 C 
ATOM      4  C   UNL     1       3.333   6.993  -7.335  0.00  0.00    +0.180 C 
ATOM      5  C   UNL     1       4.550   6.162  -7.987  0.00  0.00    +0.099 C 
ATOM      6  C   UNL     1       2.543   5.874 -10.760  0.00  0.00    +0.061 C 
ATOM      7  C   UNL     1       2.566   5.058  -9.460  0.00  0.00    +0.061 C 
ATOM      8  C   UNL     1       4.124   4.913  -8.953  0.00  0.00    +0.062 C 
ATOM      9  C   UNL     1       4.429   5.057 -11.253  0.00  0.00    +0.170 C 
ENDROOT
BRANCH   1  11
ATOM     10  C   UNL     1       6.924   5.733 -10.104  0.00  0.00    +0.061 C 
ATOM     11  C   UNL     1       5.784   6.404 -10.004  0.00  0.00    +0.058 C 
ATOM     12  C   UNL     1       5.720   7.595 -10.972  0.00  0.00    +0.061 C 
ENDBRANCH   1  11
BRANCH   4  13
ATOM     13  O   UNL     1       2.979   5.792  -6.409  0.00  0.00    -0.452 OA
BRANCH  13  14
ATOM     14  C   UNL     1       2.342   5.882  -5.282  0.00  0.00    +0.323 C 
ATOM     15  O   UNL     1       3.162   5.705  -4.332  0.00  0.00    -0.250 OA
BRANCH  14  16
ATOM     16  C   UNL     1       1.022   5.049  -4.873  0.00  0.00    +0.154 C 
BRANCH  16  17
ATOM     17  C   UNL     1       0.020   6.149  -5.500  0.00  0.00    -0.009 A 
ATOM     18  C   UNL     1      -1.029   5.498  -6.141  0.00  0.00    -0.004 A 
ATOM     19  C   UNL     1      -2.320   6.009  -6.103  0.00  0.00    -0.000 A 
ATOM     20  C   UNL     1      -2.624   7.043  -5.236  0.00  0.00    -0.000 A 
ATOM     21  C   UNL     1      -1.557   7.827  -4.816  0.00  0.00    -0.000 A 
ATOM     22  C   UNL     1      -0.354   7.182  -4.691  0.00  0.00    -0.004 A 
ENDBRANCH  16  17
BRANCH  16  23
ATOM     23  C   UNL     1       0.944   4.155  -6.249  0.00  0.00    +0.198 C 
ATOM     24  O   UNL     1       1.880   3.217  -6.267  0.00  0.00    -0.219 OA
ENDBRANCH  16  23
ENDBRANCH  14  16
ENDBRANCH  13  14
ENDBRANCH   4  13
TORSDOF 6
ENDMDL
MODEL 4
REMARK VINA RESULT:      -7.2      1.577      2.892
REMARK  Name = 
REMARK  6 active torsions:
REMARK  status: ('A' for Active; 'I' for Inactive)
REMARK    1  A    between atoms: C_2  and  N_4
REMARK    2  A    between atoms: C_11  and  O_12
REMARK    3  A    between atoms: O_12  and  C_13
REMARK    4  A    between atoms: C_13  and  C_15
REMARK    5  A    between atoms: C_15  and  C_16
REMARK    6  A    between atoms: C_15  and  C_18
REMARK                            x       y       z     vdW  Elec       q    Type
REMARK                         _______ _______ _______ _____ _____    ______ ____
ROOT
ATOM      1  N   UNL     1       3.294   6.273  -4.665  0.00  0.00    +0.289 N 
ATOM      2  C   UNL     1       2.888   4.852  -5.228  0.00  0.00    +0.062 C 
ATOM      3  C   UNL     1       2.651   5.013  -6.861  0.00  0.00    +0.099 C 
ATOM      4  C   UNL     1       4.087   5.061  -7.572  0.00  0.00    +0.180 C 
ATOM      5  C   UNL     1       4.434   6.193  -6.477  0.00  0.00    +0.099 C 
ATOM      6  C   UNL     1       1.355   5.480  -5.129  0.00  0.00    +0.061 C 
ATOM      7  C   UNL     1       1.739   6.382  -6.311  0.00  0.00    +0.061 C 
ATOM      8  C   UNL     1       3.175   7.109  -5.978  0.00  0.00    +0.062 C 
ATOM      9  C   UNL     1       2.315   6.847  -3.833  0.00  0.00    +0.170 C 
ENDROOT
BRANCH   1  11
ATOM     10  C   UNL     1       5.107   7.204  -3.514  0.00  0.00    +0.061 C 
ATOM     11  C   UNL     1       4.485   6.190  -4.101  0.00  0.00    +0.058 C 
ATOM     12  C   UNL     1       4.361   4.968  -3.179  0.00  0.00    +0.061 C 
ENDBRANCH   1  11
BRANCH   4  13
ATOM     13  O   UNL     1       3.850   6.151  -8.657  0.00  0.00    -0.452 OA
BRANCH  13  14
ATOM     14  C   UNL     1       3.703   5.921  -9.926  0.00  0.00    +0.323 C 
ATOM     15  O   UNL     1       3.936   4.696 -10.151  0.00  0.00    -0.250 OA
BRANCH  14  16
ATOM     16  C   UNL     1       4.428   6.725 -11.122  0.00  0.00    +0.154 C 
BRANCH  16  17
ATOM     17  C   UNL     1       5.738   5.781 -11.088  0.00  0.00    -0.009 A 
ATOM     18  C   UNL     1       6.080   5.427 -12.389  0.00  0.00    -0.004 A 
ATOM     19  C   UNL     1       7.409   5.317 -12.776  0.00  0.00    -0.000 A 
ATOM     20  C   UNL     1       8.408   5.783 -11.941  0.00  0.00    -0.000 A 
ATOM     21  C   UNL     1       8.086   5.884 -10.593  0.00  0.00    -0.000 A 
ATOM     22  C   UNL     1       6.782   6.195 -10.312  0.00  0.00    -0.004 A 
ENDBRANCH  16  17
BRANCH  16  23
ATOM     23  C   UNL     1       3.788   5.835 -12.346  0.00  0.00    +0.198 C 
ATOM     24  O   UNL     1       2.594   6.291 -12.697  0.00  0.00    -0.219 OA
ENDBRANCH  16  23
ENDBRANCH  14  16
ENDBRANCH  13  14
ENDBRANCH   4  13
TORSDOF 6
ENDMDL
MODEL 5
REMARK VINA RESULT:      -7.2      1.946      2.867
REMARK  Name = 
REMARK  6 active torsions:
REMARK  status: ('A' for Active; 'I' for Inactive)
REMARK    1  A    between atoms: C_2  and  N_4
REMARK    2  A    between atoms: C_11  and  O_12
REMARK    3  A    between atoms: O_12  and  C_13
REMARK    4  A    between atoms: C_13  and  C_15
REMARK    5  A    between atoms: C_15  and  C_16
REMARK    6  A    between atoms: C_15  and  C_18
REMARK                            x       y       z     vdW  Elec       q    Type
REMARK                         _______ _______ _______ _____ _____    ______ ____
ROOT
ATOM      1  N   UNL     1       0.817   5.720  -5.518  0.00  0.00    +0.289 N 
ATOM      2  C   UNL     1       1.909   6.856  -5.387  0.00  0.00    +0.062 C 
ATOM      3  C   UNL     1       3.225   6.388  -6.280  0.00  0.00    +0.099 C 
ATOM      4  C   UNL     1       2.900   6.657  -7.828  0.00  0.00    +0.180 C 
ATOM      5  C   UNL     1       1.532   5.856  -7.533  0.00  0.00    +0.099 C 
ATOM      6  C   UNL     1       2.545   5.829  -4.250  0.00  0.00    +0.061 C 
ATOM      7  C   UNL     1       2.933   4.911  -5.419  0.00  0.00    +0.061 C 
ATOM      8  C   UNL     1       1.619   4.696  -6.383  0.00  0.00    +0.062 C 
ATOM      9  C   UNL     1       0.595   5.016  -4.320  0.00  0.00    +0.170 C 
ENDROOT
BRANCH   1  11
ATOM     10  C   UNL     1      -1.352   5.526  -6.374  0.00  0.00    +0.061 C 
ATOM     11  C   UNL     1      -0.280   6.233  -6.042  0.00  0.00    +0.058 C 
ATOM     12  C   UNL     1      -0.618   7.398  -5.099  0.00  0.00    +0.061 C 
ENDBRANCH   1  11
BRANCH   4  13
ATOM     13  O   UNL     1       3.523   5.394  -8.491  0.00  0.00    -0.452 OA
BRANCH  13  14
ATOM     14  C   UNL     1       4.554   5.397  -9.278  0.00  0.00    +0.323 C 
ATOM     15  O   UNL     1       5.594   5.158  -8.594  0.00  0.00    -0.250 OA
BRANCH  14  16
ATOM     16  C   UNL     1       4.967   6.585 -10.289  0.00  0.00    +0.154 C 
BRANCH  16  17
ATOM     17  C   UNL     1       6.242   5.779 -10.865  0.00  0.00    -0.009 A 
ATOM     18  C   UNL     1       5.968   5.360 -12.164  0.00  0.00    -0.004 A 
ATOM     19  C   UNL     1       6.958   5.350 -13.136  0.00  0.00    -0.000 A 
ATOM     20  C   UNL     1       8.169   5.973 -12.892  0.00  0.00    -0.000 A 
ATOM     21  C   UNL     1       8.512   6.146 -11.557  0.00  0.00    -0.000 A 
ATOM     22  C   UNL     1       7.469   6.350 -10.692  0.00  0.00    -0.004 A 
ENDBRANCH  16  17
BRANCH  16  23
ATOM     23  C   UNL     1       4.043   6.076 -11.548  0.00  0.00    +0.198 C 
ATOM     24  O   UNL     1       2.796   6.510 -11.435  0.00  0.00    -0.219 OA
ENDBRANCH  16  23
ENDBRANCH  14  16
ENDBRANCH  13  14
ENDBRANCH   4  13
TORSDOF 6
ENDMDL
MODEL 6
REMARK VINA RESULT:      -7.1      2.529      4.128
REMARK  Name = 
REMARK  6 active torsions:
REMARK  status: ('A' for Active; 'I' for Inactive)
REMARK    1  A    between atoms: C_2  and  N_4
REMARK    2  A    between atoms: C_11  and  O_12
REMARK    3  A    between atoms: O_12  and  C_13
REMARK    4  A    between atoms: C_13  and  C_15
REMARK    5  A    between atoms: C_15  and  C_16
REMARK    6  A    between atoms: C_15  and  C_18
REMARK                            x       y       z     vdW  Elec       q    Type
REMARK                         _______ _______ _______ _____ _____    ______ ____
ROOT
ATOM      1  N   UNL     1      -1.422   6.479  -3.453  0.00  0.00    +0.289 N 
ATOM      2  C   UNL     1      -2.186   5.912  -4.716  0.00  0.00    +0.062 C 
ATOM      3  C   UNL     1      -1.146   5.994  -6.005  0.00  0.00    +0.099 C 
ATOM      4  C   UNL     1      -0.108   4.777  -5.887  0.00  0.00    +0.180 C 
ATOM      5  C   UNL     1       0.104   5.291  -4.374  0.00  0.00    +0.099 C 
ATOM      6  C   UNL     1      -2.422   7.522  -5.040  0.00  0.00    +0.061 C 
ATOM      7  C   UNL     1      -0.923   7.590  -5.366  0.00  0.00    +0.061 C 
ATOM      8  C   UNL     1      -0.081   6.898  -4.135  0.00  0.00    +0.062 C 
ATOM      9  C   UNL     1      -1.938   7.703  -2.990  0.00  0.00    +0.170 C 
ENDROOT
BRANCH   1  11
ATOM     10  C   UNL     1      -0.714   5.664  -1.377  0.00  0.00    +0.061 C 
ATOM     11  C   UNL     1      -1.368   5.543  -2.525  0.00  0.00    +0.058 C 
ATOM     12  C   UNL     1      -2.839   5.154  -2.320  0.00  0.00    +0.061 C 
ENDBRANCH   1  11
BRANCH   4  13
ATOM     13  O   UNL     1       1.215   5.466  -6.331  0.00  0.00    -0.452 OA
BRANCH  13  14
ATOM     14  C   UNL     1       2.269   4.846  -6.766  0.00  0.00    +0.323 C 
ATOM     15  O   UNL     1       2.212   3.633  -6.402  0.00  0.00    -0.250 OA
BRANCH  14  16
ATOM     16  C   UNL     1       3.799   5.297  -6.521  0.00  0.00    +0.154 C 
BRANCH  16  17
ATOM     17  C   UNL     1       4.175   5.205  -8.088  0.00  0.00    -0.009 A 
ATOM     18  C   UNL     1       3.425   6.141  -8.793  0.00  0.00    -0.004 A 
ATOM     19  C   UNL     1       3.966   6.827  -9.872  0.00  0.00    -0.000 A 
ATOM     20  C   UNL     1       5.326   6.762 -10.115  0.00  0.00    -0.000 A 
ATOM     21  C   UNL     1       5.993   5.662  -9.590  0.00  0.00    -0.000 A 
ATOM     22  C   UNL     1       5.501   5.173  -8.408  0.00  0.00    -0.004 A 
ENDBRANCH  16  17
BRANCH  16  23
ATOM     23  C   UNL     1       3.530   6.913  -6.654  0.00  0.00    +0.198 C 
ATOM     24  O   UNL     1       3.713   7.527  -5.494  0.00  0.00    -0.219 OA
ENDBRANCH  16  23
ENDBRANCH  14  16
ENDBRANCH  13  14
ENDBRANCH   4  13
TORSDOF 6
ENDMDL
MODEL 7
REMARK VINA RESULT:      -6.9      3.021      4.583
REMARK  Name = 
REMARK  6 active torsions:
REMARK  status: ('A' for Active; 'I' for Inactive)
REMARK    1  A    between atoms: C_2  and  N_4
REMARK    2  A    between atoms: C_11  and  O_12
REMARK    3  A    between atoms: O_12  and  C_13
REMARK    4  A    between atoms: C_13  and  C_15
REMARK    5  A    between atoms: C_15  and  C_16
REMARK    6  A    between atoms: C_15  and  C_18
REMARK                            x       y       z     vdW  Elec       q    Type
REMARK                         _______ _______ _______ _____ _____    ______ ____
ROOT
ATOM      1  N   UNL     1      -1.388   6.499  -3.507  0.00  0.00    +0.289 N 
ATOM      2  C   UNL     1      -2.193   5.975  -4.763  0.00  0.00    +0.062 C 
ATOM      3  C   UNL     1      -1.184   6.068  -6.075  0.00  0.00    +0.099 C 
ATOM      4  C   UNL     1      -0.165   4.831  -6.011  0.00  0.00    +0.180 C 
ATOM      5  C   UNL     1       0.093   5.306  -4.492  0.00  0.00    +0.099 C 
ATOM      6  C   UNL     1      -2.407   7.596  -5.044  0.00  0.00    +0.061 C 
ATOM      7  C   UNL     1      -0.916   7.645  -5.406  0.00  0.00    +0.061 C 
ATOM      8  C   UNL     1      -0.056   6.910  -4.213  0.00  0.00    +0.062 C 
ATOM      9  C   UNL     1      -1.870   7.722  -3.004  0.00  0.00    +0.170 C 
ENDROOT
BRANCH   1  11
ATOM     10  C   UNL     1      -0.641   5.624  -1.470  0.00  0.00    +0.061 C 
ATOM     11  C   UNL     1      -1.328   5.541  -2.602  0.00  0.00    +0.058 C 
ATOM     12  C   UNL     1      -2.801   5.176  -2.366  0.00  0.00    +0.061 C 
ENDBRANCH   1  11
BRANCH   4  13
ATOM     13  O   UNL     1       1.159   5.506  -6.472  0.00  0.00    -0.452 OA
BRANCH  13  14
ATOM     14  C   UNL     1       1.926   5.072  -7.424  0.00  0.00    +0.323 C 
ATOM     15  O   UNL     1       2.691   4.175  -6.959  0.00  0.00    -0.250 OA
BRANCH  14  16
ATOM     16  C   UNL     1       2.858   5.982  -8.377  0.00  0.00    +0.154 C 
BRANCH  16  17
ATOM     17  C   UNL     1       2.294   5.306  -9.731  0.00  0.00    -0.009 A 
ATOM     18  C   UNL     1       0.925   5.095  -9.600  0.00  0.00    -0.004 A 
ATOM     19  C   UNL     1       0.068   5.262 -10.679  0.00  0.00    -0.000 A 
ATOM     20  C   UNL     1       0.529   5.865 -11.836  0.00  0.00    -0.000 A 
ATOM     21  C   UNL     1       1.903   5.829 -12.042  0.00  0.00    -0.000 A 
ATOM     22  C   UNL     1       2.678   5.869 -10.913  0.00  0.00    -0.004 A 
ENDBRANCH  16  17
BRANCH  16  23
ATOM     23  C   UNL     1       1.796   7.226  -8.526  0.00  0.00    +0.198 C 
ATOM     24  O   UNL     1       2.212   8.295  -7.860  0.00  0.00    -0.219 OA
ENDBRANCH  16  23
ENDBRANCH  14  16
ENDBRANCH  13  14
ENDBRANCH   4  13
TORSDOF 6
ENDMDL
MODEL 8
REMARK VINA RESULT:      -6.8      2.981      4.752
REMARK  Name = 
REMARK  6 active torsions:
REMARK  status: ('A' for Active; 'I' for Inactive)
REMARK    1  A    between atoms: C_2  and  N_4
REMARK    2  A    between atoms: C_11  and  O_12
REMARK    3  A    between atoms: O_12  and  C_13
REMARK    4  A    between atoms: C_13  and  C_15
REMARK    5  A    between atoms: C_15  and  C_16
REMARK    6  A    between atoms: C_15  and  C_18
REMARK                            x       y       z     vdW  Elec       q    Type
REMARK                         _______ _______ _______ _____ _____    ______ ____
ROOT
ATOM      1  N   UNL     1       2.327   5.623  -7.696  0.00  0.00    +0.289 N 
ATOM      2  C   UNL     1       2.769   4.262  -8.367  0.00  0.00    +0.062 C 
ATOM      3  C   UNL     1       3.939   4.616  -9.487  0.00  0.00    +0.099 C 
ATOM      4  C   UNL     1       5.318   4.864  -8.707  0.00  0.00    +0.180 C 
ATOM      5  C   UNL     1       4.453   5.866  -7.786  0.00  0.00    +0.099 C 
ATOM      6  C   UNL     1       1.732   4.755  -9.566  0.00  0.00    +0.061 C 
ATOM      7  C   UNL     1       2.774   5.830  -9.909  0.00  0.00    +0.061 C 
ATOM      8  C   UNL     1       3.202   6.613  -8.528  0.00  0.00    +0.062 C 
ATOM      9  C   UNL     1       1.014   6.009  -8.023  0.00  0.00    +0.170 C 
ENDROOT
BRANCH   1  11
ATOM     10  C   UNL     1       2.237   6.514  -5.533  0.00  0.00    +0.061 C 
ATOM     11  C   UNL     1       2.550   5.556  -6.396  0.00  0.00    +0.058 C 
ATOM     12  C   UNL     1       1.958   4.196  -5.999  0.00  0.00    +0.061 C 
ENDBRANCH   1  11
BRANCH   4  13
ATOM     13  O   UNL     1       5.904   6.066  -9.504  0.00  0.00    -0.452 OA
BRANCH  13  14
ATOM     14  C   UNL     1       7.026   6.053 -10.155  0.00  0.00    +0.323 C 
ATOM     15  O   UNL     1       7.399   7.247 -10.355  0.00  0.00    -0.250 OA
BRANCH  14  16
ATOM     16  C   UNL     1       7.305   5.276 -11.542  0.00  0.00    +0.154 C 
BRANCH  16  17
ATOM     17  C   UNL     1       6.169   6.100 -12.340  0.00  0.00    -0.009 A 
ATOM     18  C   UNL     1       6.776   6.885 -13.316  0.00  0.00    -0.004 A 
ATOM     19  C   UNL     1       6.175   7.082 -14.552  0.00  0.00    -0.000 A 
ATOM     20  C   UNL     1       5.083   6.315 -14.916  0.00  0.00    -0.000 A 
ATOM     21  C   UNL     1       4.356   5.749 -13.876  0.00  0.00    -0.000 A 
ATOM     22  C   UNL     1       5.075   5.402 -12.763  0.00  0.00    -0.004 A 
ENDBRANCH  16  17
BRANCH  16  23
ATOM     23  C   UNL     1       8.468   6.299 -12.087  0.00  0.00    +0.198 C 
ATOM     24  O   UNL     1       9.671   5.750 -12.000  0.00  0.00    -0.219 OA
ENDBRANCH  16  23
ENDBRANCH  14  16
ENDBRANCH  13  14
ENDBRANCH   4  13
TORSDOF 6
ENDMDL
MODEL 9
REMARK VINA RESULT:      -6.8      2.341      3.757
REMARK  Name = 
REMARK  6 active torsions:
REMARK  status: ('A' for Active; 'I' for Inactive)
REMARK    1  A    between atoms: C_2  and  N_4
REMARK    2  A    between atoms: C_11  and  O_12
REMARK    3  A    between atoms: O_12  and  C_13
REMARK    4  A    between atoms: C_13  and  C_15
REMARK    5  A    between atoms: C_15  and  C_16
REMARK    6  A    between atoms: C_15  and  C_18
REMARK                            x       y       z     vdW  Elec       q    Type
REMARK                         _______ _______ _______ _____ _____    ______ ____
ROOT
ATOM      1  N   UNL     1       0.141   5.958  -4.954  0.00  0.00    +0.289 N 
ATOM      2  C   UNL     1       1.178   7.104  -4.624  0.00  0.00    +0.062 C 
ATOM      3  C   UNL     1       2.596   6.731  -5.399  0.00  0.00    +0.099 C 
ATOM      4  C   UNL     1       2.430   7.108  -6.949  0.00  0.00    +0.180 C 
ATOM      5  C   UNL     1       1.063   6.259  -6.864  0.00  0.00    +0.099 C 
ATOM      6  C   UNL     1       1.719   6.007  -3.501  0.00  0.00    +0.061 C 
ATOM      7  C   UNL     1       2.256   5.188  -4.683  0.00  0.00    +0.061 C 
ATOM      8  C   UNL     1       1.059   5.019  -5.798  0.00  0.00    +0.062 C 
ATOM      9  C   UNL     1      -0.189   5.162  -3.841  0.00  0.00    +0.170 C 
ENDROOT
BRANCH   1  11
ATOM     10  C   UNL     1      -1.987   5.802  -5.917  0.00  0.00    +0.061 C 
ATOM     11  C   UNL     1      -0.909   6.486  -5.556  0.00  0.00    +0.058 C 
ATOM     12  C   UNL     1      -1.254   7.698  -4.679  0.00  0.00    +0.061 C 
ENDBRANCH   1  11
BRANCH   4  13
ATOM     13  O   UNL     1       3.157   5.912  -7.630  0.00  0.00    -0.452 OA
BRANCH  13  14
ATOM     14  C   UNL     1       3.838   5.982  -8.733  0.00  0.00    +0.323 C 
ATOM     15  O   UNL     1       3.665   7.126  -9.250  0.00  0.00    -0.250 OA
BRANCH  14  16
ATOM     16  C   UNL     1       3.758   4.938  -9.960  0.00  0.00    +0.154 C 
BRANCH  16  17
ATOM     17  C   UNL     1       2.292   5.439 -10.414  0.00  0.00    -0.009 A 
ATOM     18  C   UNL     1       2.314   5.743 -11.772  0.00  0.00    -0.004 A 
ATOM     19  C   UNL     1       1.223   5.468 -12.586  0.00  0.00    -0.000 A 
ATOM     20  C   UNL     1       0.192   4.679 -12.109  0.00  0.00    -0.000 A 
ATOM     21  C   UNL     1       0.061   4.608 -10.728  0.00  0.00    -0.000 A 
ATOM     22  C   UNL     1       1.226   4.690 -10.011  0.00  0.00    -0.004 A 
ENDBRANCH  16  17
BRANCH  16  23
ATOM     23  C   UNL     1       4.467   5.918 -11.072  0.00  0.00    +0.198 C 
ATOM     24  O   UNL     1       5.608   5.403 -11.508  0.00  0.00    -0.219 OA
ENDBRANCH  16  23
ENDBRANCH  14  16
ENDBRANCH  13  14
ENDBRANCH   4  13
TORSDOF 6
ENDMDL
