MODEL 1
REMARK VINA RESULT:      -7.1      0.000      0.000
REMARK  Name = 
REMARK  7 active torsions:
REMARK  status: ('A' for Active; 'I' for Inactive)
REMARK    1  A    between atoms: O_2  and  C_3
REMARK    2  A    between atoms: C_7  and  C_8
REMARK    3  A    between atoms: C_8  and  S_9
REMARK    4  A    between atoms: S_9  and  C_11
REMARK    5  A    between atoms: C_16  and  O_17
REMARK    6  A    between atoms: O_17  and  C_18
REMARK    7  A    between atoms: C_24  and  O_25
REMARK                            x       y       z     vdW  Elec       q    Type
REMARK                         _______ _______ _______ _____ _____    ______ ____
ROOT
ATOM      1  S   UNL     1       1.632   5.836  -7.796  0.00  0.00    +0.107 S 
ATOM      2  O   UNL     1       2.280   4.856  -8.819  0.00  0.00    -0.248 OA
ENDROOT
BRANCH   1   3
ATOM      3  C   UNL     1       3.057   6.181  -6.731  0.00  0.00    +0.221 A 
ATOM      4  N   UNL     1       3.865   5.249  -6.169  0.00  0.00    -0.218 NA
ATOM      5  C   UNL     1       4.431   5.750  -5.044  0.00  0.00    +0.104 A 
ATOM      6  C   UNL     1       4.338   7.127  -5.212  0.00  0.00    +0.101 A 
ATOM      7  C   UNL     1       4.780   7.914  -4.159  0.00  0.00    +0.024 A 
ATOM      8  C   UNL     1       5.039   7.375  -2.905  0.00  0.00    +0.039 A 
ATOM      9  C   UNL     1       4.799   6.028  -2.658  0.00  0.00    +0.146 A 
ATOM     10  C   UNL     1       4.720   5.226  -3.788  0.00  0.00    +0.058 A 
ATOM     11  N   UNL     1       3.363   7.332  -6.132  0.00  0.00    -0.218 NA
BRANCH   9  12
ATOM     12  O   UNL     1       4.251   5.638  -1.432  0.00  0.00    -0.424 OA
BRANCH  12  13
ATOM     13  C   UNL     1       3.355   4.564  -1.299  0.00  0.00    +0.509 C 
ATOM     14  F   UNL     1       2.166   4.937  -0.728  0.00  0.00    -0.155 F 
ATOM     15  F   UNL     1       3.940   3.479  -0.693  0.00  0.00    -0.155 F 
ENDBRANCH  12  13
ENDBRANCH   9  12
ENDBRANCH   1   3
BRANCH   1  16
ATOM     16  C   UNL     1       0.693   4.634  -6.765  0.00  0.00    +0.148 C 
BRANCH  16  19
ATOM     17  C   UNL     1      -1.575   5.499  -3.943  0.00  0.00    +0.175 A 
ATOM     18  C   UNL     1      -0.424   5.281  -4.684  0.00  0.00    +0.187 A 
ATOM     19  C   UNL     1      -0.420   5.324  -6.071  0.00  0.00    +0.110 A 
ATOM     20  N   UNL     1      -1.544   5.653  -6.725  0.00  0.00    -0.244 NA
ATOM     21  C   UNL     1      -2.658   5.997  -6.040  0.00  0.00    +0.102 A 
ATOM     22  C   UNL     1      -2.719   5.813  -4.665  0.00  0.00    +0.061 A 
BRANCH  17  24
ATOM     23  C   UNL     1      -2.315   5.794  -1.779  0.00  0.00    +0.253 C 
ATOM     24  O   UNL     1      -1.661   5.068  -2.616  0.00  0.00    -0.468 OA
ENDBRANCH  17  24
BRANCH  18  25
ATOM     25  O   UNL     1       0.792   5.329  -3.997  0.00  0.00    -0.467 OA
ATOM     26  C   UNL     1       1.206   6.555  -3.449  0.00  0.00    +0.253 C 
ENDBRANCH  18  25
ENDBRANCH  16  19
ENDBRANCH   1  16
TORSDOF 7
ENDMDL
MODEL 2
REMARK VINA RESULT:      -7.0      4.388      5.788
REMARK  Name = 
REMARK  7 active torsions:
REMARK  status: ('A' for Active; 'I' for Inactive)
REMARK    1  A    between atoms: O_2  and  C_3
REMARK    2  A    between atoms: C_7  and  C_8
REMARK    3  A    between atoms: C_8  and  S_9
REMARK    4  A    between atoms: S_9  and  C_11
REMARK    5  A    between atoms: C_16  and  O_17
REMARK    6  A    between atoms: O_17  and  C_18
REMARK    7  A    between atoms: C_24  and  O_25
REMARK                            x       y       z     vdW  Elec       q    Type
REMARK                         _______ _______ _______ _____ _____    ______ ____
ROOT
ATOM      1  S   UNL     1       1.609   4.241  -6.275  0.00  0.00    +0.107 S 
ATOM      2  O   UNL     1       2.957   4.165  -5.498  0.00  0.00    -0.248 OA
ENDROOT
BRANCH   1   3
ATOM      3  C   UNL     1       2.221   4.342  -7.978  0.00  0.00    +0.221 A 
ATOM      4  N   UNL     1       3.505   4.148  -8.367  0.00  0.00    -0.218 NA
ATOM      5  C   UNL     1       3.741   4.819  -9.521  0.00  0.00    +0.104 A 
ATOM      6  C   UNL     1       2.474   5.004 -10.061  0.00  0.00    +0.101 A 
ATOM      7  C   UNL     1       2.399   5.744 -11.233  0.00  0.00    +0.024 A 
ATOM      8  C   UNL     1       3.475   6.492 -11.693  0.00  0.00    +0.039 A 
ATOM      9  C   UNL     1       4.646   6.566 -10.948  0.00  0.00    +0.146 A 
ATOM     10  C   UNL     1       4.816   5.554 -10.012  0.00  0.00    +0.058 A 
ATOM     11  N   UNL     1       1.600   4.867  -9.034  0.00  0.00    -0.218 NA
BRANCH   9  12
ATOM     12  O   UNL     1       5.332   7.781 -10.857  0.00  0.00    -0.424 OA
BRANCH  12  13
ATOM     13  C   UNL     1       6.618   7.978 -11.387  0.00  0.00    +0.509 C 
ATOM     14  F   UNL     1       6.818   7.287 -12.554  0.00  0.00    -0.155 F 
ATOM     15  F   UNL     1       7.598   7.768 -10.449  0.00  0.00    -0.155 F 
ENDBRANCH  12  13
ENDBRANCH   9  12
ENDBRANCH   1   3
BRANCH   1  16
ATOM     16  C   UNL     1       1.158   5.995  -5.947  0.00  0.00    +0.148 C 
BRANCH  16  19
ATOM     17  C   UNL     1      -1.553   5.536  -3.438  0.00  0.00    +0.175 A 
ATOM     18  C   UNL     1      -0.350   5.906  -4.020  0.00  0.00    +0.187 A 
ATOM     19  C   UNL     1      -0.214   6.069  -5.391  0.00  0.00    +0.110 A 
ATOM     20  N   UNL     1      -1.289   5.934  -6.183  0.00  0.00    -0.244 NA
ATOM     21  C   UNL     1      -2.507   5.699  -5.647  0.00  0.00    +0.102 A 
ATOM     22  C   UNL     1      -2.630   5.385  -4.299  0.00  0.00    +0.061 A 
BRANCH  17  24
ATOM     23  C   UNL     1      -2.082   5.707  -1.200  0.00  0.00    +0.253 C 
ATOM     24  O   UNL     1      -1.584   4.995  -2.149  0.00  0.00    -0.468 OA
ENDBRANCH  17  24
BRANCH  18  25
ATOM     25  O   UNL     1       0.635   6.416  -3.171  0.00  0.00    -0.467 OA
ATOM     26  C   UNL     1       1.506   5.514  -2.534  0.00  0.00    +0.253 C 
ENDBRANCH  18  25
ENDBRANCH  16  19
ENDBRANCH   1  16
TORSDOF 7
ENDMDL
MODEL 3
REMARK VINA RESULT:      -7.0      4.525      6.085
REMARK  Name = 
REMARK  7 active torsions:
REMARK  status: ('A' for Active; 'I' for Inactive)
REMARK    1  A    between atoms: O_2  and  C_3
REMARK    2  A    between atoms: C_7  and  C_8
REMARK    3  A    between atoms: C_8  and  S_9
REMARK    4  A    between atoms: S_9  and  C_11
REMARK    5  A    between atoms: C_16  and  O_17
REMARK    6  A    between atoms: O_17  and  C_18
REMARK    7  A    between atoms: C_24  and  O_25
REMARK                            x       y       z     vdW  Elec       q    Type
REMARK                         _______ _______ _______ _____ _____    ______ ____
ROOT
ATOM      1  S   UNL     1       4.399   6.545  -4.192  0.00  0.00    +0.107 S 
ATOM      2  O   UNL     1       5.225   7.851  -4.398  0.00  0.00    -0.248 OA
ENDROOT
BRANCH   1   3
ATOM      3  C   UNL     1       4.053   6.108  -5.916  0.00  0.00    +0.221 A 
ATOM      4  N   UNL     1       4.695   5.151  -6.632  0.00  0.00    -0.218 NA
ATOM      5  C   UNL     1       4.623   5.441  -7.954  0.00  0.00    +0.104 A 
ATOM      6  C   UNL     1       3.532   6.296  -8.046  0.00  0.00    +0.101 A 
ATOM      7  C   UNL     1       3.260   6.826  -9.300  0.00  0.00    +0.024 A 
ATOM      8  C   UNL     1       4.175   6.737 -10.342  0.00  0.00    +0.039 A 
ATOM      9  C   UNL     1       5.423   6.163 -10.132  0.00  0.00    +0.146 A 
ATOM     10  C   UNL     1       5.514   5.340  -9.017  0.00  0.00    +0.058 A 
ATOM     11  N   UNL     1       3.339   6.802  -6.803  0.00  0.00    -0.218 NA
BRANCH   9  12
ATOM     12  O   UNL     1       6.553   6.730 -10.729  0.00  0.00    -0.424 OA
BRANCH  12  13
ATOM     13  C   UNL     1       6.497   7.498 -11.904  0.00  0.00    +0.509 C 
ATOM     14  F   UNL     1       7.424   7.106 -12.834  0.00  0.00    -0.155 F 
ATOM     15  F   UNL     1       6.519   8.845 -11.639  0.00  0.00    -0.155 F 
ENDBRANCH  12  13
ENDBRANCH   9  12
ENDBRANCH   1   3
BRANCH   1  16
ATOM     16  C   UNL     1       2.790   7.273  -3.673  0.00  0.00    +0.148 C 
BRANCH  16  19
ATOM     17  C   UNL     1      -0.272   5.370  -2.746  0.00  0.00    +0.175 A 
ATOM     18  C   UNL     1       0.732   5.957  -3.501  0.00  0.00    +0.187 A 
ATOM     19  C   UNL     1       1.978   6.254  -2.967  0.00  0.00    +0.110 A 
ATOM     20  N   UNL     1       2.256   5.906  -1.701  0.00  0.00    -0.244 NA
ATOM     21  C   UNL     1       1.352   5.219  -0.968  0.00  0.00    +0.102 A 
ATOM     22  C   UNL     1       0.054   5.050  -1.435  0.00  0.00    +0.061 A 
BRANCH  17  24
ATOM     23  C   UNL     1      -2.516   5.553  -2.253  0.00  0.00    +0.253 C 
ATOM     24  O   UNL     1      -1.606   5.443  -3.155  0.00  0.00    -0.468 OA
ENDBRANCH  17  24
BRANCH  18  25
ATOM     25  O   UNL     1       0.568   5.952  -4.888  0.00  0.00    -0.467 OA
ATOM     26  C   UNL     1       0.724   4.738  -5.580  0.00  0.00    +0.253 C 
ENDBRANCH  18  25
ENDBRANCH  16  19
ENDBRANCH   1  16
TORSDOF 7
ENDMDL
MODEL 4
REMARK VINA RESULT:      -6.9      3.308      5.413
REMARK  Name = 
REMARK  7 active torsions:
REMARK  status: ('A' for Active; 'I' for Inactive)
REMARK    1  A    between atoms: O_2  and  C_3
REMARK    2  A    between atoms: C_7  and  C_8
REMARK    3  A    between atoms: C_8  and  S_9
REMARK    4  A    between atoms: S_9  and  C_11
REMARK    5  A    between atoms: C_16  and  O_17
REMARK    6  A    between atoms: O_17  and  C_18
REMARK    7  A    between atoms: C_24  and  O_25
REMARK                            x       y       z     vdW  Elec       q    Type
REMARK                         _______ _______ _______ _____ _____    ______ ____
ROOT
ATOM      1  S   UNL     1       2.145   6.713  -7.543  0.00  0.00    +0.107 S 
ATOM      2  O   UNL     1       2.164   8.253  -7.780  0.00  0.00    -0.248 OA
ENDROOT
BRANCH   1   3
ATOM      3  C   UNL     1       3.312   6.583  -6.163  0.00  0.00    +0.221 A 
ATOM      4  N   UNL     1       3.731   5.428  -5.590  0.00  0.00    -0.218 NA
ATOM      5  C   UNL     1       4.107   5.661  -4.309  0.00  0.00    +0.104 A 
ATOM      6  C   UNL     1       4.370   7.025  -4.285  0.00  0.00    +0.101 A 
ATOM      7  C   UNL     1       4.711   7.572  -3.056  0.00  0.00    +0.024 A 
ATOM      8  C   UNL     1       4.532   6.869  -1.871  0.00  0.00    +0.039 A 
ATOM      9  C   UNL     1       3.943   5.610  -1.885  0.00  0.00    +0.146 A 
ATOM     10  C   UNL     1       3.960   4.964  -3.114  0.00  0.00    +0.058 A 
ATOM     11  N   UNL     1       3.717   7.557  -5.347  0.00  0.00    -0.218 NA
BRANCH   9  12
ATOM     12  O   UNL     1       3.043   5.257  -0.875  0.00  0.00    -0.424 OA
BRANCH  12  13
ATOM     13  C   UNL     1       1.659   5.477  -0.969  0.00  0.00    +0.509 C 
ATOM     14  F   UNL     1       0.955   4.319  -1.176  0.00  0.00    -0.155 F 
ATOM     15  F   UNL     1       1.356   6.472  -1.865  0.00  0.00    -0.155 F 
ENDBRANCH  12  13
ENDBRANCH   9  12
ENDBRANCH   1   3
BRANCH   1  16
ATOM     16  C   UNL     1       3.193   6.169  -8.956  0.00  0.00    +0.148 C 
BRANCH  16  19
ATOM     17  C   UNL     1       1.486   5.774 -12.240  0.00  0.00    +0.175 A 
ATOM     18  C   UNL     1       2.473   5.980 -11.289  0.00  0.00    +0.187 A 
ATOM     19  C   UNL     1       2.352   5.516  -9.987  0.00  0.00    +0.110 A 
ATOM     20  N   UNL     1       1.281   4.784  -9.643  0.00  0.00    -0.244 NA
ATOM     21  C   UNL     1       0.355   4.451 -10.570  0.00  0.00    +0.102 A 
ATOM     22  C   UNL     1       0.386   5.031 -11.831  0.00  0.00    +0.061 A 
BRANCH  17  24
ATOM     23  C   UNL     1       0.674   7.605 -13.382  0.00  0.00    +0.253 C 
ATOM     24  O   UNL     1       1.429   6.563 -13.392  0.00  0.00    -0.468 OA
ENDBRANCH  17  24
BRANCH  18  25
ATOM     25  O   UNL     1       3.726   6.389 -11.753  0.00  0.00    -0.467 OA
ATOM     26  C   UNL     1       4.571   5.431 -12.340  0.00  0.00    +0.253 C 
ENDBRANCH  18  25
ENDBRANCH  16  19
ENDBRANCH   1  16
TORSDOF 7
ENDMDL
MODEL 5
REMARK VINA RESULT:      -6.9      3.856      5.780
REMARK  Name = 
REMARK  7 active torsions:
REMARK  status: ('A' for Active; 'I' for Inactive)
REMARK    1  A    between atoms: O_2  and  C_3
REMARK    2  A    between atoms: C_7  and  C_8
REMARK    3  A    between atoms: C_8  and  S_9
REMARK    4  A    between atoms: S_9  and  C_11
REMARK    5  A    between atoms: C_16  and  O_17
REMARK    6  A    between atoms: O_17  and  C_18
REMARK    7  A    between atoms: C_24  and  O_25
REMARK                            x       y       z     vdW  Elec       q    Type
REMARK                         _______ _______ _______ _____ _____    ______ ____
ROOT
ATOM      1  S   UNL     1       4.121   6.041  -3.985  0.00  0.00    +0.107 S 
ATOM      2  O   UNL     1       5.326   6.943  -3.584  0.00  0.00    -0.248 OA
ENDROOT
BRANCH   1   3
ATOM      3  C   UNL     1       4.093   6.315  -5.776  0.00  0.00    +0.221 A 
ATOM      4  N   UNL     1       3.363   7.260  -6.418  0.00  0.00    -0.218 NA
ATOM      5  C   UNL     1       3.116   6.864  -7.690  0.00  0.00    +0.104 A 
ATOM      6  C   UNL     1       4.105   5.921  -7.941  0.00  0.00    +0.101 A 
ATOM      7  C   UNL     1       4.054   5.276  -9.168  0.00  0.00    +0.024 A 
ATOM      8  C   UNL     1       2.934   5.354  -9.986  0.00  0.00    +0.039 A 
ATOM      9  C   UNL     1       1.802   6.039  -9.560  0.00  0.00    +0.146 A 
ATOM     10  C   UNL     1       2.014   6.951  -8.535  0.00  0.00    +0.058 A 
ATOM     11  N   UNL     1       4.544   5.500  -6.729  0.00  0.00    -0.218 NA
BRANCH   9  12
ATOM     12  O   UNL     1       0.534   5.518  -9.838  0.00  0.00    -0.424 OA
BRANCH  12  13
ATOM     13  C   UNL     1      -0.106   5.675 -11.079  0.00  0.00    +0.509 C 
ATOM     14  F   UNL     1      -0.935   6.766 -11.108  0.00  0.00    -0.155 F 
ATOM     15  F   UNL     1      -0.708   4.515 -11.497  0.00  0.00    -0.155 F 
ENDBRANCH  12  13
ENDBRANCH   9  12
ENDBRANCH   1   3
BRANCH   1  16
ATOM     16  C   UNL     1       2.731   7.114  -3.432  0.00  0.00    +0.148 C 
BRANCH  16  19
ATOM     17  C   UNL     1      -0.713   5.755  -3.044  0.00  0.00    +0.175 A 
ATOM     18  C   UNL     1       0.496   6.128  -3.611  0.00  0.00    +0.187 A 
ATOM     19  C   UNL     1       1.649   6.283  -2.854  0.00  0.00    +0.110 A 
ATOM     20  N   UNL     1       1.621   5.999  -1.542  0.00  0.00    -0.244 NA
ATOM     21  C   UNL     1       0.498   5.512  -0.972  0.00  0.00    +0.102 A 
ATOM     22  C   UNL     1      -0.697   5.496  -1.681  0.00  0.00    +0.061 A 
BRANCH  17  24
ATOM     23  C   UNL     1      -2.925   5.238  -3.440  0.00  0.00    +0.253 C 
ATOM     24  O   UNL     1      -1.916   5.988  -3.716  0.00  0.00    -0.468 OA
ENDBRANCH  17  24
BRANCH  18  25
ATOM     25  O   UNL     1       0.600   6.038  -5.001  0.00  0.00    -0.467 OA
ATOM     26  C   UNL     1       0.790   4.770  -5.580  0.00  0.00    +0.253 C 
ENDBRANCH  18  25
ENDBRANCH  16  19
ENDBRANCH   1  16
TORSDOF 7
ENDMDL
MODEL 6
REMARK VINA RESULT:      -6.9      5.061      6.736
REMARK  Name = 
REMARK  7 active torsions:
REMARK  status: ('A' for Active; 'I' for Inactive)
REMARK    1  A    between atoms: O_2  and  C_3
REMARK    2  A    between atoms: C_7  and  C_8
REMARK    3  A    between atoms: C_8  and  S_9
REMARK    4  A    between atoms: S_9  and  C_11
REMARK    5  A    between atoms: C_16  and  O_17
REMARK    6  A    between atoms: O_17  and  C_18
REMARK    7  A    between atoms: C_24  and  O_25
REMARK                            x       y       z     vdW  Elec       q    Type
REMARK                         _______ _______ _______ _____ _____    ______ ____
ROOT
ATOM      1  S   UNL     1       2.224   4.956  -8.311  0.00  0.00    +0.107 S 
ATOM      2  O   UNL     1       2.688   3.495  -8.592  0.00  0.00    -0.248 OA
ENDROOT
BRANCH   1   3
ATOM      3  C   UNL     1       3.042   5.823  -9.677  0.00  0.00    +0.221 A 
ATOM      4  N   UNL     1       3.093   5.397 -10.963  0.00  0.00    -0.218 NA
ATOM      5  C   UNL     1       4.186   5.914 -11.575  0.00  0.00    +0.104 A 
ATOM      6  C   UNL     1       4.505   7.023 -10.800  0.00  0.00    +0.101 A 
ATOM      7  C   UNL     1       5.652   7.720 -11.153  0.00  0.00    +0.024 A 
ATOM      8  C   UNL     1       6.580   7.194 -12.043  0.00  0.00    +0.039 A 
ATOM      9  C   UNL     1       6.408   5.915 -12.559  0.00  0.00    +0.146 A 
ATOM     10  C   UNL     1       5.114   5.416 -12.484  0.00  0.00    +0.058 A 
ATOM     11  N   UNL     1       3.916   6.826  -9.595  0.00  0.00    -0.218 NA
BRANCH   9  12
ATOM     12  O   UNL     1       7.517   5.077 -12.712  0.00  0.00    -0.424 OA
BRANCH  12  13
ATOM     13  C   UNL     1       8.628   5.110 -11.853  0.00  0.00    +0.509 C 
ATOM     14  F   UNL     1       8.271   5.213 -10.534  0.00  0.00    -0.155 F 
ATOM     15  F   UNL     1       9.554   6.044 -12.247  0.00  0.00    -0.155 F 
ENDBRANCH  12  13
ENDBRANCH   9  12
ENDBRANCH   1   3
BRANCH   1  16
ATOM     16  C   UNL     1       3.335   5.370  -6.903  0.00  0.00    +0.148 C 
BRANCH  16  19
ATOM     17  C   UNL     1       2.526   5.616  -3.278  0.00  0.00    +0.175 A 
ATOM     18  C   UNL     1       3.194   5.741  -4.486  0.00  0.00    +0.187 A 
ATOM     19  C   UNL     1       2.529   5.701  -5.704  0.00  0.00    +0.110 A 
ATOM     20  N   UNL     1       1.191   5.607  -5.724  0.00  0.00    -0.244 NA
ATOM     21  C   UNL     1       0.488   5.610  -4.569  0.00  0.00    +0.102 A 
ATOM     22  C   UNL     1       1.145   5.498  -3.350  0.00  0.00    +0.061 A 
BRANCH  17  24
ATOM     23  C   UNL     1       2.534   4.921  -1.079  0.00  0.00    +0.253 C 
ATOM     24  O   UNL     1       3.216   5.260  -2.116  0.00  0.00    -0.468 OA
ENDBRANCH  17  24
BRANCH  18  25
ATOM     25  O   UNL     1       4.504   6.222  -4.440  0.00  0.00    -0.467 OA
ATOM     26  C   UNL     1       4.707   7.607  -4.301  0.00  0.00    +0.253 C 
ENDBRANCH  18  25
ENDBRANCH  16  19
ENDBRANCH   1  16
TORSDOF 7
ENDMDL
MODEL 7
REMARK VINA RESULT:      -6.8      4.624      6.446
REMARK  Name = 
REMARK  7 active torsions:
REMARK  status: ('A' for Active; 'I' for Inactive)
REMARK    1  A    between atoms: O_2  and  C_3
REMARK    2  A    between atoms: C_7  and  C_8
REMARK    3  A    between atoms: C_8  and  S_9
REMARK    4  A    between atoms: S_9  and  C_11
REMARK    5  A    between atoms: C_16  and  O_17
REMARK    6  A    between atoms: O_17  and  C_18
REMARK    7  A    between atoms: C_24  and  O_25
REMARK                            x       y       z     vdW  Elec       q    Type
REMARK                         _______ _______ _______ _____ _____    ______ ____
ROOT
ATOM      1  S   UNL     1       0.236   5.792  -6.951  0.00  0.00    +0.107 S 
ATOM      2  O   UNL     1      -1.138   5.152  -7.313  0.00  0.00    -0.248 OA
ENDROOT
BRANCH   1   3
ATOM      3  C   UNL     1       1.203   5.328  -8.412  0.00  0.00    +0.221 A 
ATOM      4  N   UNL     1       2.364   4.627  -8.400  0.00  0.00    -0.218 NA
ATOM      5  C   UNL     1       3.093   4.927  -9.502  0.00  0.00    +0.104 A 
ATOM      6  C   UNL     1       2.152   5.425 -10.395  0.00  0.00    +0.101 A 
ATOM      7  C   UNL     1       2.633   5.893 -11.610  0.00  0.00    +0.024 A 
ATOM      8  C   UNL     1       3.989   6.112 -11.821  0.00  0.00    +0.039 A 
ATOM      9  C   UNL     1       4.898   5.924 -10.787  0.00  0.00    +0.146 A 
ATOM     10  C   UNL     1       4.448   5.128  -9.742  0.00  0.00    +0.058 A 
ATOM     11  N   UNL     1       1.088   5.811  -9.649  0.00  0.00    -0.218 NA
BRANCH   9  12
ATOM     12  O   UNL     1       5.962   6.818 -10.633  0.00  0.00    -0.424 OA
BRANCH  12  13
ATOM     13  C   UNL     1       6.547   7.509 -11.707  0.00  0.00    +0.509 C 
ATOM     14  F   UNL     1       7.783   7.017 -12.039  0.00  0.00    -0.155 F 
ATOM     15  F   UNL     1       6.529   8.868 -11.516  0.00  0.00    -0.155 F 
ENDBRANCH  12  13
ENDBRANCH   9  12
ENDBRANCH   1   3
BRANCH   1  16
ATOM     16  C   UNL     1       0.835   4.565  -5.716  0.00  0.00    +0.148 C 
BRANCH  16  19
ATOM     17  C   UNL     1       2.706   5.606  -2.671  0.00  0.00    +0.175 A 
ATOM     18  C   UNL     1       2.369   5.403  -4.000  0.00  0.00    +0.187 A 
ATOM     19  C   UNL     1       1.054   5.229  -4.410  0.00  0.00    +0.110 A 
ATOM     20  N   UNL     1       0.064   5.326  -3.510  0.00  0.00    -0.244 NA
ATOM     21  C   UNL     1       0.336   5.649  -2.226  0.00  0.00    +0.102 A 
ATOM     22  C   UNL     1       1.650   5.676  -1.774  0.00  0.00    +0.061 A 
BRANCH  17  24
ATOM     23  C   UNL     1       4.178   4.764  -1.109  0.00  0.00    +0.253 C 
ATOM     24  O   UNL     1       4.012   5.381  -2.225  0.00  0.00    -0.468 OA
ENDBRANCH  17  24
BRANCH  18  25
ATOM     25  O   UNL     1       3.347   5.691  -4.955  0.00  0.00    -0.467 OA
ATOM     26  C   UNL     1       3.538   7.029  -5.340  0.00  0.00    +0.253 C 
ENDBRANCH  18  25
ENDBRANCH  16  19
ENDBRANCH   1  16
TORSDOF 7
ENDMDL
MODEL 8
REMARK VINA RESULT:      -6.7      4.474      6.661
REMARK  Name = 
REMARK  7 active torsions:
REMARK  status: ('A' for Active; 'I' for Inactive)
REMARK    1  A    between atoms: O_2  and  C_3
REMARK    2  A    between atoms: C_7  and  C_8
REMARK    3  A    between atoms: C_8  and  S_9
REMARK    4  A    between atoms: S_9  and  C_11
REMARK    5  A    between atoms: C_16  and  O_17
REMARK    6  A    between atoms: O_17  and  C_18
REMARK    7  A    between atoms: C_24  and  O_25
REMARK                            x       y       z     vdW  Elec       q    Type
REMARK                         _______ _______ _______ _____ _____    ______ ____
ROOT
ATOM      1  S   UNL     1       0.476   5.135  -6.617  0.00  0.00    +0.107 S 
ATOM      2  O   UNL     1       1.370   4.239  -5.708  0.00  0.00    -0.248 OA
ENDROOT
BRANCH   1   3
ATOM      3  C   UNL     1       1.324   4.932  -8.206  0.00  0.00    +0.221 A 
ATOM      4  N   UNL     1       2.500   4.284  -8.395  0.00  0.00    -0.218 NA
ATOM      5  C   UNL     1       3.121   4.772  -9.496  0.00  0.00    +0.104 A 
ATOM      6  C   UNL     1       2.093   5.360 -10.223  0.00  0.00    +0.101 A 
ATOM      7  C   UNL     1       2.453   6.020 -11.389  0.00  0.00    +0.024 A 
ATOM      8  C   UNL     1       3.778   6.322 -11.676  0.00  0.00    +0.039 A 
ATOM      9  C   UNL     1       4.779   6.020 -10.761  0.00  0.00    +0.146 A 
ATOM     10  C   UNL     1       4.444   5.061  -9.814  0.00  0.00    +0.058 A 
ATOM     11  N   UNL     1       1.087   5.588  -9.342  0.00  0.00    -0.218 NA
BRANCH   9  12
ATOM     12  O   UNL     1       5.828   6.923 -10.561  0.00  0.00    -0.424 OA
BRANCH  12  13
ATOM     13  C   UNL     1       6.507   7.557 -11.616  0.00  0.00    +0.509 C 
ATOM     14  F   UNL     1       7.761   7.043 -11.819  0.00  0.00    -0.155 F 
ATOM     15  F   UNL     1       6.485   8.923 -11.493  0.00  0.00    -0.155 F 
ENDBRANCH  12  13
ENDBRANCH   9  12
ENDBRANCH   1   3
BRANCH   1  16
ATOM     16  C   UNL     1       1.072   6.798  -6.099  0.00  0.00    +0.148 C 
BRANCH  16  19
ATOM     17  C   UNL     1       3.552   7.309  -3.370  0.00  0.00    +0.175 A 
ATOM     18  C   UNL     1       2.384   6.978  -4.038  0.00  0.00    +0.187 A 
ATOM     19  C   UNL     1       2.369   6.672  -5.391  0.00  0.00    +0.110 A 
ATOM     20  N   UNL     1       3.525   6.626  -6.071  0.00  0.00    -0.244 NA
ATOM     21  C   UNL     1       4.701   6.817  -5.433  0.00  0.00    +0.102 A 
ATOM     22  C   UNL     1       4.719   7.270  -4.120  0.00  0.00    +0.061 A 
BRANCH  17  24
ATOM     23  C   UNL     1       4.268   7.581  -1.195  0.00  0.00    +0.253 C 
ATOM     24  O   UNL     1       3.507   7.988  -2.149  0.00  0.00    -0.468 OA
ENDBRANCH  17  24
BRANCH  18  25
ATOM     25  O   UNL     1       1.275   6.652  -3.253  0.00  0.00    -0.467 OA
ATOM     26  C   UNL     1       1.316   5.475  -2.486  0.00  0.00    +0.253 C 
ENDBRANCH  18  25
ENDBRANCH  16  19
ENDBRANCH   1  16
TORSDOF 7
ENDMDL
MODEL 9
REMARK VINA RESULT:      -6.6      4.946      6.173
REMARK  Name = 
REMARK  7 active torsions:
REMARK  status: ('A' for Active; 'I' for Inactive)
REMARK    1  A    between atoms: O_2  and  C_3
REMARK    2  A    between atoms: C_7  and  C_8
REMARK    3  A    between atoms: C_8  and  S_9
REMARK    4  A    between atoms: S_9  and  C_11
REMARK    5  A    between atoms: C_16  and  O_17
REMARK    6  A    between atoms: O_17  and  C_18
REMARK    7  A    between atoms: C_24  and  O_25
REMARK                            x       y       z     vdW  Elec       q    Type
REMARK                         _______ _______ _______ _____ _____    ______ ____
ROOT
ATOM      1  S   UNL     1       2.017   4.571  -8.515  0.00  0.00    +0.107 S 
ATOM      2  O   UNL     1       2.531   3.136  -8.838  0.00  0.00    -0.248 OA
ENDROOT
BRANCH   1   3
ATOM      3  C   UNL     1       3.556   5.513  -8.689  0.00  0.00    +0.221 A 
ATOM      4  N   UNL     1       3.672   6.735  -9.266  0.00  0.00    -0.218 NA
ATOM      5  C   UNL     1       4.931   6.902  -9.738  0.00  0.00    +0.104 A 
ATOM      6  C   UNL     1       5.681   5.984  -9.012  0.00  0.00    +0.101 A 
ATOM      7  C   UNL     1       7.025   5.877  -9.343  0.00  0.00    +0.024 A 
ATOM      8  C   UNL     1       7.536   6.439 -10.506  0.00  0.00    +0.039 A 
ATOM      9  C   UNL     1       6.690   7.077 -11.406  0.00  0.00    +0.146 A 
ATOM     10  C   UNL     1       5.468   7.479 -10.884  0.00  0.00    +0.058 A 
ATOM     11  N   UNL     1       4.803   5.066  -8.538  0.00  0.00    -0.218 NA
BRANCH   9  12
ATOM     12  O   UNL     1       6.890   6.909 -12.780  0.00  0.00    -0.424 OA
BRANCH  12  13
ATOM     13  C   UNL     1       7.702   5.897 -13.319  0.00  0.00    +0.509 C 
ATOM     14  F   UNL     1       7.259   4.640 -13.000  0.00  0.00    -0.155 F 
ATOM     15  F   UNL     1       9.031   6.100 -13.038  0.00  0.00    -0.155 F 
ENDBRANCH  12  13
ENDBRANCH   9  12
ENDBRANCH   1   3
BRANCH   1  16
ATOM     16  C   UNL     1       1.874   4.447  -6.684  0.00  0.00    +0.148 C 
BRANCH  16  19
ATOM     17  C   UNL     1      -0.749   5.545  -4.283  0.00  0.00    +0.175 A 
ATOM     18  C   UNL     1       0.491   5.301  -4.853  0.00  0.00    +0.187 A 
ATOM     19  C   UNL     1       0.656   5.154  -6.223  0.00  0.00    +0.110 A 
ATOM     20  N   UNL     1      -0.397   5.318  -7.038  0.00  0.00    -0.244 NA
ATOM     21  C   UNL     1      -1.599   5.682  -6.536  0.00  0.00    +0.102 A 
ATOM     22  C   UNL     1      -1.813   5.684  -5.164  0.00  0.00    +0.061 A 
BRANCH  17  24
ATOM     23  C   UNL     1      -1.219   6.296  -2.154  0.00  0.00    +0.253 C 
ATOM     24  O   UNL     1      -0.970   5.297  -2.925  0.00  0.00    -0.468 OA
ENDBRANCH  17  24
BRANCH  18  25
ATOM     25  O   UNL     1       1.613   5.520  -4.051  0.00  0.00    -0.467 OA
ATOM     26  C   UNL     1       2.118   6.828  -3.943  0.00  0.00    +0.253 C 
ENDBRANCH  18  25
ENDBRANCH  16  19
ENDBRANCH   1  16
TORSDOF 7
ENDMDL
