MODEL 1
REMARK VINA RESULT:      -7.2      0.000      0.000
REMARK  Name = 
REMARK  26 active torsions:
REMARK  status: ('A' for Active; 'I' for Inactive)
REMARK    1  A    between atoms: O_2  and  C_3
REMARK    2  A    between atoms: C_6  and  C_7
REMARK    3  A    between atoms: C_7  and  C_8
REMARK    4  A    between atoms: C_11  and  O_12
REMARK    5  A    between atoms: C_14  and  O_15
REMARK    6  A    between atoms: N_21  and  C_23
REMARK    7  A    between atoms: C_23  and  C_24
REMARK    8  A    between atoms: C_24  and  C_25
REMARK    9  A    between atoms: C_25  and  O_27
REMARK   10  A    between atoms: O_27  and  C_28
REMARK   11  A    between atoms: C_28  and  C_29
REMARK   12  A    between atoms: C_29  and  C_30
REMARK   13  A    between atoms: C_30  and  C_31
REMARK   14  A    between atoms: C_31  and  C_32
REMARK   15  A    between atoms: C_32  and  O_33
REMARK   16  A    between atoms: O_33  and  C_34
REMARK   17  A    between atoms: C_34  and  C_36
REMARK   18  A    between atoms: C_36  and  C_37
REMARK   19  A    between atoms: C_37  and  N_38
REMARK   20  A    between atoms: C_44  and  O_45
REMARK   21  A    between atoms: C_47  and  O_48
REMARK   22  A    between atoms: C_52  and  C_53
REMARK   23  A    between atoms: C_53  and  C_54
REMARK   24  A    between atoms: C_57  and  O_58
REMARK   25  A    between atoms: C_60  and  O_61
REMARK   26  A    between atoms: C_65  and  O_66
REMARK                            x       y       z     vdW  Elec       q    Type
REMARK                         _______ _______ _______ _____ _____    ______ ____
ROOT
ATOM      1  C   UNL     1      -1.012   7.263  -5.328  0.00  0.00    +0.008 C 
ENDROOT
BRANCH   1   2
ATOM      2  C   UNL     1      -1.792   6.113  -5.956  0.00  0.00    +0.048 C 
BRANCH   2   3
ATOM      3  C   UNL     1      -0.802   5.286  -6.768  0.00  0.00    +0.208 C 
BRANCH   3   4
ATOM      4  O   UNL     1       0.297   5.099  -5.879  0.00  0.00    -0.448 OA
BRANCH   4   5
ATOM      5  C   UNL     1       1.453   4.525  -6.423  0.00  0.00    +0.323 C 
ATOM      6  O   UNL     1       1.790   3.346  -6.119  0.00  0.00    -0.250 OA
BRANCH   5   7
ATOM      7  C   UNL     1       2.451   5.472  -6.953  0.00  0.00    +0.170 C 
BRANCH   7   8
ATOM      8  C   UNL     1       2.988   5.137  -8.297  0.00  0.00    +0.121 C 
BRANCH   8   9
ATOM      9  N   UNL     1       3.001   6.273  -9.228  0.00  0.00    +0.301 N 
ATOM     10  C   UNL     1       2.885   5.554 -10.642  0.00  0.00    +0.086 C 
ATOM     11  C   UNL     1       4.381   5.958 -11.178  0.00  0.00    +0.027 A 
ATOM     12  C   UNL     1       5.379   5.387 -10.376  0.00  0.00    -0.012 A 
ATOM     13  C   UNL     1       6.663   5.420 -10.916  0.00  0.00    +0.036 A 
ATOM     14  C   UNL     1       6.861   5.669 -12.270  0.00  0.00    +0.172 A 
ATOM     15  C   UNL     1       5.755   5.402 -13.073  0.00  0.00    +0.172 A 
ATOM     16  C   UNL     1       5.287   5.830  -8.941  0.00  0.00    +0.087 C 
ATOM     17  C   UNL     1       4.498   5.416 -12.468  0.00  0.00    +0.041 A 
ATOM     18  C   UNL     1       4.210   6.912  -9.065  0.00  0.00    +0.114 C 
ATOM     19  C   UNL     1       1.785   6.929  -8.963  0.00  0.00    +0.171 C 
BRANCH  14  20
ATOM     20  O   UNL     1       7.977   6.365 -12.750  0.00  0.00    -0.468 OA
ATOM     21  C   UNL     1       9.258   6.040 -12.215  0.00  0.00    +0.253 C 
ENDBRANCH  14  20
BRANCH  15  22
ATOM     22  O   UNL     1       5.855   5.863 -14.392  0.00  0.00    -0.468 OA
ATOM     23  C   UNL     1       4.706   6.286 -15.125  0.00  0.00    +0.253 C 
ENDBRANCH  15  22
BRANCH  10  24
ATOM     24  C   UNL     1       2.145   6.819 -11.416  0.00  0.00    +0.086 C 
BRANCH  24  25
ATOM     25  C   UNL     1       1.241   6.353 -12.452  0.00  0.00    -0.013 A 
ATOM     26  C   UNL     1       1.391   6.633 -13.814  0.00  0.00    +0.036 A 
ATOM     27  C   UNL     1       0.593   6.053 -14.760  0.00  0.00    +0.172 A 
ATOM     28  C   UNL     1       0.201   4.752 -14.506  0.00  0.00    +0.172 A 
ATOM     29  C   UNL     1       0.390   4.211 -13.240  0.00  0.00    +0.040 A 
ATOM     30  C   UNL     1       1.140   4.950 -12.376  0.00  0.00    -0.001 A 
BRANCH  28  31
ATOM     31  O   UNL     1      -0.377   3.981 -15.484  0.00  0.00    -0.468 OA
ATOM     32  C   UNL     1      -0.863   2.685 -15.185  0.00  0.00    +0.253 C 
ENDBRANCH  28  31
BRANCH  27  33
ATOM     33  O   UNL     1       0.288   6.627 -15.981  0.00  0.00    -0.468 OA
ATOM     34  C   UNL     1       1.091   7.735 -16.383  0.00  0.00    +0.253 C 
ENDBRANCH  27  33
ENDBRANCH  24  25
ENDBRANCH  10  24
ENDBRANCH   8   9
ENDBRANCH   7   8
ENDBRANCH   5   7
ENDBRANCH   4   5
ENDBRANCH   3   4
ENDBRANCH   2   3
ENDBRANCH   1   2
BRANCH   1  35
ATOM     35  C   UNL     1      -1.883   8.145  -4.484  0.00  0.00    +0.048 C 
BRANCH  35  36
ATOM     36  C   UNL     1      -2.752   7.256  -3.602  0.00  0.00    +0.208 C 
BRANCH  36  37
ATOM     37  O   UNL     1      -2.060   6.799  -2.468  0.00  0.00    -0.448 OA
BRANCH  37  38
ATOM     38  C   UNL     1      -1.738   5.444  -2.330  0.00  0.00    +0.323 C 
ATOM     39  O   UNL     1      -2.630   4.617  -2.598  0.00  0.00    -0.250 OA
BRANCH  38  40
ATOM     40  C   UNL     1      -0.303   5.038  -2.451  0.00  0.00    +0.170 C 
BRANCH  40  41
ATOM     41  C   UNL     1       0.560   6.144  -1.925  0.00  0.00    +0.121 C 
BRANCH  41  43
ATOM     42  C   UNL     1       1.868   6.503   0.122  0.00  0.00    +0.086 C 
ATOM     43  N   UNL     1       1.742   5.802  -1.294  0.00  0.00    +0.301 N 
ATOM     44  C   UNL     1       1.687   4.431  -0.765  0.00  0.00    +0.171 C 
ATOM     45  C   UNL     1       2.945   5.910  -2.001  0.00  0.00    +0.114 C 
ATOM     46  C   UNL     1       4.201   5.745  -1.205  0.00  0.00    +0.087 C 
ATOM     47  C   UNL     1       4.246   7.020  -0.416  0.00  0.00    -0.012 A 
ATOM     48  C   UNL     1       5.352   7.462   0.241  0.00  0.00    +0.036 A 
ATOM     49  C   UNL     1       5.219   8.455   1.203  0.00  0.00    +0.172 A 
ATOM     50  C   UNL     1       4.076   9.239   1.092  0.00  0.00    +0.172 A 
ATOM     51  C   UNL     1       2.941   8.767   0.436  0.00  0.00    +0.041 A 
ATOM     52  C   UNL     1       2.985   7.611  -0.340  0.00  0.00    +0.027 A 
BRANCH  50  53
ATOM     53  O   UNL     1       4.087  10.451   1.774  0.00  0.00    -0.468 OA
ATOM     54  C   UNL     1       3.652  11.672   1.189  0.00  0.00    +0.253 C 
ENDBRANCH  50  53
BRANCH  49  55
ATOM     55  O   UNL     1       5.843   8.336   2.454  0.00  0.00    -0.468 OA
ATOM     56  C   UNL     1       6.364   7.084   2.902  0.00  0.00    +0.253 C 
ENDBRANCH  49  55
BRANCH  42  57
ATOM     57  C   UNL     1       0.624   7.580  -0.131  0.00  0.00    +0.086 C 
BRANCH  57  61
ATOM     58  C   UNL     1      -2.005   8.823   2.836  0.00  0.00    +0.172 A 
ATOM     59  C   UNL     1      -0.661   9.124   3.032  0.00  0.00    +0.172 A 
ATOM     60  C   UNL     1       0.293   8.595   2.164  0.00  0.00    +0.036 A 
ATOM     61  C   UNL     1      -0.039   7.657   1.192  0.00  0.00    -0.013 A 
ATOM     62  C   UNL     1      -1.244   7.001   1.428  0.00  0.00    -0.001 A 
ATOM     63  C   UNL     1      -2.228   7.603   2.206  0.00  0.00    +0.040 A 
BRANCH  58  65
ATOM     64  C   UNL     1      -4.254   9.609   3.102  0.00  0.00    +0.253 C 
ATOM     65  O   UNL     1      -2.991   9.816   2.793  0.00  0.00    -0.468 OA
ENDBRANCH  58  65
BRANCH  59  66
ATOM     66  O   UNL     1      -0.383  10.363   3.618  0.00  0.00    -0.468 OA
ATOM     67  C   UNL     1       0.942  10.854   3.750  0.00  0.00    +0.253 C 
ENDBRANCH  59  66
ENDBRANCH  57  61
ENDBRANCH  42  57
ENDBRANCH  41  43
ENDBRANCH  40  41
ENDBRANCH  38  40
ENDBRANCH  37  38
ENDBRANCH  36  37
ENDBRANCH  35  36
ENDBRANCH   1  35
TORSDOF 26
ENDMDL
MODEL 2
REMARK VINA RESULT:      -7.1      1.936      4.244
REMARK  Name = 
REMARK  26 active torsions:
REMARK  status: ('A' for Active; 'I' for Inactive)
REMARK    1  A    between atoms: O_2  and  C_3
REMARK    2  A    between atoms: C_6  and  C_7
REMARK    3  A    between atoms: C_7  and  C_8
REMARK    4  A    between atoms: C_11  and  O_12
REMARK    5  A    between atoms: C_14  and  O_15
REMARK    6  A    between atoms: N_21  and  C_23
REMARK    7  A    between atoms: C_23  and  C_24
REMARK    8  A    between atoms: C_24  and  C_25
REMARK    9  A    between atoms: C_25  and  O_27
REMARK   10  A    between atoms: O_27  and  C_28
REMARK   11  A    between atoms: C_28  and  C_29
REMARK   12  A    between atoms: C_29  and  C_30
REMARK   13  A    between atoms: C_30  and  C_31
REMARK   14  A    between atoms: C_31  and  C_32
REMARK   15  A    between atoms: C_32  and  O_33
REMARK   16  A    between atoms: O_33  and  C_34
REMARK   17  A    between atoms: C_34  and  C_36
REMARK   18  A    between atoms: C_36  and  C_37
REMARK   19  A    between atoms: C_37  and  N_38
REMARK   20  A    between atoms: C_44  and  O_45
REMARK   21  A    between atoms: C_47  and  O_48
REMARK   22  A    between atoms: C_52  and  C_53
REMARK   23  A    between atoms: C_53  and  C_54
REMARK   24  A    between atoms: C_57  and  O_58
REMARK   25  A    between atoms: C_60  and  O_61
REMARK   26  A    between atoms: C_65  and  O_66
REMARK                            x       y       z     vdW  Elec       q    Type
REMARK                         _______ _______ _______ _____ _____    ______ ____
ROOT
ATOM      1  C   UNL     1      -1.717   6.730  -2.502  0.00  0.00    +0.008 C 
ENDROOT
BRANCH   1   2
ATOM      2  C   UNL     1      -2.280   7.285  -3.806  0.00  0.00    +0.048 C 
BRANCH   2   3
ATOM      3  C   UNL     1      -1.112   7.439  -4.772  0.00  0.00    +0.208 C 
BRANCH   3   4
ATOM      4  O   UNL     1      -0.294   6.302  -4.503  0.00  0.00    -0.448 OA
BRANCH   4   5
ATOM      5  C   UNL     1       0.110   5.544  -5.609  0.00  0.00    +0.323 C 
ATOM      6  O   UNL     1      -0.641   4.646  -6.083  0.00  0.00    -0.250 OA
BRANCH   5   7
ATOM      7  C   UNL     1       1.562   5.517  -5.872  0.00  0.00    +0.170 C 
BRANCH   7   8
ATOM      8  C   UNL     1       1.946   5.117  -7.249  0.00  0.00    +0.121 C 
BRANCH   8   9
ATOM      9  N   UNL     1       2.150   6.253  -8.159  0.00  0.00    +0.301 N 
ATOM     10  C   UNL     1       2.335   5.533  -9.565  0.00  0.00    +0.086 C 
ATOM     11  C   UNL     1       3.909   5.941  -9.777  0.00  0.00    +0.027 A 
ATOM     12  C   UNL     1       4.719   5.374  -8.782  0.00  0.00    -0.012 A 
ATOM     13  C   UNL     1       6.087   5.411  -9.042  0.00  0.00    +0.036 A 
ATOM     14  C   UNL     1       6.563   5.660 -10.325  0.00  0.00    +0.172 A 
ATOM     15  C   UNL     1       5.651   5.389 -11.341  0.00  0.00    +0.172 A 
ATOM     16  C   UNL     1       4.327   5.818  -7.400  0.00  0.00    +0.087 C 
ATOM     17  C   UNL     1       4.295   5.399 -11.012  0.00  0.00    +0.041 A 
ATOM     18  C   UNL     1       3.297   6.897  -7.747  0.00  0.00    +0.114 C 
ATOM     19  C   UNL     1       0.903   6.905  -8.154  0.00  0.00    +0.171 C 
BRANCH  14  20
ATOM     20  O   UNL     1       7.752   6.360 -10.562  0.00  0.00    -0.468 OA
ATOM     21  C   UNL     1       7.783   7.757 -10.277  0.00  0.00    +0.253 C 
ENDBRANCH  14  20
BRANCH  15  22
ATOM     22  O   UNL     1       6.023   5.850 -12.610  0.00  0.00    -0.468 OA
ATOM     23  C   UNL     1       5.290   5.490 -13.780  0.00  0.00    +0.253 C 
ENDBRANCH  15  22
BRANCH  10  24
ATOM     24  C   UNL     1       1.769   6.795 -10.478  0.00  0.00    +0.086 C 
BRANCH  24  25
ATOM     25  C   UNL     1       1.201   6.332 -11.731  0.00  0.00    -0.013 A 
ATOM     26  C   UNL     1       1.798   6.512 -12.983  0.00  0.00    +0.036 A 
ATOM     27  C   UNL     1       1.290   5.934 -14.112  0.00  0.00    +0.172 A 
ATOM     28  C   UNL     1       0.722   4.684 -13.949  0.00  0.00    +0.172 A 
ATOM     29  C   UNL     1       0.452   4.213 -12.670  0.00  0.00    +0.040 A 
ATOM     30  C   UNL     1       0.954   4.947 -11.639  0.00  0.00    -0.001 A 
BRANCH  28  31
ATOM     31  O   UNL     1       0.415   3.897 -15.031  0.00  0.00    -0.468 OA
ATOM     32  C   UNL     1      -0.749   3.091 -15.028  0.00  0.00    +0.253 C 
ENDBRANCH  28  31
BRANCH  27  33
ATOM     33  O   UNL     1       1.439   6.450 -15.387  0.00  0.00    -0.468 OA
ATOM     34  C   UNL     1       1.257   7.857 -15.531  0.00  0.00    +0.253 C 
ENDBRANCH  27  33
ENDBRANCH  24  25
ENDBRANCH  10  24
ENDBRANCH   8   9
ENDBRANCH   7   8
ENDBRANCH   5   7
ENDBRANCH   4   5
ENDBRANCH   3   4
ENDBRANCH   2   3
ENDBRANCH   1   2
BRANCH   1  35
ATOM     35  C   UNL     1      -1.984   7.637  -1.337  0.00  0.00    +0.048 C 
BRANCH  35  36
ATOM     36  C   UNL     1      -1.934   6.803  -0.062  0.00  0.00    +0.208 C 
BRANCH  36  37
ATOM     37  O   UNL     1      -2.282   7.554   1.074  0.00  0.00    -0.448 OA
BRANCH  37  38
ATOM     38  C   UNL     1      -2.083   7.034   2.357  0.00  0.00    +0.323 C 
ATOM     39  O   UNL     1      -2.583   5.920   2.605  0.00  0.00    -0.250 OA
BRANCH  38  40
ATOM     40  C   UNL     1      -0.884   7.486   3.130  0.00  0.00    +0.170 C 
BRANCH  40  41
ATOM     41  C   UNL     1       0.231   7.773   2.171  0.00  0.00    +0.121 C 
BRANCH  41  43
ATOM     42  C   UNL     1       2.158   9.061   1.362  0.00  0.00    +0.086 C 
ATOM     43  N   UNL     1       0.826   9.020   2.221  0.00  0.00    +0.301 N 
ATOM     44  C   UNL     1       0.097   9.992   1.393  0.00  0.00    +0.171 C 
ATOM     45  C   UNL     1       1.029   9.627   3.466  0.00  0.00    +0.114 C 
ATOM     46  C   UNL     1       1.874  10.862   3.474  0.00  0.00    +0.087 C 
ATOM     47  C   UNL     1       3.246  10.308   3.226  0.00  0.00    -0.012 A 
ATOM     48  C   UNL     1       4.392  11.013   3.430  0.00  0.00    +0.036 A 
ATOM     49  C   UNL     1       5.578  10.557   2.870  0.00  0.00    +0.172 A 
ATOM     50  C   UNL     1       5.602   9.203   2.554  0.00  0.00    +0.172 A 
ATOM     51  C   UNL     1       4.423   8.497   2.325  0.00  0.00    +0.041 A 
ATOM     52  C   UNL     1       3.182   9.044   2.643  0.00  0.00    +0.027 A 
BRANCH  50  53
ATOM     53  O   UNL     1       6.857   8.636   2.354  0.00  0.00    -0.468 OA
ATOM     54  C   UNL     1       7.712   8.257   3.424  0.00  0.00    +0.253 C 
ENDBRANCH  50  53
BRANCH  49  55
ATOM     55  O   UNL     1       6.436  11.431   2.187  0.00  0.00    -0.468 OA
ATOM     56  C   UNL     1       7.531  12.061   2.854  0.00  0.00    +0.253 C 
ENDBRANCH  49  55
BRANCH  42  57
ATOM     57  C   UNL     1       2.274   7.411   1.183  0.00  0.00    +0.086 C 
BRANCH  57  61
ATOM     58  C   UNL     1       3.334   5.892  -2.536  0.00  0.00    +0.172 A 
ATOM     59  C   UNL     1       3.673   7.218  -2.288  0.00  0.00    +0.172 A 
ATOM     60  C   UNL     1       3.204   7.841  -1.131  0.00  0.00    +0.036 A 
ATOM     61  C   UNL     1       2.287   7.224  -0.287  0.00  0.00    -0.013 A 
ATOM     62  C   UNL     1       1.584   6.181  -0.882  0.00  0.00    -0.001 A 
ATOM     63  C   UNL     1       2.128   5.499  -1.966  0.00  0.00    +0.040 A 
BRANCH  58  65
ATOM     64  C   UNL     1       4.445   4.424  -4.070  0.00  0.00    +0.253 C 
ATOM     65  O   UNL     1       4.294   4.928  -2.864  0.00  0.00    -0.468 OA
ENDBRANCH  58  65
BRANCH  59  66
ATOM     66  O   UNL     1       4.902   7.650  -2.799  0.00  0.00    -0.468 OA
ATOM     67  C   UNL     1       5.080   7.955  -4.174  0.00  0.00    +0.253 C 
ENDBRANCH  59  66
ENDBRANCH  57  61
ENDBRANCH  42  57
ENDBRANCH  41  43
ENDBRANCH  40  41
ENDBRANCH  38  40
ENDBRANCH  37  38
ENDBRANCH  36  37
ENDBRANCH  35  36
ENDBRANCH   1  35
TORSDOF 26
ENDMDL
MODEL 3
REMARK VINA RESULT:      -7.1      2.210     13.431
REMARK  Name = 
REMARK  26 active torsions:
REMARK  status: ('A' for Active; 'I' for Inactive)
REMARK    1  A    between atoms: O_2  and  C_3
REMARK    2  A    between atoms: C_6  and  C_7
REMARK    3  A    between atoms: C_7  and  C_8
REMARK    4  A    between atoms: C_11  and  O_12
REMARK    5  A    between atoms: C_14  and  O_15
REMARK    6  A    between atoms: N_21  and  C_23
REMARK    7  A    between atoms: C_23  and  C_24
REMARK    8  A    between atoms: C_24  and  C_25
REMARK    9  A    between atoms: C_25  and  O_27
REMARK   10  A    between atoms: O_27  and  C_28
REMARK   11  A    between atoms: C_28  and  C_29
REMARK   12  A    between atoms: C_29  and  C_30
REMARK   13  A    between atoms: C_30  and  C_31
REMARK   14  A    between atoms: C_31  and  C_32
REMARK   15  A    between atoms: C_32  and  O_33
REMARK   16  A    between atoms: O_33  and  C_34
REMARK   17  A    between atoms: C_34  and  C_36
REMARK   18  A    between atoms: C_36  and  C_37
REMARK   19  A    between atoms: C_37  and  N_38
REMARK   20  A    between atoms: C_44  and  O_45
REMARK   21  A    between atoms: C_47  and  O_48
REMARK   22  A    between atoms: C_52  and  C_53
REMARK   23  A    between atoms: C_53  and  C_54
REMARK   24  A    between atoms: C_57  and  O_58
REMARK   25  A    between atoms: C_60  and  O_61
REMARK   26  A    between atoms: C_65  and  O_66
REMARK                            x       y       z     vdW  Elec       q    Type
REMARK                         _______ _______ _______ _____ _____    ______ ____
ROOT
ATOM      1  C   UNL     1       3.011   7.207  -6.903  0.00  0.00    +0.008 C 
ENDROOT
BRANCH   1   2
ATOM      2  C   UNL     1       3.029   5.740  -6.489  0.00  0.00    +0.048 C 
BRANCH   2   3
ATOM      3  C   UNL     1       4.028   5.606  -5.346  0.00  0.00    +0.208 C 
BRANCH   3   4
ATOM      4  O   UNL     1       4.876   6.742  -5.498  0.00  0.00    -0.448 OA
BRANCH   4   5
ATOM      5  C   UNL     1       5.306   7.367  -4.321  0.00  0.00    +0.323 C 
ATOM      6  O   UNL     1       6.535   7.429  -4.038  0.00  0.00    -0.250 OA
BRANCH   5   7
ATOM      7  C   UNL     1       4.289   7.509  -3.262  0.00  0.00    +0.170 C 
BRANCH   7   8
ATOM      8  C   UNL     1       4.770   7.236  -1.884  0.00  0.00    +0.121 C 
BRANCH   8   9
ATOM      9  N   UNL     1       3.888   6.347  -1.116  0.00  0.00    +0.301 N 
ATOM     10  C   UNL     1       2.443   6.892  -1.496  0.00  0.00    +0.086 C 
ATOM     11  C   UNL     1       2.061   7.459  -0.006  0.00  0.00    +0.027 A 
ATOM     12  C   UNL     1       2.929   8.489   0.383  0.00  0.00    -0.012 A 
ATOM     13  C   UNL     1       2.509   9.231   1.486  0.00  0.00    +0.036 A 
ATOM     14  C   UNL     1       1.189   9.177   1.921  0.00  0.00    +0.172 A 
ATOM     15  C   UNL     1       0.280   8.760   0.953  0.00  0.00    +0.172 A 
ATOM     16  C   UNL     1       4.364   8.044   0.432  0.00  0.00    +0.087 C 
ATOM     17  C   UNL     1       0.768   7.995  -0.107  0.00  0.00    +0.041 A 
ATOM     18  C   UNL     1       4.185   6.539   0.216  0.00  0.00    +0.114 C 
ATOM     19  C   UNL     1       4.066   5.095  -1.733  0.00  0.00    +0.171 C 
BRANCH  14  20
ATOM     20  O   UNL     1       0.839   9.283   3.272  0.00  0.00    -0.468 OA
ATOM     21  C   UNL     1       0.357  10.537   3.750  0.00  0.00    +0.253 C 
ENDBRANCH  14  20
BRANCH  15  22
ATOM     22  O   UNL     1      -1.006   8.476   1.431  0.00  0.00    -0.468 OA
ATOM     23  C   UNL     1      -1.361   7.175   1.896  0.00  0.00    +0.253 C 
ENDBRANCH  15  22
BRANCH  10  24
ATOM     24  C   UNL     1       1.654   5.452  -1.273  0.00  0.00    +0.086 C 
BRANCH  24  25
ATOM     25  C   UNL     1       0.575   5.283  -2.229  0.00  0.00    -0.013 A 
ATOM     26  C   UNL     1      -0.776   5.506  -1.942  0.00  0.00    +0.036 A 
ATOM     27  C   UNL     1      -1.734   5.469  -2.916  0.00  0.00    +0.172 A 
ATOM     28  C   UNL     1      -1.352   5.936  -4.159  0.00  0.00    +0.172 A 
ATOM     29  C   UNL     1      -0.006   6.151  -4.429  0.00  0.00    +0.040 A 
ATOM     30  C   UNL     1       0.842   6.070  -3.367  0.00  0.00    -0.001 A 
BRANCH  28  31
ATOM     31  O   UNL     1      -2.280   6.190  -5.138  0.00  0.00    -0.468 OA
ATOM     32  C   UNL     1      -2.470   5.278  -6.204  0.00  0.00    +0.253 C 
ENDBRANCH  28  31
BRANCH  27  33
ATOM     33  O   UNL     1      -3.059   5.136  -2.694  0.00  0.00    -0.468 OA
ATOM     34  C   UNL     1      -3.994   6.212  -2.683  0.00  0.00    +0.253 C 
ENDBRANCH  27  33
ENDBRANCH  24  25
ENDBRANCH  10  24
ENDBRANCH   8   9
ENDBRANCH   7   8
ENDBRANCH   5   7
ENDBRANCH   4   5
ENDBRANCH   3   4
ENDBRANCH   2   3
ENDBRANCH   1   2
BRANCH   1  35
ATOM     35  C   UNL     1       1.701   7.606  -7.518  0.00  0.00    +0.048 C 
BRANCH  35  36
ATOM     36  C   UNL     1       0.913   6.339  -7.829  0.00  0.00    +0.208 C 
BRANCH  36  37
ATOM     37  O   UNL     1       0.818   6.101  -9.210  0.00  0.00    -0.448 OA
BRANCH  37  38
ATOM     38  C   UNL     1       1.196   4.865  -9.746  0.00  0.00    +0.323 C 
ATOM     39  O   UNL     1       0.338   4.242 -10.399  0.00  0.00    -0.250 OA
BRANCH  38  40
ATOM     40  C   UNL     1       2.646   4.625 -10.027  0.00  0.00    +0.170 C 
BRANCH  40  41
ATOM     41  C   UNL     1       2.932   4.995 -11.449  0.00  0.00    +0.121 C 
BRANCH  41  43
ATOM     42  C   UNL     1       3.491   6.837 -12.975  0.00  0.00    +0.086 C 
ATOM     43  N   UNL     1       3.863   5.990 -11.687  0.00  0.00    +0.301 N 
ATOM     44  C   UNL     1       3.707   7.104 -10.740  0.00  0.00    +0.171 C 
ATOM     45  C   UNL     1       5.223   5.659 -11.697  0.00  0.00    +0.114 C 
ATOM     46  C   UNL     1       6.162   6.720 -12.179  0.00  0.00    +0.087 C 
ATOM     47  C   UNL     1       5.888   6.739 -13.654  0.00  0.00    -0.012 A 
ATOM     48  C   UNL     1       6.700   7.341 -14.564  0.00  0.00    +0.036 A 
ATOM     49  C   UNL     1       6.215   7.600 -15.839  0.00  0.00    +0.172 A 
ATOM     50  C   UNL     1       5.132   6.821 -16.232  0.00  0.00    +0.172 A 
ATOM     51  C   UNL     1       4.294   6.228 -15.290  0.00  0.00    +0.041 A 
ATOM     52  C   UNL     1       4.642   6.182 -13.942  0.00  0.00    +0.027 A 
BRANCH  50  53
ATOM     53  O   UNL     1       4.864   6.775 -17.596  0.00  0.00    -0.468 OA
ATOM     54  C   UNL     1       3.807   7.509 -18.200  0.00  0.00    +0.253 C 
ENDBRANCH  50  53
BRANCH  49  55
ATOM     55  O   UNL     1       6.407   8.851 -16.444  0.00  0.00    -0.468 OA
ATOM     56  C   UNL     1       7.410   9.040 -17.444  0.00  0.00    +0.253 C 
ENDBRANCH  49  55
BRANCH  42  57
ATOM     57  C   UNL     1       2.344   5.767 -13.533  0.00  0.00    +0.086 C 
BRANCH  57  61
ATOM     58  C   UNL     1       0.257   8.075 -16.285  0.00  0.00    +0.172 A 
ATOM     59  C   UNL     1       0.844   8.756 -15.224  0.00  0.00    +0.172 A 
ATOM     60  C   UNL     1       1.416   8.032 -14.178  0.00  0.00    +0.036 A 
ATOM     61  C   UNL     1       1.292   6.650 -14.089  0.00  0.00    -0.013 A 
ATOM     62  C   UNL     1       0.244   6.127 -14.841  0.00  0.00    -0.001 A 
ATOM     63  C   UNL     1      -0.233   6.817 -15.951  0.00  0.00    +0.040 A 
BRANCH  58  65
ATOM     64  C   UNL     1      -0.308   8.821 -18.492  0.00  0.00    +0.253 C 
ATOM     65  O   UNL     1       0.566   8.368 -17.619  0.00  0.00    -0.468 OA
ENDBRANCH  58  65
BRANCH  59  66
ATOM     66  O   UNL     1       1.396  10.007 -15.520  0.00  0.00    -0.468 OA
ATOM     67  C   UNL     1       0.938  11.198 -14.899  0.00  0.00    +0.253 C 
ENDBRANCH  59  66
ENDBRANCH  57  61
ENDBRANCH  42  57
ENDBRANCH  41  43
ENDBRANCH  40  41
ENDBRANCH  38  40
ENDBRANCH  37  38
ENDBRANCH  36  37
ENDBRANCH  35  36
ENDBRANCH   1  35
TORSDOF 26
ENDMDL
MODEL 4
REMARK VINA RESULT:      -6.9      2.114      5.616
REMARK  Name = 
REMARK  26 active torsions:
REMARK  status: ('A' for Active; 'I' for Inactive)
REMARK    1  A    between atoms: O_2  and  C_3
REMARK    2  A    between atoms: C_6  and  C_7
REMARK    3  A    between atoms: C_7  and  C_8
REMARK    4  A    between atoms: C_11  and  O_12
REMARK    5  A    between atoms: C_14  and  O_15
REMARK    6  A    between atoms: N_21  and  C_23
REMARK    7  A    between atoms: C_23  and  C_24
REMARK    8  A    between atoms: C_24  and  C_25
REMARK    9  A    between atoms: C_25  and  O_27
REMARK   10  A    between atoms: O_27  and  C_28
REMARK   11  A    between atoms: C_28  and  C_29
REMARK   12  A    between atoms: C_29  and  C_30
REMARK   13  A    between atoms: C_30  and  C_31
REMARK   14  A    between atoms: C_31  and  C_32
REMARK   15  A    between atoms: C_32  and  O_33
REMARK   16  A    between atoms: O_33  and  C_34
REMARK   17  A    between atoms: C_34  and  C_36
REMARK   18  A    between atoms: C_36  and  C_37
REMARK   19  A    between atoms: C_37  and  N_38
REMARK   20  A    between atoms: C_44  and  O_45
REMARK   21  A    between atoms: C_47  and  O_48
REMARK   22  A    between atoms: C_52  and  C_53
REMARK   23  A    between atoms: C_53  and  C_54
REMARK   24  A    between atoms: C_57  and  O_58
REMARK   25  A    between atoms: C_60  and  O_61
REMARK   26  A    between atoms: C_65  and  O_66
REMARK                            x       y       z     vdW  Elec       q    Type
REMARK                         _______ _______ _______ _____ _____    ______ ____
ROOT
ATOM      1  C   UNL     1      -1.485   5.707  -5.119  0.00  0.00    +0.008 C 
ENDROOT
BRANCH   1   2
ATOM      2  C   UNL     1      -1.466   5.759  -6.643  0.00  0.00    +0.048 C 
BRANCH   2   3
ATOM      3  C   UNL     1      -0.021   5.560  -7.083  0.00  0.00    +0.208 C 
BRANCH   3   4
ATOM      4  O   UNL     1       0.577   6.838  -6.879  0.00  0.00    -0.448 OA
BRANCH   4   5
ATOM      5  C   UNL     1       1.613   7.193  -7.752  0.00  0.00    +0.323 C 
ATOM      6  O   UNL     1       2.042   8.380  -7.792  0.00  0.00    -0.250 OA
BRANCH   5   7
ATOM      7  C   UNL     1       1.831   6.282  -8.892  0.00  0.00    +0.170 C 
BRANCH   7   8
ATOM      8  C   UNL     1       1.326   6.774 -10.198  0.00  0.00    +0.121 C 
BRANCH   8   9
ATOM      9  N   UNL     1       1.404   5.776 -11.275  0.00  0.00    +0.301 N 
ATOM     10  C   UNL     1       2.523   6.388 -12.225  0.00  0.00    +0.086 C 
ATOM     11  C   UNL     1       1.536   6.703 -13.496  0.00  0.00    +0.027 A 
ATOM     12  C   UNL     1       0.557   7.647 -13.157  0.00  0.00    -0.012 A 
ATOM     13  C   UNL     1      -0.131   8.199 -14.236  0.00  0.00    +0.036 A 
ATOM     14  C   UNL     1       0.363   8.084 -15.531  0.00  0.00    +0.172 A 
ATOM     15  C   UNL     1       1.731   7.840 -15.606  0.00  0.00    +0.172 A 
ATOM     16  C   UNL     1      -0.315   7.189 -12.020  0.00  0.00    +0.087 C 
ATOM     17  C   UNL     1       2.347   7.258 -14.497  0.00  0.00    +0.041 A 
ATOM     18  C   UNL     1       0.167   5.742 -11.881  0.00  0.00    +0.114 C 
ATOM     19  C   UNL     1       1.937   4.643 -10.634  0.00  0.00    +0.171 C 
BRANCH  14  20
ATOM     20  O   UNL     1      -0.475   7.966 -16.646  0.00  0.00    -0.468 OA
ATOM     21  C   UNL     1      -1.272   6.789 -16.771  0.00  0.00    +0.253 C 
ENDBRANCH  14  20
BRANCH  15  22
ATOM     22  O   UNL     1       2.203   7.491 -16.878  0.00  0.00    -0.468 OA
ATOM     23  C   UNL     1       3.168   8.288 -17.562  0.00  0.00    +0.253 C 
ENDBRANCH  15  22
BRANCH  10  24
ATOM     24  C   UNL     1       3.037   4.938 -12.839  0.00  0.00    +0.086 C 
BRANCH  24  25
ATOM     25  C   UNL     1       4.459   4.956 -13.128  0.00  0.00    -0.013 A 
ATOM     26  C   UNL     1       5.049   5.725 -14.137  0.00  0.00    +0.036 A 
ATOM     27  C   UNL     1       6.406   5.812 -14.274  0.00  0.00    +0.172 A 
ATOM     28  C   UNL     1       7.135   5.793 -13.100  0.00  0.00    +0.172 A 
ATOM     29  C   UNL     1       6.517   5.425 -11.912  0.00  0.00    +0.040 A 
ATOM     30  C   UNL     1       5.162   5.292 -11.954  0.00  0.00    -0.001 A 
BRANCH  28  31
ATOM     31  O   UNL     1       8.466   6.131 -13.086  0.00  0.00    -0.468 OA
ATOM     32  C   UNL     1       9.268   5.844 -11.955  0.00  0.00    +0.253 C 
ENDBRANCH  28  31
BRANCH  27  33
ATOM     33  O   UNL     1       7.055   6.057 -15.472  0.00  0.00    -0.468 OA
ATOM     34  C   UNL     1       6.828   7.330 -16.072  0.00  0.00    +0.253 C 
ENDBRANCH  27  33
ENDBRANCH  24  25
ENDBRANCH  10  24
ENDBRANCH   8   9
ENDBRANCH   7   8
ENDBRANCH   5   7
ENDBRANCH   4   5
ENDBRANCH   3   4
ENDBRANCH   2   3
ENDBRANCH   1   2
BRANCH   1  35
ATOM     35  C   UNL     1      -2.438   6.706  -4.529  0.00  0.00    +0.048 C 
BRANCH  35  36
ATOM     36  C   UNL     1      -1.863   7.187  -3.201  0.00  0.00    +0.208 C 
BRANCH  36  37
ATOM     37  O   UNL     1      -2.522   6.612  -2.102  0.00  0.00    -0.448 OA
BRANCH  37  38
ATOM     38  C   UNL     1      -1.839   5.755  -1.233  0.00  0.00    +0.323 C 
ATOM     39  O   UNL     1      -1.091   4.902  -1.746  0.00  0.00    -0.250 OA
BRANCH  38  40
ATOM     40  C   UNL     1      -1.565   6.226   0.161  0.00  0.00    +0.170 C 
BRANCH  40  41
ATOM     41  C   UNL     1      -0.103   6.521   0.294  0.00  0.00    +0.121 C 
BRANCH  41  43
ATOM     42  C   UNL     1       1.662   8.227   0.225  0.00  0.00    +0.086 C 
ATOM     43  N   UNL     1       0.268   7.749   0.811  0.00  0.00    +0.301 N 
ATOM     44  C   UNL     1      -0.515   8.838   0.209  0.00  0.00    +0.171 C 
ATOM     45  C   UNL     1       0.228   7.943   2.196  0.00  0.00    +0.114 C 
ATOM     46  C   UNL     1       0.850   9.204   2.708  0.00  0.00    +0.087 C 
ATOM     47  C   UNL     1       2.314   8.932   2.526  0.00  0.00    -0.012 A 
ATOM     48  C   UNL     1       3.297   9.669   3.111  0.00  0.00    +0.036 A 
ATOM     49  C   UNL     1       4.597   9.566   2.634  0.00  0.00    +0.172 A 
ATOM     50  C   UNL     1       4.881   8.399   1.932  0.00  0.00    +0.172 A 
ATOM     51  C   UNL     1       3.868   7.665   1.318  0.00  0.00    +0.041 A 
ATOM     52  C   UNL     1       2.526   7.924   1.586  0.00  0.00    +0.027 A 
BRANCH  50  53
ATOM     53  O   UNL     1       6.226   8.084   1.772  0.00  0.00    -0.468 OA
ATOM     54  C   UNL     1       7.101   7.851   2.867  0.00  0.00    +0.253 C 
ENDBRANCH  50  53
BRANCH  49  55
ATOM     55  O   UNL     1       5.369  10.711   2.390  0.00  0.00    -0.468 OA
ATOM     56  C   UNL     1       4.756  11.989   2.210  0.00  0.00    +0.253 C 
ENDBRANCH  49  55
BRANCH  42  57
ATOM     57  C   UNL     1       2.069   6.748  -0.422  0.00  0.00    +0.086 C 
BRANCH  57  61
ATOM     58  C   UNL     1       3.293   6.363  -4.373  0.00  0.00    +0.172 A 
ATOM     59  C   UNL     1       3.716   7.506  -3.702  0.00  0.00    +0.172 A 
ATOM     60  C   UNL     1       3.208   7.782  -2.432  0.00  0.00    +0.036 A 
ATOM     61  C   UNL     1       2.183   7.027  -1.873  0.00  0.00    -0.013 A 
ATOM     62  C   UNL     1       1.448   6.296  -2.801  0.00  0.00    -0.001 A 
ATOM     63  C   UNL     1       2.019   5.934  -4.018  0.00  0.00    +0.040 A 
BRANCH  58  65
ATOM     64  C   UNL     1       4.441   5.377  -6.233  0.00  0.00    +0.253 C 
ATOM     65  O   UNL     1       4.197   5.458  -4.942  0.00  0.00    -0.468 OA
ENDBRANCH  58  65
BRANCH  59  66
ATOM     66  O   UNL     1       5.011   7.951  -3.989  0.00  0.00    -0.468 OA
ATOM     67  C   UNL     1       6.161   7.318  -3.450  0.00  0.00    +0.253 C 
ENDBRANCH  59  66
ENDBRANCH  57  61
ENDBRANCH  42  57
ENDBRANCH  41  43
ENDBRANCH  40  41
ENDBRANCH  38  40
ENDBRANCH  37  38
ENDBRANCH  36  37
ENDBRANCH  35  36
ENDBRANCH   1  35
TORSDOF 26
ENDMDL
MODEL 5
REMARK VINA RESULT:      -6.8      2.014     13.507
REMARK  Name = 
REMARK  26 active torsions:
REMARK  status: ('A' for Active; 'I' for Inactive)
REMARK    1  A    between atoms: O_2  and  C_3
REMARK    2  A    between atoms: C_6  and  C_7
REMARK    3  A    between atoms: C_7  and  C_8
REMARK    4  A    between atoms: C_11  and  O_12
REMARK    5  A    between atoms: C_14  and  O_15
REMARK    6  A    between atoms: N_21  and  C_23
REMARK    7  A    between atoms: C_23  and  C_24
REMARK    8  A    between atoms: C_24  and  C_25
REMARK    9  A    between atoms: C_25  and  O_27
REMARK   10  A    between atoms: O_27  and  C_28
REMARK   11  A    between atoms: C_28  and  C_29
REMARK   12  A    between atoms: C_29  and  C_30
REMARK   13  A    between atoms: C_30  and  C_31
REMARK   14  A    between atoms: C_31  and  C_32
REMARK   15  A    between atoms: C_32  and  O_33
REMARK   16  A    between atoms: O_33  and  C_34
REMARK   17  A    between atoms: C_34  and  C_36
REMARK   18  A    between atoms: C_36  and  C_37
REMARK   19  A    between atoms: C_37  and  N_38
REMARK   20  A    between atoms: C_44  and  O_45
REMARK   21  A    between atoms: C_47  and  O_48
REMARK   22  A    between atoms: C_52  and  C_53
REMARK   23  A    between atoms: C_53  and  C_54
REMARK   24  A    between atoms: C_57  and  O_58
REMARK   25  A    between atoms: C_60  and  O_61
REMARK   26  A    between atoms: C_65  and  O_66
REMARK                            x       y       z     vdW  Elec       q    Type
REMARK                         _______ _______ _______ _____ _____    ______ ____
ROOT
ATOM      1  C   UNL     1       3.273   6.755  -7.995  0.00  0.00    +0.008 C 
ENDROOT
BRANCH   1   2
ATOM      2  C   UNL     1       2.978   5.949  -6.735  0.00  0.00    +0.048 C 
BRANCH   2   3
ATOM      3  C   UNL     1       3.045   6.913  -5.557  0.00  0.00    +0.208 C 
BRANCH   3   4
ATOM      4  O   UNL     1       4.415   7.305  -5.514  0.00  0.00    -0.448 OA
BRANCH   4   5
ATOM      5  C   UNL     1       4.946   7.594  -4.250  0.00  0.00    +0.323 C 
ATOM      6  O   UNL     1       6.184   7.480  -4.031  0.00  0.00    -0.250 OA
BRANCH   5   7
ATOM      7  C   UNL     1       3.985   7.571  -3.131  0.00  0.00    +0.170 C 
BRANCH   7   8
ATOM      8  C   UNL     1       4.589   7.405  -1.785  0.00  0.00    +0.121 C 
BRANCH   8   9
ATOM      9  N   UNL     1       3.804   6.546  -0.887  0.00  0.00    +0.301 N 
ATOM     10  C   UNL     1       2.310   6.976  -1.227  0.00  0.00    +0.086 C 
ATOM     11  C   UNL     1       1.979   7.660   0.226  0.00  0.00    +0.027 A 
ATOM     12  C   UNL     1       2.805   8.767   0.466  0.00  0.00    -0.012 A 
ATOM     13  C   UNL     1       2.404   9.586   1.520  0.00  0.00    +0.036 A 
ATOM     14  C   UNL     1       1.115   9.504   2.037  0.00  0.00    +0.172 A 
ATOM     15  C   UNL     1       0.180   8.949   1.168  0.00  0.00    +0.172 A 
ATOM     16  C   UNL     1       4.265   8.405   0.469  0.00  0.00    +0.087 C 
ATOM     17  C   UNL     1       0.653   8.115   0.154  0.00  0.00    +0.041 A 
ATOM     18  C   UNL     1       4.162   6.878   0.402  0.00  0.00    +0.114 C 
ATOM     19  C   UNL     1       4.021   5.253  -1.397  0.00  0.00    +0.171 C 
BRANCH  14  20
ATOM     20  O   UNL     1       0.835   9.717   3.392  0.00  0.00    -0.468 OA
ATOM     21  C   UNL     1       0.061  10.861   3.750  0.00  0.00    +0.253 C 
ENDBRANCH  14  20
BRANCH  15  22
ATOM     22  O   UNL     1      -1.059   8.644   1.746  0.00  0.00    -0.468 OA
ATOM     23  C   UNL     1      -1.832   7.527   1.310  0.00  0.00    +0.253 C 
ENDBRANCH  15  22
BRANCH  10  24
ATOM     24  C   UNL     1       1.620   5.524  -0.826  0.00  0.00    +0.086 C 
BRANCH  24  25
ATOM     25  C   UNL     1       0.518   5.196  -1.712  0.00  0.00    -0.013 A 
ATOM     26  C   UNL     1      -0.792   5.656  -1.546  0.00  0.00    +0.036 A 
ATOM     27  C   UNL     1      -1.758   5.433  -2.486  0.00  0.00    +0.172 A 
ATOM     28  C   UNL     1      -1.335   5.443  -3.802  0.00  0.00    +0.172 A 
ATOM     29  C   UNL     1       0.023   5.401  -4.088  0.00  0.00    +0.040 A 
ATOM     30  C   UNL     1       0.867   5.553  -3.030  0.00  0.00    -0.001 A 
BRANCH  28  31
ATOM     31  O   UNL     1      -2.237   5.489  -4.837  0.00  0.00    -0.468 OA
ATOM     32  C   UNL     1      -1.867   6.038  -6.089  0.00  0.00    +0.253 C 
ENDBRANCH  28  31
BRANCH  27  33
ATOM     33  O   UNL     1      -3.111   5.346  -2.209  0.00  0.00    -0.468 OA
ATOM     34  C   UNL     1      -3.844   6.569  -2.219  0.00  0.00    +0.253 C 
ENDBRANCH  27  33
ENDBRANCH  24  25
ENDBRANCH  10  24
ENDBRANCH   8   9
ENDBRANCH   7   8
ENDBRANCH   5   7
ENDBRANCH   4   5
ENDBRANCH   3   4
ENDBRANCH   2   3
ENDBRANCH   1   2
BRANCH   1  35
ATOM     35  C   UNL     1       2.020   7.212  -8.683  0.00  0.00    +0.048 C 
BRANCH  35  36
ATOM     36  C   UNL     1       0.835   6.506  -8.034  0.00  0.00    +0.208 C 
BRANCH  36  37
ATOM     37  O   UNL     1       0.102   5.744  -8.959  0.00  0.00    -0.448 OA
BRANCH  37  38
ATOM     38  C   UNL     1       0.758   4.911  -9.872  0.00  0.00    +0.323 C 
ATOM     39  O   UNL     1       1.412   3.959  -9.406  0.00  0.00    -0.250 OA
BRANCH  38  40
ATOM     40  C   UNL     1       0.218   4.815 -11.264  0.00  0.00    +0.170 C 
BRANCH  40  41
ATOM     41  C   UNL     1       1.354   4.574 -12.209  0.00  0.00    +0.121 C 
BRANCH  41  43
ATOM     42  C   UNL     1       2.033   5.738 -14.263  0.00  0.00    +0.086 C 
ATOM     43  N   UNL     1       1.100   4.661 -13.566  0.00  0.00    +0.301 N 
ATOM     44  C   UNL     1       1.659   3.508 -14.288  0.00  0.00    +0.171 C 
ATOM     45  C   UNL     1      -0.222   4.805 -14.002  0.00  0.00    +0.114 C 
ATOM     46  C   UNL     1      -0.413   5.119 -15.453  0.00  0.00    +0.087 C 
ATOM     47  C   UNL     1       0.045   6.545 -15.531  0.00  0.00    -0.012 A 
ATOM     48  C   UNL     1      -0.209   7.362 -16.590  0.00  0.00    +0.036 A 
ATOM     49  C   UNL     1       0.520   8.535 -16.731  0.00  0.00    +0.172 A 
ATOM     50  C   UNL     1       1.104   9.016 -15.564  0.00  0.00    +0.172 A 
ATOM     51  C   UNL     1       1.379   8.166 -14.495  0.00  0.00    +0.041 A 
ATOM     52  C   UNL     1       0.864   6.872 -14.451  0.00  0.00    +0.027 A 
BRANCH  50  53
ATOM     53  O   UNL     1       1.508  10.347 -15.575  0.00  0.00    -0.468 OA
ATOM     54  C   UNL     1       0.597  11.432 -15.457  0.00  0.00    +0.253 C 
ENDBRANCH  50  53
BRANCH  49  55
ATOM     55  O   UNL     1       1.078   8.894 -17.967  0.00  0.00    -0.468 OA
ATOM     56  C   UNL     1       2.356   8.399 -18.371  0.00  0.00    +0.253 C 
ENDBRANCH  49  55
BRANCH  42  57
ATOM     57  C   UNL     1       2.548   6.434 -12.841  0.00  0.00    +0.086 C 
BRANCH  57  61
ATOM     58  C   UNL     1       6.546   5.820 -11.892  0.00  0.00    +0.172 A 
ATOM     59  C   UNL     1       6.144   5.433 -13.166  0.00  0.00    +0.172 A 
ATOM     60  C   UNL     1       4.789   5.455 -13.494  0.00  0.00    +0.036 A 
ATOM     61  C   UNL     1       3.808   5.714 -12.543  0.00  0.00    -0.013 A 
ATOM     62  C   UNL     1       4.231   5.526 -11.230  0.00  0.00    -0.001 A 
ATOM     63  C   UNL     1       5.582   5.623 -10.909  0.00  0.00    +0.040 A 
BRANCH  58  65
ATOM     64  C   UNL     1       7.572   7.630 -10.703  0.00  0.00    +0.253 C 
ATOM     65  O   UNL     1       7.566   6.755 -11.685  0.00  0.00    -0.468 OA
ENDBRANCH  58  65
BRANCH  59  66
ATOM     66  O   UNL     1       7.061   5.655 -14.199  0.00  0.00    -0.468 OA
ATOM     67  C   UNL     1       6.934   6.747 -15.097  0.00  0.00    +0.253 C 
ENDBRANCH  59  66
ENDBRANCH  57  61
ENDBRANCH  42  57
ENDBRANCH  41  43
ENDBRANCH  40  41
ENDBRANCH  38  40
ENDBRANCH  37  38
ENDBRANCH  36  37
ENDBRANCH  35  36
ENDBRANCH   1  35
TORSDOF 26
ENDMDL
MODEL 6
REMARK VINA RESULT:      -6.6      2.051      4.351
REMARK  Name = 
REMARK  26 active torsions:
REMARK  status: ('A' for Active; 'I' for Inactive)
REMARK    1  A    between atoms: O_2  and  C_3
REMARK    2  A    between atoms: C_6  and  C_7
REMARK    3  A    between atoms: C_7  and  C_8
REMARK    4  A    between atoms: C_11  and  O_12
REMARK    5  A    between atoms: C_14  and  O_15
REMARK    6  A    between atoms: N_21  and  C_23
REMARK    7  A    between atoms: C_23  and  C_24
REMARK    8  A    between atoms: C_24  and  C_25
REMARK    9  A    between atoms: C_25  and  O_27
REMARK   10  A    between atoms: O_27  and  C_28
REMARK   11  A    between atoms: C_28  and  C_29
REMARK   12  A    between atoms: C_29  and  C_30
REMARK   13  A    between atoms: C_30  and  C_31
REMARK   14  A    between atoms: C_31  and  C_32
REMARK   15  A    between atoms: C_32  and  O_33
REMARK   16  A    between atoms: O_33  and  C_34
REMARK   17  A    between atoms: C_34  and  C_36
REMARK   18  A    between atoms: C_36  and  C_37
REMARK   19  A    between atoms: C_37  and  N_38
REMARK   20  A    between atoms: C_44  and  O_45
REMARK   21  A    between atoms: C_47  and  O_48
REMARK   22  A    between atoms: C_52  and  C_53
REMARK   23  A    between atoms: C_53  and  C_54
REMARK   24  A    between atoms: C_57  and  O_58
REMARK   25  A    between atoms: C_60  and  O_61
REMARK   26  A    between atoms: C_65  and  O_66
REMARK                            x       y       z     vdW  Elec       q    Type
REMARK                         _______ _______ _______ _____ _____    ______ ____
ROOT
ATOM      1  C   UNL     1      -2.369   5.929  -4.772  0.00  0.00    +0.008 C 
ENDROOT
BRANCH   1   2
ATOM      2  C   UNL     1      -2.265   5.749  -6.282  0.00  0.00    +0.048 C 
BRANCH   2   3
ATOM      3  C   UNL     1      -0.888   5.166  -6.574  0.00  0.00    +0.208 C 
BRANCH   3   4
ATOM      4  O   UNL     1      -0.530   5.745  -7.827  0.00  0.00    -0.448 OA
BRANCH   4   5
ATOM      5  C   UNL     1       0.304   4.984  -8.655  0.00  0.00    +0.323 C 
ATOM      6  O   UNL     1       1.466   4.663  -8.279  0.00  0.00    -0.250 OA
BRANCH   5   7
ATOM      7  C   UNL     1      -0.041   4.988 -10.089  0.00  0.00    +0.170 C 
BRANCH   7   8
ATOM      8  C   UNL     1       1.118   4.974 -11.017  0.00  0.00    +0.121 C 
BRANCH   8   9
ATOM      9  N   UNL     1       1.527   6.311 -11.472  0.00  0.00    +0.301 N 
ATOM     10  C   UNL     1       1.701   6.097 -13.039  0.00  0.00    +0.086 C 
ATOM     11  C   UNL     1       3.325   6.320 -13.076  0.00  0.00    +0.027 A 
ATOM     12  C   UNL     1       3.990   5.335 -12.332  0.00  0.00    -0.012 A 
ATOM     13  C   UNL     1       5.365   5.260 -12.547  0.00  0.00    +0.036 A 
ATOM     14  C   UNL     1       5.947   5.861 -13.657  0.00  0.00    +0.172 A 
ATOM     15  C   UNL     1       5.071   6.090 -14.714  0.00  0.00    +0.172 A 
ATOM     16  C   UNL     1       3.576   5.330 -10.886  0.00  0.00    +0.087 C 
ATOM     17  C   UNL     1       3.711   6.184 -14.419  0.00  0.00    +0.041 A 
ATOM     18  C   UNL     1       2.720   6.600 -10.849  0.00  0.00    +0.114 C 
ATOM     19  C   UNL     1       0.379   7.095 -11.256  0.00  0.00    +0.171 C 
BRANCH  14  20
ATOM     20  O   UNL     1       7.231   6.419 -13.622  0.00  0.00    -0.468 OA
ATOM     21  C   UNL     1       8.018   6.229 -12.448  0.00  0.00    +0.253 C 
ENDBRANCH  14  20
BRANCH  15  22
ATOM     22  O   UNL     1       5.578   6.899 -15.740  0.00  0.00    -0.468 OA
ATOM     23  C   UNL     1       4.721   7.695 -16.557  0.00  0.00    +0.253 C 
ENDBRANCH  15  22
BRANCH  10  24
ATOM     24  C   UNL     1       1.364   7.663 -13.462  0.00  0.00    +0.086 C 
BRANCH  24  25
ATOM     25  C   UNL     1       0.449   7.725 -14.587  0.00  0.00    -0.013 A 
ATOM     26  C   UNL     1       0.653   8.509 -15.728  0.00  0.00    +0.036 A 
ATOM     27  C   UNL     1      -0.168   8.422 -16.817  0.00  0.00    +0.172 A 
ATOM     28  C   UNL     1      -0.670   7.165 -17.097  0.00  0.00    +0.172 A 
ATOM     29  C   UNL     1      -0.555   6.152 -16.153  0.00  0.00    +0.040 A 
ATOM     30  C   UNL     1       0.232   6.421 -15.075  0.00  0.00    -0.001 A 
BRANCH  28  31
ATOM     31  O   UNL     1      -1.287   6.897 -18.294  0.00  0.00    -0.468 OA
ATOM     32  C   UNL     1      -2.649   6.511 -18.332  0.00  0.00    +0.253 C 
ENDBRANCH  28  31
BRANCH  27  33
ATOM     33  O   UNL     1      -0.397   9.457 -17.706  0.00  0.00    -0.468 OA
ATOM     34  C   UNL     1       0.337  10.660 -17.486  0.00  0.00    +0.253 C 
ENDBRANCH  27  33
ENDBRANCH  24  25
ENDBRANCH  10  24
ENDBRANCH   8   9
ENDBRANCH   7   8
ENDBRANCH   5   7
ENDBRANCH   4   5
ENDBRANCH   3   4
ENDBRANCH   2   3
ENDBRANCH   1   2
BRANCH   1  35
ATOM     35  C   UNL     1      -2.390   7.375  -4.372  0.00  0.00    +0.048 C 
BRANCH  35  36
ATOM     36  C   UNL     1      -2.252   7.453  -2.856  0.00  0.00    +0.208 C 
BRANCH  36  37
ATOM     37  O   UNL     1      -2.782   6.319  -2.218  0.00  0.00    -0.448 OA
BRANCH  37  38
ATOM     38  C   UNL     1      -2.064   5.672  -1.207  0.00  0.00    +0.323 C 
ATOM     39  O   UNL     1      -1.086   4.983  -1.553  0.00  0.00    -0.250 OA
BRANCH  38  40
ATOM     40  C   UNL     1      -2.098   6.252   0.173  0.00  0.00    +0.170 C 
BRANCH  40  41
ATOM     41  C   UNL     1      -0.697   6.555   0.606  0.00  0.00    +0.121 C 
BRANCH  41  43
ATOM     42  C   UNL     1       0.980   8.348   0.538  0.00  0.00    +0.086 C 
ATOM     43  N   UNL     1      -0.421   7.828   1.069  0.00  0.00    +0.301 N 
ATOM     44  C   UNL     1      -1.221   8.838   0.361  0.00  0.00    +0.171 C 
ATOM     45  C   UNL     1      -0.554   8.097   2.437  0.00  0.00    +0.114 C 
ATOM     46  C   UNL     1      -0.028   9.416   2.909  0.00  0.00    +0.087 C 
ATOM     47  C   UNL     1       1.456   9.214   2.826  0.00  0.00    -0.012 A 
ATOM     48  C   UNL     1       2.363  10.034   3.422  0.00  0.00    +0.036 A 
ATOM     49  C   UNL     1       3.693   9.976   3.027  0.00  0.00    +0.172 A 
ATOM     50  C   UNL     1       4.077   8.789   2.412  0.00  0.00    +0.172 A 
ATOM     51  C   UNL     1       3.142   7.969   1.785  0.00  0.00    +0.041 A 
ATOM     52  C   UNL     1       1.774   8.169   1.961  0.00  0.00    +0.027 A 
BRANCH  50  53
ATOM     53  O   UNL     1       5.444   8.539   2.347  0.00  0.00    -0.468 OA
ATOM     54  C   UNL     1       6.039   7.358   2.869  0.00  0.00    +0.253 C 
ENDBRANCH  50  53
BRANCH  49  55
ATOM     55  O   UNL     1       4.419  11.145   2.760  0.00  0.00    -0.468 OA
ATOM     56  C   UNL     1       4.067  12.000   1.670  0.00  0.00    +0.253 C 
ENDBRANCH  49  55
BRANCH  42  57
ATOM     57  C   UNL     1       1.500   6.860   0.002  0.00  0.00    +0.086 C 
BRANCH  57  61
ATOM     58  C   UNL     1       3.004   6.158  -3.806  0.00  0.00    +0.172 A 
ATOM     59  C   UNL     1       3.760   6.986  -2.984  0.00  0.00    +0.172 A 
ATOM     60  C   UNL     1       3.237   7.398  -1.758  0.00  0.00    +0.036 A 
ATOM     61  C   UNL     1       1.923   7.125  -1.393  0.00  0.00    -0.013 A 
ATOM     62  C   UNL     1       1.092   6.811  -2.464  0.00  0.00    -0.001 A 
ATOM     63  C   UNL     1       1.630   6.292  -3.638  0.00  0.00    +0.040 A 
BRANCH  58  65
ATOM     64  C   UNL     1       3.775   4.816  -5.637  0.00  0.00    +0.253 C 
ATOM     65  O   UNL     1       3.523   4.980  -4.355  0.00  0.00    -0.468 OA
ENDBRANCH  58  65
BRANCH  59  66
ATOM     66  O   UNL     1       5.149   6.854  -3.080  0.00  0.00    -0.468 OA
ATOM     67  C   UNL     1       5.897   7.488  -4.107  0.00  0.00    +0.253 C 
ENDBRANCH  59  66
ENDBRANCH  57  61
ENDBRANCH  42  57
ENDBRANCH  41  43
ENDBRANCH  40  41
ENDBRANCH  38  40
ENDBRANCH  37  38
ENDBRANCH  36  37
ENDBRANCH  35  36
ENDBRANCH   1  35
TORSDOF 26
ENDMDL
MODEL 7
REMARK VINA RESULT:      -6.3      2.130      6.171
REMARK  Name = 
REMARK  26 active torsions:
REMARK  status: ('A' for Active; 'I' for Inactive)
REMARK    1  A    between atoms: O_2  and  C_3
REMARK    2  A    between atoms: C_6  and  C_7
REMARK    3  A    between atoms: C_7  and  C_8
REMARK    4  A    between atoms: C_11  and  O_12
REMARK    5  A    between atoms: C_14  and  O_15
REMARK    6  A    between atoms: N_21  and  C_23
REMARK    7  A    between atoms: C_23  and  C_24
REMARK    8  A    between atoms: C_24  and  C_25
REMARK    9  A    between atoms: C_25  and  O_27
REMARK   10  A    between atoms: O_27  and  C_28
REMARK   11  A    between atoms: C_28  and  C_29
REMARK   12  A    between atoms: C_29  and  C_30
REMARK   13  A    between atoms: C_30  and  C_31
REMARK   14  A    between atoms: C_31  and  C_32
REMARK   15  A    between atoms: C_32  and  O_33
REMARK   16  A    between atoms: O_33  and  C_34
REMARK   17  A    between atoms: C_34  and  C_36
REMARK   18  A    between atoms: C_36  and  C_37
REMARK   19  A    between atoms: C_37  and  N_38
REMARK   20  A    between atoms: C_44  and  O_45
REMARK   21  A    between atoms: C_47  and  O_48
REMARK   22  A    between atoms: C_52  and  C_53
REMARK   23  A    between atoms: C_53  and  C_54
REMARK   24  A    between atoms: C_57  and  O_58
REMARK   25  A    between atoms: C_60  and  O_61
REMARK   26  A    between atoms: C_65  and  O_66
REMARK                            x       y       z     vdW  Elec       q    Type
REMARK                         _______ _______ _______ _____ _____    ______ ____
ROOT
ATOM      1  C   UNL     1       6.261   6.045  -8.812  0.00  0.00    +0.008 C 
ENDROOT
BRANCH   1   2
ATOM      2  C   UNL     1       7.385   5.475  -9.670  0.00  0.00    +0.048 C 
BRANCH   2   3
ATOM      3  C   UNL     1       8.125   6.656 -10.287  0.00  0.00    +0.208 C 
BRANCH   3   4
ATOM      4  O   UNL     1       7.398   6.927 -11.483  0.00  0.00    -0.448 OA
BRANCH   4   5
ATOM      5  C   UNL     1       7.541   6.004 -12.527  0.00  0.00    +0.323 C 
ATOM      6  O   UNL     1       8.652   5.444 -12.744  0.00  0.00    -0.250 OA
BRANCH   5   7
ATOM      7  C   UNL     1       6.522   6.077 -13.591  0.00  0.00    +0.170 C 
BRANCH   7   8
ATOM      8  C   UNL     1       5.222   6.664 -13.181  0.00  0.00    +0.121 C 
BRANCH   8   9
ATOM      9  N   UNL     1       4.058   5.862 -13.585  0.00  0.00    +0.301 N 
ATOM     10  C   UNL     1       2.868   6.912 -13.475  0.00  0.00    +0.086 C 
ATOM     11  C   UNL     1       2.095   6.185 -12.225  0.00  0.00    +0.027 A 
ATOM     12  C   UNL     1       2.894   6.170 -11.073  0.00  0.00    -0.012 A 
ATOM     13  C   UNL     1       2.225   5.851  -9.893  0.00  0.00    +0.036 A 
ATOM     14  C   UNL     1       0.837   5.902  -9.824  0.00  0.00    +0.172 A 
ATOM     15  C   UNL     1       0.242   6.714 -10.785  0.00  0.00    +0.172 A 
ATOM     16  C   UNL     1       4.190   5.435 -11.282  0.00  0.00    +0.087 C 
ATOM     17  C   UNL     1       0.960   6.965 -11.955  0.00  0.00    +0.041 A 
ATOM     18  C   UNL     1       3.938   4.839 -12.670  0.00  0.00    +0.114 C 
ATOM     19  C   UNL     1       4.296   5.602 -14.947  0.00  0.00    +0.171 C 
BRANCH  14  20
ATOM     20  O   UNL     1       0.092   5.021  -9.032  0.00  0.00    -0.468 OA
ATOM     21  C   UNL     1      -0.470   5.515  -7.817  0.00  0.00    +0.253 C 
ENDBRANCH  14  20
BRANCH  15  22
ATOM     22  O   UNL     1      -1.151   6.596 -10.882  0.00  0.00    -0.468 OA
ATOM     23  C   UNL     1      -1.921   7.479 -11.695  0.00  0.00    +0.253 C 
ENDBRANCH  15  22
BRANCH  10  24
ATOM     24  C   UNL     1       1.909   6.204 -14.625  0.00  0.00    +0.086 C 
BRANCH  24  25
ATOM     25  C   UNL     1       1.153   7.194 -15.370  0.00  0.00    -0.013 A 
ATOM     26  C   UNL     1       1.675   7.964 -16.415  0.00  0.00    +0.036 A 
ATOM     27  C   UNL     1       0.882   8.778 -17.174  0.00  0.00    +0.172 A 
ATOM     28  C   UNL     1      -0.399   8.320 -17.416  0.00  0.00    +0.172 A 
ATOM     29  C   UNL     1      -0.895   7.246 -16.688  0.00  0.00    +0.040 A 
ATOM     30  C   UNL     1       0.001   6.583 -15.906  0.00  0.00    -0.001 A 
BRANCH  28  31
ATOM     31  O   UNL     1      -1.197   8.910 -18.366  0.00  0.00    -0.468 OA
ATOM     32  C   UNL     1      -2.585   8.633 -18.413  0.00  0.00    +0.253 C 
ENDBRANCH  28  31
BRANCH  27  33
ATOM     33  O   UNL     1       1.325   9.924 -17.811  0.00  0.00    -0.468 OA
ATOM     34  C   UNL     1       1.764  10.990 -16.973  0.00  0.00    +0.253 C 
ENDBRANCH  27  33
ENDBRANCH  24  25
ENDBRANCH  10  24
ENDBRANCH   8   9
ENDBRANCH   7   8
ENDBRANCH   5   7
ENDBRANCH   4   5
ENDBRANCH   3   4
ENDBRANCH   2   3
ENDBRANCH   1   2
BRANCH   1  35
ATOM     35  C   UNL     1       5.496   4.972  -8.094  0.00  0.00    +0.048 C 
BRANCH  35  36
ATOM     36  C   UNL     1       4.711   5.623  -6.961  0.00  0.00    +0.208 C 
BRANCH  36  37
ATOM     37  O   UNL     1       3.418   5.087  -6.839  0.00  0.00    -0.448 OA
BRANCH  37  38
ATOM     38  C   UNL     1       2.984   4.549  -5.623  0.00  0.00    +0.323 C 
ATOM     39  O   UNL     1       3.784   4.576  -4.669  0.00  0.00    -0.250 OA
BRANCH  38  40
ATOM     40  C   UNL     1       1.514   4.517  -5.343  0.00  0.00    +0.170 C 
BRANCH  40  41
ATOM     41  C   UNL     1       1.285   4.893  -3.912  0.00  0.00    +0.121 C 
BRANCH  41  43
ATOM     42  C   UNL     1       0.903   6.827  -2.446  0.00  0.00    +0.086 C 
ATOM     43  N   UNL     1       0.396   5.918  -3.643  0.00  0.00    +0.301 N 
ATOM     44  C   UNL     1       0.477   6.975  -4.663  0.00  0.00    +0.171 C 
ATOM     45  C   UNL     1      -0.962   5.616  -3.486  0.00  0.00    +0.114 C 
ATOM     46  C   UNL     1      -1.834   6.720  -2.977  0.00  0.00    +0.087 C 
ATOM     47  C   UNL     1      -1.419   6.815  -1.539  0.00  0.00    -0.012 A 
ATOM     48  C   UNL     1      -2.131   7.482  -0.591  0.00  0.00    +0.036 A 
ATOM     49  C   UNL     1      -1.522   7.801   0.616  0.00  0.00    +0.172 A 
ATOM     50  C   UNL     1      -0.418   7.022   0.947  0.00  0.00    +0.172 A 
ATOM     51  C   UNL     1       0.316   6.362  -0.035  0.00  0.00    +0.041 A 
ATOM     52  C   UNL     1      -0.160   6.250  -1.339  0.00  0.00    +0.027 A 
BRANCH  50  53
ATOM     53  O   UNL     1      -0.020   7.047   2.280  0.00  0.00    -0.468 OA
ATOM     54  C   UNL     1       1.027   7.880   2.759  0.00  0.00    +0.253 C 
ENDBRANCH  50  53
BRANCH  49  55
ATOM     55  O   UNL     1      -1.637   9.086   1.165  0.00  0.00    -0.468 OA
ATOM     56  C   UNL     1      -2.691   9.409   2.074  0.00  0.00    +0.253 C 
ENDBRANCH  49  55
BRANCH  42  57
ATOM     57  C   UNL     1       2.082   5.767  -1.941  0.00  0.00    +0.086 C 
BRANCH  57  61
ATOM     58  C   UNL     1       4.483   8.068   0.549  0.00  0.00    +0.172 A 
ATOM     59  C   UNL     1       3.750   8.755  -0.415  0.00  0.00    +0.172 A 
ATOM     60  C   UNL     1       3.055   8.037  -1.387  0.00  0.00    +0.036 A 
ATOM     61  C   UNL     1       3.186   6.658  -1.514  0.00  0.00    -0.013 A 
ATOM     62  C   UNL     1       4.332   6.142  -0.916  0.00  0.00    -0.001 A 
ATOM     63  C   UNL     1       4.942   6.823   0.132  0.00  0.00    +0.040 A 
BRANCH  58  65
ATOM     64  C   UNL     1       4.650   7.477   2.866  0.00  0.00    +0.253 C 
ATOM     65  O   UNL     1       4.349   8.337   1.916  0.00  0.00    -0.468 OA
ENDBRANCH  58  65
BRANCH  59  66
ATOM     66  O   UNL     1       3.225   9.992  -0.028  0.00  0.00    -0.468 OA
ATOM     67  C   UNL     1       3.619  11.205  -0.651  0.00  0.00    +0.253 C 
ENDBRANCH  59  66
ENDBRANCH  57  61
ENDBRANCH  42  57
ENDBRANCH  41  43
ENDBRANCH  40  41
ENDBRANCH  38  40
ENDBRANCH  37  38
ENDBRANCH  36  37
ENDBRANCH  35  36
ENDBRANCH   1  35
TORSDOF 26
ENDMDL
MODEL 8
REMARK VINA RESULT:      -6.1      1.785      4.614
REMARK  Name = 
REMARK  26 active torsions:
REMARK  status: ('A' for Active; 'I' for Inactive)
REMARK    1  A    between atoms: O_2  and  C_3
REMARK    2  A    between atoms: C_6  and  C_7
REMARK    3  A    between atoms: C_7  and  C_8
REMARK    4  A    between atoms: C_11  and  O_12
REMARK    5  A    between atoms: C_14  and  O_15
REMARK    6  A    between atoms: N_21  and  C_23
REMARK    7  A    between atoms: C_23  and  C_24
REMARK    8  A    between atoms: C_24  and  C_25
REMARK    9  A    between atoms: C_25  and  O_27
REMARK   10  A    between atoms: O_27  and  C_28
REMARK   11  A    between atoms: C_28  and  C_29
REMARK   12  A    between atoms: C_29  and  C_30
REMARK   13  A    between atoms: C_30  and  C_31
REMARK   14  A    between atoms: C_31  and  C_32
REMARK   15  A    between atoms: C_32  and  O_33
REMARK   16  A    between atoms: O_33  and  C_34
REMARK   17  A    between atoms: C_34  and  C_36
REMARK   18  A    between atoms: C_36  and  C_37
REMARK   19  A    between atoms: C_37  and  N_38
REMARK   20  A    between atoms: C_44  and  O_45
REMARK   21  A    between atoms: C_47  and  O_48
REMARK   22  A    between atoms: C_52  and  C_53
REMARK   23  A    between atoms: C_53  and  C_54
REMARK   24  A    between atoms: C_57  and  O_58
REMARK   25  A    between atoms: C_60  and  O_61
REMARK   26  A    between atoms: C_65  and  O_66
REMARK                            x       y       z     vdW  Elec       q    Type
REMARK                         _______ _______ _______ _____ _____    ______ ____
ROOT
ATOM      1  C   UNL     1      -0.069   5.576  -8.325  0.00  0.00    +0.008 C 
ENDROOT
BRANCH   1   2
ATOM      2  C   UNL     1      -0.570   5.826  -9.743  0.00  0.00    +0.048 C 
BRANCH   2   3
ATOM      3  C   UNL     1       0.193   7.027 -10.287  0.00  0.00    +0.208 C 
BRANCH   3   4
ATOM      4  O   UNL     1      -0.563   7.424 -11.429  0.00  0.00    -0.448 OA
BRANCH   4   5
ATOM      5  C   UNL     1       0.155   7.652 -12.609  0.00  0.00    +0.323 C 
ATOM      6  O   UNL     1       0.001   8.723 -13.260  0.00  0.00    -0.250 OA
BRANCH   5   7
ATOM      7  C   UNL     1       0.703   6.451 -13.268  0.00  0.00    +0.170 C 
BRANCH   7   8
ATOM      8  C   UNL     1       2.178   6.441 -13.436  0.00  0.00    +0.121 C 
BRANCH   8   9
ATOM      9  N   UNL     1       2.849   5.357 -12.704  0.00  0.00    +0.301 N 
ATOM     10  C   UNL     1       3.545   6.136 -11.505  0.00  0.00    +0.086 C 
ATOM     11  C   UNL     1       5.091   5.868 -11.983  0.00  0.00    +0.027 A 
ATOM     12  C   UNL     1       5.350   6.467 -13.224  0.00  0.00    -0.012 A 
ATOM     13  C   UNL     1       6.698   6.553 -13.569  0.00  0.00    +0.036 A 
ATOM     14  C   UNL     1       7.691   6.387 -12.610  0.00  0.00    +0.172 A 
ATOM     15  C   UNL     1       7.273   6.615 -11.301  0.00  0.00    +0.172 A 
ATOM     16  C   UNL     1       4.452   5.946 -14.312  0.00  0.00    +0.087 C 
ATOM     17  C   UNL     1       5.912   6.481 -11.024  0.00  0.00    +0.041 A 
ATOM     18  C   UNL     1       3.766   4.798 -13.567  0.00  0.00    +0.114 C 
ATOM     19  C   UNL     1       1.781   4.603 -12.183  0.00  0.00    +0.171 C 
BRANCH  14  20
ATOM     20  O   UNL     1       8.926   5.797 -12.902  0.00  0.00    -0.468 OA
ATOM     21  C   UNL     1      10.060   6.184 -12.128  0.00  0.00    +0.253 C 
ENDBRANCH  14  20
BRANCH  15  22
ATOM     22  O   UNL     1       8.186   6.229 -10.311  0.00  0.00    -0.468 OA
ATOM     23  C   UNL     1       8.040   5.003  -9.596  0.00  0.00    +0.253 C 
ENDBRANCH  15  22
BRANCH  10  24
ATOM     24  C   UNL     1       3.533   4.863 -10.445  0.00  0.00    +0.086 C 
BRANCH  24  25
ATOM     25  C   UNL     1       3.300   5.307  -9.083  0.00  0.00    -0.013 A 
ATOM     26  C   UNL     1       4.121   4.986  -7.997  0.00  0.00    +0.036 A 
ATOM     27  C   UNL     1       3.935   5.546  -6.764  0.00  0.00    +0.172 A 
ATOM     28  C   UNL     1       3.499   6.858  -6.755  0.00  0.00    +0.172 A 
ATOM     29  C   UNL     1       3.025   7.433  -7.927  0.00  0.00    +0.040 A 
ATOM     30  C   UNL     1       3.207   6.713  -9.068  0.00  0.00    -0.001 A 
BRANCH  28  31
ATOM     31  O   UNL     1       3.523   7.606  -5.603  0.00  0.00    -0.468 OA
ATOM     32  C   UNL     1       4.637   7.548  -4.731  0.00  0.00    +0.253 C 
ENDBRANCH  28  31
BRANCH  27  33
ATOM     33  O   UNL     1       4.286   4.939  -5.571  0.00  0.00    -0.468 OA
ATOM     34  C   UNL     1       3.285   4.143  -4.941  0.00  0.00    +0.253 C 
ENDBRANCH  27  33
ENDBRANCH  24  25
ENDBRANCH  10  24
ENDBRANCH   8   9
ENDBRANCH   7   8
ENDBRANCH   5   7
ENDBRANCH   4   5
ENDBRANCH   3   4
ENDBRANCH   2   3
ENDBRANCH   1   2
BRANCH   1  35
ATOM     35  C   UNL     1      -1.192   5.337  -7.359  0.00  0.00    +0.048 C 
BRANCH  35  36
ATOM     36  C   UNL     1      -0.711   5.717  -5.964  0.00  0.00    +0.208 C 
BRANCH  36  37
ATOM     37  O   UNL     1      -1.443   6.790  -5.427  0.00  0.00    -0.448 OA
BRANCH  37  38
ATOM     38  C   UNL     1      -1.387   7.074  -4.058  0.00  0.00    +0.323 C 
ATOM     39  O   UNL     1      -2.164   7.946  -3.626  0.00  0.00    -0.250 OA
BRANCH  38  40
ATOM     40  C   UNL     1      -0.891   6.010  -3.130  0.00  0.00    +0.170 C 
BRANCH  40  41
ATOM     41  C   UNL     1      -0.249   6.662  -1.945  0.00  0.00    +0.121 C 
BRANCH  41  43
ATOM     42  C   UNL     1       1.231   6.592   0.014  0.00  0.00    +0.086 C 
ATOM     43  N   UNL     1       0.938   6.131  -1.475  0.00  0.00    +0.301 N 
ATOM     44  C   UNL     1       0.792   4.704  -1.151  0.00  0.00    +0.171 C 
ATOM     45  C   UNL     1       2.093   6.248  -2.257  0.00  0.00    +0.114 C 
ATOM     46  C   UNL     1       3.381   5.859  -1.604  0.00  0.00    +0.087 C 
ATOM     47  C   UNL     1       3.602   6.989  -0.642  0.00  0.00    -0.012 A 
ATOM     48  C   UNL     1       4.790   7.231  -0.023  0.00  0.00    +0.036 A 
ATOM     49  C   UNL     1       4.819   8.070   1.083  0.00  0.00    +0.172 A 
ATOM     50  C   UNL     1       3.750   8.954   1.186  0.00  0.00    +0.172 A 
ATOM     51  C   UNL     1       2.532   8.684   0.566  0.00  0.00    +0.041 A 
ATOM     52  C   UNL     1       2.411   7.662  -0.373  0.00  0.00    +0.027 A 
BRANCH  50  53
ATOM     53  O   UNL     1       3.924  10.041   2.037  0.00  0.00    -0.468 OA
ATOM     54  C   UNL     1       2.838  10.773   2.587  0.00  0.00    +0.253 C 
ENDBRANCH  50  53
BRANCH  49  55
ATOM     55  O   UNL     1       5.517   7.709   2.244  0.00  0.00    -0.468 OA
ATOM     56  C   UNL     1       6.810   8.248   2.526  0.00  0.00    +0.253 C 
ENDBRANCH  49  55
BRANCH  42  57
ATOM     57  C   UNL     1       0.078   7.793   0.029  0.00  0.00    +0.086 C 
BRANCH  57  61
ATOM     58  C   UNL     1      -2.129   7.883   3.548  0.00  0.00    +0.172 A 
ATOM     59  C   UNL     1      -1.633   9.102   3.095  0.00  0.00    +0.172 A 
ATOM     60  C   UNL     1      -0.749   9.124   2.017  0.00  0.00    +0.036 A 
ATOM     61  C   UNL     1      -0.231   7.955   1.469  0.00  0.00    -0.013 A 
ATOM     62  C   UNL     1      -0.316   6.850   2.312  0.00  0.00    -0.001 A 
ATOM     63  C   UNL     1      -1.286   6.804   3.309  0.00  0.00    +0.040 A 
BRANCH  58  65
ATOM     64  C   UNL     1      -4.134   6.586   3.345  0.00  0.00    +0.253 C 
ATOM     65  O   UNL     1      -3.497   7.665   3.747  0.00  0.00    -0.468 OA
ENDBRANCH  58  65
BRANCH  59  66
ATOM     66  O   UNL     1      -2.466  10.212   3.269  0.00  0.00    -0.468 OA
ATOM     67  C   UNL     1      -1.949  11.508   3.530  0.00  0.00    +0.253 C 
ENDBRANCH  59  66
ENDBRANCH  57  61
ENDBRANCH  42  57
ENDBRANCH  41  43
ENDBRANCH  40  41
ENDBRANCH  38  40
ENDBRANCH  37  38
ENDBRANCH  36  37
ENDBRANCH  35  36
ENDBRANCH   1  35
TORSDOF 26
ENDMDL
MODEL 9
REMARK VINA RESULT:      -6.0      1.722      4.160
REMARK  Name = 
REMARK  26 active torsions:
REMARK  status: ('A' for Active; 'I' for Inactive)
REMARK    1  A    between atoms: O_2  and  C_3
REMARK    2  A    between atoms: C_6  and  C_7
REMARK    3  A    between atoms: C_7  and  C_8
REMARK    4  A    between atoms: C_11  and  O_12
REMARK    5  A    between atoms: C_14  and  O_15
REMARK    6  A    between atoms: N_21  and  C_23
REMARK    7  A    between atoms: C_23  and  C_24
REMARK    8  A    between atoms: C_24  and  C_25
REMARK    9  A    between atoms: C_25  and  O_27
REMARK   10  A    between atoms: O_27  and  C_28
REMARK   11  A    between atoms: C_28  and  C_29
REMARK   12  A    between atoms: C_29  and  C_30
REMARK   13  A    between atoms: C_30  and  C_31
REMARK   14  A    between atoms: C_31  and  C_32
REMARK   15  A    between atoms: C_32  and  O_33
REMARK   16  A    between atoms: O_33  and  C_34
REMARK   17  A    between atoms: C_34  and  C_36
REMARK   18  A    between atoms: C_36  and  C_37
REMARK   19  A    between atoms: C_37  and  N_38
REMARK   20  A    between atoms: C_44  and  O_45
REMARK   21  A    between atoms: C_47  and  O_48
REMARK   22  A    between atoms: C_52  and  C_53
REMARK   23  A    between atoms: C_53  and  C_54
REMARK   24  A    between atoms: C_57  and  O_58
REMARK   25  A    between atoms: C_60  and  O_61
REMARK   26  A    between atoms: C_65  and  O_66
REMARK                            x       y       z     vdW  Elec       q    Type
REMARK                         _______ _______ _______ _____ _____    ______ ____
ROOT
ATOM      1  C   UNL     1      -1.694   5.941  -4.809  0.00  0.00    +0.008 C 
ENDROOT
BRANCH   1   2
ATOM      2  C   UNL     1      -1.724   5.800  -6.327  0.00  0.00    +0.048 C 
BRANCH   2   3
ATOM      3  C   UNL     1      -0.726   4.711  -6.699  0.00  0.00    +0.208 C 
BRANCH   3   4
ATOM      4  O   UNL     1       0.319   5.417  -7.364  0.00  0.00    -0.448 OA
BRANCH   4   5
ATOM      5  C   UNL     1       0.542   5.090  -8.707  0.00  0.00    +0.323 C 
ATOM      6  O   UNL     1      -0.426   4.957  -9.508  0.00  0.00    -0.250 OA
BRANCH   5   7
ATOM      7  C   UNL     1       1.847   4.471  -9.008  0.00  0.00    +0.170 C 
BRANCH   7   8
ATOM      8  C   UNL     1       3.027   5.340  -8.766  0.00  0.00    +0.121 C 
BRANCH   8   9
ATOM      9  N   UNL     1       3.155   6.444  -9.728  0.00  0.00    +0.301 N 
ATOM     10  C   UNL     1       3.080   5.688 -11.125  0.00  0.00    +0.086 C 
ATOM     11  C   UNL     1       4.624   5.995 -11.585  0.00  0.00    +0.027 A 
ATOM     12  C   UNL     1       5.542   5.398 -10.710  0.00  0.00    -0.012 A 
ATOM     13  C   UNL     1       6.855   5.346 -11.175  0.00  0.00    +0.036 A 
ATOM     14  C   UNL     1       7.142   5.541 -12.522  0.00  0.00    +0.172 A 
ATOM     15  C   UNL     1       6.070   5.308 -13.380  0.00  0.00    +0.172 A 
ATOM     16  C   UNL     1       5.393   5.890  -9.296  0.00  0.00    +0.087 C 
ATOM     17  C   UNL     1       4.783   5.407 -12.849  0.00  0.00    +0.041 A 
ATOM     18  C   UNL     1       4.386   7.023  -9.513  0.00  0.00    +0.114 C 
ATOM     19  C   UNL     1       1.963   7.171  -9.552  0.00  0.00    +0.171 C 
BRANCH  14  20
ATOM     20  O   UNL     1       8.319   6.162 -12.957  0.00  0.00    -0.468 OA
ATOM     21  C   UNL     1       9.531   5.875 -12.261  0.00  0.00    +0.253 C 
ENDBRANCH  14  20
BRANCH  15  22
ATOM     22  O   UNL     1       6.269   5.721 -14.703  0.00  0.00    -0.468 OA
ATOM     23  C   UNL     1       5.694   6.927 -15.204  0.00  0.00    +0.253 C 
ENDBRANCH  15  22
BRANCH  10  24
ATOM     24  C   UNL     1       2.455   6.964 -11.976  0.00  0.00    +0.086 C 
BRANCH  24  25
ATOM     25  C   UNL     1       1.901   6.536 -13.248  0.00  0.00    -0.013 A 
ATOM     26  C   UNL     1       1.076   5.418 -13.413  0.00  0.00    +0.036 A 
ATOM     27  C   UNL     1       0.468   5.142 -14.606  0.00  0.00    +0.172 A 
ATOM     28  C   UNL     1       0.065   6.237 -15.347  0.00  0.00    +0.172 A 
ATOM     29  C   UNL     1       0.518   7.505 -15.003  0.00  0.00    +0.040 A 
ATOM     30  C   UNL     1       1.185   7.606 -13.821  0.00  0.00    -0.001 A 
BRANCH  28  31
ATOM     31  O   UNL     1      -0.776   6.096 -16.423  0.00  0.00    -0.468 OA
ATOM     32  C   UNL     1      -1.108   7.212 -17.228  0.00  0.00    +0.253 C 
ENDBRANCH  28  31
BRANCH  27  33
ATOM     33  O   UNL     1       0.118   3.872 -15.027  0.00  0.00    -0.468 OA
ATOM     34  C   UNL     1       0.654   2.782 -14.280  0.00  0.00    +0.253 C 
ENDBRANCH  27  33
ENDBRANCH  24  25
ENDBRANCH  10  24
ENDBRANCH   8   9
ENDBRANCH   7   8
ENDBRANCH   5   7
ENDBRANCH   4   5
ENDBRANCH   3   4
ENDBRANCH   2   3
ENDBRANCH   1   2
BRANCH   1  35
ATOM     35  C   UNL     1      -2.705   6.931  -4.311  0.00  0.00    +0.048 C 
BRANCH  35  36
ATOM     36  C   UNL     1      -3.272   6.412  -2.994  0.00  0.00    +0.208 C 
BRANCH  36  37
ATOM     37  O   UNL     1      -2.520   6.844  -1.889  0.00  0.00    -0.448 OA
BRANCH  37  38
ATOM     38  C   UNL     1      -2.024   5.920  -0.963  0.00  0.00    +0.323 C 
ATOM     39  O   UNL     1      -1.234   5.056  -1.387  0.00  0.00    -0.250 OA
BRANCH  38  40
ATOM     40  C   UNL     1      -1.966   6.319   0.479  0.00  0.00    +0.170 C 
BRANCH  40  41
ATOM     41  C   UNL     1      -0.561   6.711   0.817  0.00  0.00    +0.121 C 
BRANCH  41  43
ATOM     42  C   UNL     1       1.060   8.547   0.635  0.00  0.00    +0.086 C 
ATOM     43  N   UNL     1      -0.325   8.019   1.198  0.00  0.00    +0.301 N 
ATOM     44  C   UNL     1      -1.154   8.957   0.427  0.00  0.00    +0.171 C 
ATOM     45  C   UNL     1      -0.470   8.371   2.545  0.00  0.00    +0.114 C 
ATOM     46  C   UNL     1       0.014   9.733   2.932  0.00  0.00    +0.087 C 
ATOM     47  C   UNL     1       1.504   9.572   2.863  0.00  0.00    -0.012 A 
ATOM     48  C   UNL     1       2.384  10.457   3.405  0.00  0.00    +0.036 A 
ATOM     49  C   UNL     1       3.716  10.414   3.015  0.00  0.00    +0.172 A 
ATOM     50  C   UNL     1       4.138   9.202   2.478  0.00  0.00    +0.172 A 
ATOM     51  C   UNL     1       3.230   8.315   1.905  0.00  0.00    +0.041 A 
ATOM     52  C   UNL     1       1.857   8.484   2.066  0.00  0.00    +0.027 A 
BRANCH  50  53
ATOM     53  O   UNL     1       5.512   8.991   2.430  0.00  0.00    -0.468 OA
ATOM     54  C   UNL     1       6.101   7.703   2.553  0.00  0.00    +0.253 C 
ENDBRANCH  50  53
BRANCH  49  55
ATOM     55  O   UNL     1       4.406  11.586   2.674  0.00  0.00    -0.468 OA
ATOM     56  C   UNL     1       4.130  12.823   3.334  0.00  0.00    +0.253 C 
ENDBRANCH  49  55
BRANCH  42  57
ATOM     57  C   UNL     1       1.627   7.044   0.196  0.00  0.00    +0.086 C 
BRANCH  57  61
ATOM     58  C   UNL     1       3.311   6.223  -3.512  0.00  0.00    +0.172 A 
ATOM     59  C   UNL     1       3.852   7.294  -2.808  0.00  0.00    +0.172 A 
ATOM     60  C   UNL     1       3.232   7.729  -1.638  0.00  0.00    +0.036 A 
ATOM     61  C   UNL     1       2.005   7.220  -1.226  0.00  0.00    -0.013 A 
ATOM     62  C   UNL     1       1.281   6.600  -2.240  0.00  0.00    -0.001 A 
ATOM     63  C   UNL     1       1.938   6.071  -3.346  0.00  0.00    +0.040 A 
BRANCH  58  65
ATOM     64  C   UNL     1       3.830   4.403  -4.983  0.00  0.00    +0.253 C 
ATOM     65  O   UNL     1       4.086   5.130  -3.916  0.00  0.00    -0.468 OA
ENDBRANCH  58  65
BRANCH  59  66
ATOM     66  O   UNL     1       5.238   7.460  -2.903  0.00  0.00    -0.468 OA
ATOM     67  C   UNL     1       5.920   7.400  -4.147  0.00  0.00    +0.253 C 
ENDBRANCH  59  66
ENDBRANCH  57  61
ENDBRANCH  42  57
ENDBRANCH  41  43
ENDBRANCH  40  41
ENDBRANCH  38  40
ENDBRANCH  37  38
ENDBRANCH  36  37
ENDBRANCH  35  36
ENDBRANCH   1  35
TORSDOF 26
ENDMDL
